MODEL 1
REMARK VINA RESULT:      -7.5      0.000      0.000
REMARK  Name = 
REMARK  3 active torsions:
REMARK  status: ('A' for Active; 'I' for Inactive)
REMARK    1  A    between atoms: C_2  and  C_3
REMARK    2  A    between atoms: C_4  and  C_5
REMARK    3  A    between atoms: C_14  and  C_16
REMARK                            x       y       z     vdW  Elec       q    Type
REMARK                         _______ _______ _______ _____ _____    ______ ____
ROOT
ATOM      1  C   UNL     1       4.654   5.004  16.345  0.00  0.00    +0.000 A 
ATOM      2  C   UNL     1       5.107   4.019  15.456  0.00  0.00    +0.000 A 
ATOM      3  C   UNL     1       4.489   2.795  15.838  0.00  0.00    +0.000 A 
ATOM      4  C   UNL     1       3.629   3.062  16.871  0.00  0.00    +0.000 A 
ATOM      5  N   UNL     1       3.639   4.422  17.119  0.00  0.00    +0.000 N 
ATOM      6  C   UNL     1       2.775   5.086  18.023  0.00  0.00    +0.000 C 
ATOM      7  O   UNL     1       2.499   6.258  17.775  0.00  0.00    +0.000 OA
ENDROOT
BRANCH   1   9
ATOM      8  O   UNL     1       4.734   7.219  15.585  0.00  0.00    +0.000 OA
ATOM      9  C   UNL     1       5.063   6.403  16.449  0.00  0.00    +0.000 C 
ATOM     10  N   UNL     1       5.934   6.783  17.487  0.00  0.00    +0.000 N 
ATOM     11  C   UNL     1       6.388   8.172  17.563  0.00  0.00    +0.000 C 
ATOM     12  C   UNL     1       7.914   8.228  17.672  0.00  0.00    +0.000 C 
ATOM     13  C   UNL     1       8.439   7.375  18.827  0.00  0.00    +0.000 C 
ATOM     14  C   UNL     1       7.874   5.964  18.782  0.00  0.00    +0.000 C 
ATOM     15  C   UNL     1       6.363   5.962  18.611  0.00  0.00    +0.000 C 
ENDBRANCH   1   9
BRANCH   2  16
ATOM     16  C   UNL     1       6.020   4.196  14.321  0.00  0.00    +0.000 A 
ATOM     17  C   UNL     1       7.151   5.019  14.374  0.00  0.00    +0.000 A 
ATOM     18  C   UNL     1       7.949   5.205  13.234  0.00  0.00    +0.000 A 
ATOM     19  C   UNL     1       7.650   4.546  12.046  0.00  0.00    +0.000 A 
ATOM     20  C   UNL     1       6.559   3.683  11.992  0.00  0.00    +0.000 A 
ATOM     21  C   UNL     1       5.753   3.511  13.122  0.00  0.00    +0.000 A 
ENDBRANCH   2  16
BRANCH   6  22
ATOM     22  C   UNL     1       2.257   4.487  19.288  0.00  0.00    +0.000 A 
ATOM     23  C   UNL     1       1.139   3.636  19.299  0.00  0.00    +0.000 A 
ATOM     24  C   UNL     1       0.756   2.996  20.480  0.00  0.00    +0.000 A 
ATOM     25  C   UNL     1       1.489   3.187  21.649  0.00  0.00    +0.000 A 
ATOM     26  C   UNL     1       2.612   4.019  21.639  0.00  0.00    +0.000 A 
ATOM     27  C   UNL     1       2.996   4.659  20.465  0.00  0.00    +0.000 A 
ENDBRANCH   6  22
TORSDOF 3
ENDMDL
MODEL 2
REMARK VINA RESULT:      -7.4      4.085      6.183
REMARK  Name = 
REMARK  3 active torsions:
REMARK  status: ('A' for Active; 'I' for Inactive)
REMARK    1  A    between atoms: C_2  and  C_3
REMARK    2  A    between atoms: C_4  and  C_5
REMARK    3  A    between atoms: C_14  and  C_16
REMARK                            x       y       z     vdW  Elec       q    Type
REMARK                         _______ _______ _______ _____ _____    ______ ____
ROOT
ATOM      1  C   UNL     1       2.475   7.168  18.974  0.00  0.00    +0.000 A 
ATOM      2  C   UNL     1       3.483   7.249  18.004  0.00  0.00    +0.000 A 
ATOM      3  C   UNL     1       3.347   8.513  17.364  0.00  0.00    +0.000 A 
ATOM      4  C   UNL     1       2.340   9.196  17.992  0.00  0.00    +0.000 A 
ATOM      5  N   UNL     1       1.871   8.432  19.045  0.00  0.00    +0.000 N 
ATOM      6  C   UNL     1       0.926   8.869  20.004  0.00  0.00    +0.000 C 
ATOM      7  O   UNL     1       0.995   8.370  21.125  0.00  0.00    +0.000 OA
ENDROOT
BRANCH   1   9
ATOM      8  O   UNL     1       2.221   6.128  21.058  0.00  0.00    +0.000 OA
ATOM      9  C   UNL     1       2.116   6.041  19.833  0.00  0.00    +0.000 C 
ATOM     10  N   UNL     1       1.760   4.817  19.237  0.00  0.00    +0.000 N 
ATOM     11  C   UNL     1       1.452   3.671  20.094  0.00  0.00    +0.000 C 
ATOM     12  C   UNL     1       2.265   2.449  19.661  0.00  0.00    +0.000 C 
ATOM     13  C   UNL     1       2.084   2.136  18.175  0.00  0.00    +0.000 C 
ATOM     14  C   UNL     1       2.313   3.368  17.313  0.00  0.00    +0.000 C 
ATOM     15  C   UNL     1       1.531   4.569  17.820  0.00  0.00    +0.000 C 
ENDBRANCH   1   9
BRANCH   2  16
ATOM     16  C   UNL     1       4.515   6.248  17.706  0.00  0.00    +0.000 A 
ATOM     17  C   UNL     1       5.187   5.527  18.700  0.00  0.00    +0.000 A 
ATOM     18  C   UNL     1       6.214   4.634  18.359  0.00  0.00    +0.000 A 
ATOM     19  C   UNL     1       6.556   4.425  17.027  0.00  0.00    +0.000 A 
ATOM     20  C   UNL     1       5.862   5.095  16.023  0.00  0.00    +0.000 A 
ATOM     21  C   UNL     1       4.850   5.998  16.364  0.00  0.00    +0.000 A 
ENDBRANCH   2  16
BRANCH   6  22
ATOM     22  C   UNL     1      -0.189   9.820  19.718  0.00  0.00    +0.000 A 
ATOM     23  C   UNL     1      -0.519  10.860  20.603  0.00  0.00    +0.000 A 
ATOM     24  C   UNL     1      -1.484  11.803  20.247  0.00  0.00    +0.000 A 
ATOM     25  C   UNL     1      -2.113  11.728  19.007  0.00  0.00    +0.000 A 
ATOM     26  C   UNL     1      -1.776  10.706  18.115  0.00  0.00    +0.000 A 
ATOM     27  C   UNL     1      -0.816   9.763  18.467  0.00  0.00    +0.000 A 
ENDBRANCH   6  22
TORSDOF 3
ENDMDL
MODEL 3
REMARK VINA RESULT:      -7.2      4.151      6.252
REMARK  Name = 
REMARK  3 active torsions:
REMARK  status: ('A' for Active; 'I' for Inactive)
REMARK    1  A    between atoms: C_2  and  C_3
REMARK    2  A    between atoms: C_4  and  C_5
REMARK    3  A    between atoms: C_14  and  C_16
REMARK                            x       y       z     vdW  Elec       q    Type
REMARK                         _______ _______ _______ _____ _____    ______ ____
ROOT
ATOM      1  C   UNL     1       2.414   7.253  18.938  0.00  0.00    +0.000 A 
ATOM      2  C   UNL     1       3.444   7.279  17.988  0.00  0.00    +0.000 A 
ATOM      3  C   UNL     1       3.356   8.528  17.310  0.00  0.00    +0.000 A 
ATOM      4  C   UNL     1       2.355   9.256  17.898  0.00  0.00    +0.000 A 
ATOM      5  N   UNL     1       1.844   8.535  18.961  0.00  0.00    +0.000 N 
ATOM      6  C   UNL     1       0.892   9.024  19.887  0.00  0.00    +0.000 C 
ATOM      7  O   UNL     1       0.924   8.555  21.023  0.00  0.00    +0.000 OA
ENDROOT
BRANCH   1   9
ATOM      8  O   UNL     1       2.075   6.286  21.045  0.00  0.00    +0.000 OA
ATOM      9  C   UNL     1       2.007   6.161  19.820  0.00  0.00    +0.000 C 
ATOM     10  N   UNL     1       1.648   4.925  19.253  0.00  0.00    +0.000 N 
ATOM     11  C   UNL     1       1.292   3.813  20.135  0.00  0.00    +0.000 C 
ATOM     12  C   UNL     1       2.096   2.563  19.769  0.00  0.00    +0.000 C 
ATOM     13  C   UNL     1       1.958   2.205  18.289  0.00  0.00    +0.000 C 
ATOM     14  C   UNL     1       2.237   3.404  17.395  0.00  0.00    +0.000 C 
ATOM     15  C   UNL     1       1.461   4.635  17.837  0.00  0.00    +0.000 C 
ENDBRANCH   1   9
BRANCH   2  16
ATOM     16  C   UNL     1       4.454   6.243  17.740  0.00  0.00    +0.000 A 
ATOM     17  C   UNL     1       4.851   5.859  16.454  0.00  0.00    +0.000 A 
ATOM     18  C   UNL     1       5.770   4.813  16.276  0.00  0.00    +0.000 A 
ATOM     19  C   UNL     1       6.327   4.166  17.375  0.00  0.00    +0.000 A 
ATOM     20  C   UNL     1       5.982   4.572  18.662  0.00  0.00    +0.000 A 
ATOM     21  C   UNL     1       5.054   5.602  18.839  0.00  0.00    +0.000 A 
ENDBRANCH   2  16
BRANCH   6  22
ATOM     22  C   UNL     1      -0.190   9.996  19.551  0.00  0.00    +0.000 A 
ATOM     23  C   UNL     1      -0.990   9.843  18.406  0.00  0.00    +0.000 A 
ATOM     24  C   UNL     1      -2.071  10.699  18.187  0.00  0.00    +0.000 A 
ATOM     25  C   UNL     1      -2.372  11.698  19.110  0.00  0.00    +0.000 A 
ATOM     26  C   UNL     1      -1.590  11.843  20.260  0.00  0.00    +0.000 A 
ATOM     27  C   UNL     1      -0.511  10.993  20.480  0.00  0.00    +0.000 A 
ENDBRANCH   6  22
TORSDOF 3
ENDMDL
MODEL 4
REMARK VINA RESULT:      -7.1      7.915      9.616
REMARK  Name = 
REMARK  3 active torsions:
REMARK  status: ('A' for Active; 'I' for Inactive)
REMARK    1  A    between atoms: C_2  and  C_3
REMARK    2  A    between atoms: C_4  and  C_5
REMARK    3  A    between atoms: C_14  and  C_16
REMARK                            x       y       z     vdW  Elec       q    Type
REMARK                         _______ _______ _______ _____ _____    ______ ____
ROOT
ATOM      1  C   UNL     1      -0.209  10.764  20.889  0.00  0.00    +0.000 A 
ATOM      2  C   UNL     1       0.376   9.537  21.229  0.00  0.00    +0.000 A 
ATOM      3  C   UNL     1       0.038   9.275  22.587  0.00  0.00    +0.000 A 
ATOM      4  C   UNL     1      -0.792  10.277  23.015  0.00  0.00    +0.000 A 
ATOM      5  N   UNL     1      -1.038  11.134  21.958  0.00  0.00    +0.000 N 
ATOM      6  C   UNL     1      -1.960  12.208  21.985  0.00  0.00    +0.000 C 
ATOM      7  O   UNL     1      -2.479  12.527  20.917  0.00  0.00    +0.000 OA
ENDROOT
BRANCH   1   9
ATOM      8  O   UNL     1      -0.589  11.118  18.604  0.00  0.00    +0.000 OA
ATOM      9  C   UNL     1      -0.081  11.529  19.650  0.00  0.00    +0.000 C 
ATOM     10  N   UNL     1       0.728  12.680  19.640  0.00  0.00    +0.000 N 
ATOM     11  C   UNL     1       0.901  13.418  18.388  0.00  0.00    +0.000 C 
ATOM     12  C   UNL     1       2.388  13.643  18.104  0.00  0.00    +0.000 C 
ATOM     13  C   UNL     1       3.103  14.308  19.280  0.00  0.00    +0.000 C 
ATOM     14  C   UNL     1       2.827  13.579  20.586  0.00  0.00    +0.000 C 
ATOM     15  C   UNL     1       1.341  13.326  20.793  0.00  0.00    +0.000 C 
ENDBRANCH   1   9
BRANCH   2  16
ATOM     16  C   UNL     1       1.165   8.655  20.361  0.00  0.00    +0.000 A 
ATOM     17  C   UNL     1       1.600   9.032  19.085  0.00  0.00    +0.000 A 
ATOM     18  C   UNL     1       2.291   8.120  18.271  0.00  0.00    +0.000 A 
ATOM     19  C   UNL     1       2.586   6.842  18.733  0.00  0.00    +0.000 A 
ATOM     20  C   UNL     1       2.206   6.469  20.020  0.00  0.00    +0.000 A 
ATOM     21  C   UNL     1       1.502   7.371  20.824  0.00  0.00    +0.000 A 
ENDBRANCH   2  16
BRANCH   6  22
ATOM     22  C   UNL     1      -2.271  13.023  23.196  0.00  0.00    +0.000 A 
ATOM     23  C   UNL     1      -1.438  14.075  23.613  0.00  0.00    +0.000 A 
ATOM     24  C   UNL     1      -1.822  14.894  24.676  0.00  0.00    +0.000 A 
ATOM     25  C   UNL     1      -3.039  14.683  25.319  0.00  0.00    +0.000 A 
ATOM     26  C   UNL     1      -3.880  13.649  24.898  0.00  0.00    +0.000 A 
ATOM     27  C   UNL     1      -3.500  12.829  23.839  0.00  0.00    +0.000 A 
ENDBRANCH   6  22
TORSDOF 3
ENDMDL
MODEL 5
REMARK VINA RESULT:      -6.8      8.112      9.743
REMARK  Name = 
REMARK  3 active torsions:
REMARK  status: ('A' for Active; 'I' for Inactive)
REMARK    1  A    between atoms: C_2  and  C_3
REMARK    2  A    between atoms: C_4  and  C_5
REMARK    3  A    between atoms: C_14  and  C_16
REMARK                            x       y       z     vdW  Elec       q    Type
REMARK                         _______ _______ _______ _____ _____    ______ ____
ROOT
ATOM      1  C   UNL     1      -0.187  11.130  20.796  0.00  0.00    +0.000 A 
ATOM      2  C   UNL     1       0.337   9.857  21.063  0.00  0.00    +0.000 A 
ATOM      3  C   UNL     1      -0.021   9.531  22.402  0.00  0.00    +0.000 A 
ATOM      4  C   UNL     1      -0.806  10.545  22.886  0.00  0.00    +0.000 A 
ATOM      5  N   UNL     1      -1.004  11.474  21.882  0.00  0.00    +0.000 N 
ATOM      6  C   UNL     1      -1.874  12.587  21.971  0.00  0.00    +0.000 C 
ATOM      7  O   UNL     1      -2.370  12.995  20.922  0.00  0.00    +0.000 OA
ENDROOT
BRANCH   1   9
ATOM      8  O   UNL     1      -0.569  11.659  18.545  0.00  0.00    +0.000 OA
ATOM      9  C   UNL     1      -0.015  11.960  19.605  0.00  0.00    +0.000 C 
ATOM     10  N   UNL     1       0.883  13.042  19.652  0.00  0.00    +0.000 N 
ATOM     11  C   UNL     1       1.097  13.843  18.447  0.00  0.00    +0.000 C 
ATOM     12  C   UNL     1       2.594  13.967  18.149  0.00  0.00    +0.000 C 
ATOM     13  C   UNL     1       3.376  14.495  19.351  0.00  0.00    +0.000 C 
ATOM     14  C   UNL     1       3.061  13.708  20.614  0.00  0.00    +0.000 C 
ATOM     15  C   UNL     1       1.563  13.561  20.832  0.00  0.00    +0.000 C 
ENDBRANCH   1   9
BRANCH   2  16
ATOM     16  C   UNL     1       1.088   8.992  20.147  0.00  0.00    +0.000 A 
ATOM     17  C   UNL     1       1.635   7.764  20.535  0.00  0.00    +0.000 A 
ATOM     18  C   UNL     1       2.404   7.011  19.634  0.00  0.00    +0.000 A 
ATOM     19  C   UNL     1       2.604   7.456  18.332  0.00  0.00    +0.000 A 
ATOM     20  C   UNL     1       2.023   8.650  17.914  0.00  0.00    +0.000 A 
ATOM     21  C   UNL     1       1.271   9.409  18.816  0.00  0.00    +0.000 A 
ENDBRANCH   2  16
BRANCH   6  22
ATOM     22  C   UNL     1      -2.153  13.343  23.228  0.00  0.00    +0.000 A 
ATOM     23  C   UNL     1      -1.247  14.288  23.738  0.00  0.00    +0.000 A 
ATOM     24  C   UNL     1      -1.594  15.064  24.846  0.00  0.00    +0.000 A 
ATOM     25  C   UNL     1      -2.844  14.915  25.441  0.00  0.00    +0.000 A 
ATOM     26  C   UNL     1      -3.756  13.989  24.927  0.00  0.00    +0.000 A 
ATOM     27  C   UNL     1      -3.413  13.213  23.824  0.00  0.00    +0.000 A 
ENDBRANCH   6  22
TORSDOF 3
ENDMDL
MODEL 6
REMARK VINA RESULT:      -6.8      9.885     12.785
REMARK  Name = 
REMARK  3 active torsions:
REMARK  status: ('A' for Active; 'I' for Inactive)
REMARK    1  A    between atoms: C_2  and  C_3
REMARK    2  A    between atoms: C_4  and  C_5
REMARK    3  A    between atoms: C_14  and  C_16
REMARK                            x       y       z     vdW  Elec       q    Type
REMARK                         _______ _______ _______ _____ _____    ______ ____
ROOT
ATOM      1  C   UNL     1       0.495  13.932  20.692  0.00  0.00    +0.000 A 
ATOM      2  C   UNL     1       0.260  12.583  20.394  0.00  0.00    +0.000 A 
ATOM      3  C   UNL     1       0.261  12.463  18.976  0.00  0.00    +0.000 A 
ATOM      4  C   UNL     1       0.571  13.689  18.450  0.00  0.00    +0.000 A 
ATOM      5  N   UNL     1       0.822  14.568  19.486  0.00  0.00    +0.000 N 
ATOM      6  C   UNL     1       1.307  15.889  19.327  0.00  0.00    +0.000 C 
ATOM      7  O   UNL     1       1.979  16.353  20.246  0.00  0.00    +0.000 OA
ENDROOT
BRANCH   1   9
ATOM      8  O   UNL     1       1.527  14.690  22.655  0.00  0.00    +0.000 OA
ATOM      9  C   UNL     1       0.490  14.598  21.994  0.00  0.00    +0.000 C 
ATOM     10  N   UNL     1      -0.736  15.029  22.534  0.00  0.00    +0.000 N 
ATOM     11  C   UNL     1      -0.751  15.648  23.860  0.00  0.00    +0.000 C 
ATOM     12  C   UNL     1      -1.792  14.967  24.753  0.00  0.00    +0.000 C 
ATOM     13  C   UNL     1      -3.175  14.938  24.103  0.00  0.00    +0.000 C 
ATOM     14  C   UNL     1      -3.117  14.383  22.688  0.00  0.00    +0.000 C 
ATOM     15  C   UNL     1      -2.028  15.048  21.861  0.00  0.00    +0.000 C 
ENDBRANCH   1   9
BRANCH   2  16
ATOM     16  C   UNL     1       0.075  11.479  21.344  0.00  0.00    +0.000 A 
ATOM     17  C   UNL     1      -0.943  11.463  22.304  0.00  0.00    +0.000 A 
ATOM     18  C   UNL     1      -1.028  10.414  23.232  0.00  0.00    +0.000 A 
ATOM     19  C   UNL     1      -0.125   9.357  23.190  0.00  0.00    +0.000 A 
ATOM     20  C   UNL     1       0.862   9.332  22.208  0.00  0.00    +0.000 A 
ATOM     21  C   UNL     1       0.957  10.386  21.294  0.00  0.00    +0.000 A 
ENDBRANCH   2  16
BRANCH   6  22
ATOM     22  C   UNL     1       0.982  16.773  18.169  0.00  0.00    +0.000 A 
ATOM     23  C   UNL     1      -0.299  17.322  17.994  0.00  0.00    +0.000 A 
ATOM     24  C   UNL     1      -0.534  18.241  16.970  0.00  0.00    +0.000 A 
ATOM     25  C   UNL     1       0.503  18.630  16.126  0.00  0.00    +0.000 A 
ATOM     26  C   UNL     1       1.784  18.101  16.307  0.00  0.00    +0.000 A 
ATOM     27  C   UNL     1       2.022  17.183  17.325  0.00  0.00    +0.000 A 
ENDBRANCH   6  22
TORSDOF 3
ENDMDL
MODEL 7
REMARK VINA RESULT:      -6.6      8.290     11.185
REMARK  Name = 
REMARK  3 active torsions:
REMARK  status: ('A' for Active; 'I' for Inactive)
REMARK    1  A    between atoms: C_2  and  C_3
REMARK    2  A    between atoms: C_4  and  C_5
REMARK    3  A    between atoms: C_14  and  C_16
REMARK                            x       y       z     vdW  Elec       q    Type
REMARK                         _______ _______ _______ _____ _____    ______ ____
ROOT
ATOM      1  C   UNL     1      -0.753  11.757  21.308  0.00  0.00    +0.000 A 
ATOM      2  C   UNL     1      -1.301  11.625  22.591  0.00  0.00    +0.000 A 
ATOM      3  C   UNL     1      -0.867  10.369  23.103  0.00  0.00    +0.000 A 
ATOM      4  C   UNL     1      -0.018   9.811  22.184  0.00  0.00    +0.000 A 
ATOM      5  N   UNL     1       0.146  10.695  21.133  0.00  0.00    +0.000 N 
ATOM      6  C   UNL     1       1.058  10.521  20.064  0.00  0.00    +0.000 C 
ATOM      7  O   UNL     1       1.497  11.538  19.532  0.00  0.00    +0.000 OA
ENDROOT
BRANCH   1   9
ATOM      8  O   UNL     1      -1.768  12.645  19.392  0.00  0.00    +0.000 OA
ATOM      9  C   UNL     1      -0.974  12.813  20.320  0.00  0.00    +0.000 C 
ATOM     10  N   UNL     1      -0.185  13.976  20.377  0.00  0.00    +0.000 N 
ATOM     11  C   UNL     1      -0.368  15.010  19.359  0.00  0.00    +0.000 C 
ATOM     12  C   UNL     1       0.978  15.386  18.734  0.00  0.00    +0.000 C 
ATOM     13  C   UNL     1       2.012  15.778  19.789  0.00  0.00    +0.000 C 
ATOM     14  C   UNL     1       2.112  14.733  20.890  0.00  0.00    +0.000 C 
ATOM     15  C   UNL     1       0.745  14.349  21.435  0.00  0.00    +0.000 C 
ENDBRANCH   1   9
BRANCH   2  16
ATOM     16  C   UNL     1      -2.140  12.593  23.306  0.00  0.00    +0.000 A 
ATOM     17  C   UNL     1      -3.510  12.402  23.521  0.00  0.00    +0.000 A 
ATOM     18  C   UNL     1      -4.277  13.395  24.150  0.00  0.00    +0.000 A 
ATOM     19  C   UNL     1      -3.682  14.568  24.601  0.00  0.00    +0.000 A 
ATOM     20  C   UNL     1      -2.310  14.751  24.442  0.00  0.00    +0.000 A 
ATOM     21  C   UNL     1      -1.549  13.770  23.799  0.00  0.00    +0.000 A 
ENDBRANCH   2  16
BRANCH   6  22
ATOM     22  C   UNL     1       1.444   9.198  19.492  0.00  0.00    +0.000 A 
ATOM     23  C   UNL     1       1.697   9.031  18.120  0.00  0.00    +0.000 A 
ATOM     24  C   UNL     1       2.176   7.811  17.638  0.00  0.00    +0.000 A 
ATOM     25  C   UNL     1       2.420   6.758  18.517  0.00  0.00    +0.000 A 
ATOM     26  C   UNL     1       2.187   6.924  19.885  0.00  0.00    +0.000 A 
ATOM     27  C   UNL     1       1.709   8.138  20.369  0.00  0.00    +0.000 A 
ENDBRANCH   6  22
TORSDOF 3
ENDMDL
MODEL 8
REMARK VINA RESULT:      -6.6      7.624     10.536
REMARK  Name = 
REMARK  3 active torsions:
REMARK  status: ('A' for Active; 'I' for Inactive)
REMARK    1  A    between atoms: C_2  and  C_3
REMARK    2  A    between atoms: C_4  and  C_5
REMARK    3  A    between atoms: C_14  and  C_16
REMARK                            x       y       z     vdW  Elec       q    Type
REMARK                         _______ _______ _______ _____ _____    ______ ____
ROOT
ATOM      1  C   UNL     1      -0.452  11.127  21.278  0.00  0.00    +0.000 A 
ATOM      2  C   UNL     1      -0.990  11.189  22.571  0.00  0.00    +0.000 A 
ATOM      3  C   UNL     1      -0.614   9.989  23.238  0.00  0.00    +0.000 A 
ATOM      4  C   UNL     1       0.194   9.274  22.393  0.00  0.00    +0.000 A 
ATOM      5  N   UNL     1       0.389  10.006  21.236  0.00  0.00    +0.000 N 
ATOM      6  C   UNL     1       1.277   9.649  20.194  0.00  0.00    +0.000 C 
ATOM      7  O   UNL     1       1.761  10.565  19.533  0.00  0.00    +0.000 OA
ENDROOT
BRANCH   1   9
ATOM      8  O   UNL     1      -1.449  11.816  19.273  0.00  0.00    +0.000 OA
ATOM      9  C   UNL     1      -0.632  12.057  20.164  0.00  0.00    +0.000 C 
ATOM     10  N   UNL     1       0.220  13.172  20.063  0.00  0.00    +0.000 N 
ATOM     11  C   UNL     1       0.077  14.075  18.920  0.00  0.00    +0.000 C 
ATOM     12  C   UNL     1       1.431  14.291  18.240  0.00  0.00    +0.000 C 
ATOM     13  C   UNL     1       2.501  14.758  19.226  0.00  0.00    +0.000 C 
ATOM     14  C   UNL     1       2.562  13.859  20.452  0.00  0.00    +0.000 C 
ATOM     15  C   UNL     1       1.185  13.626  21.055  0.00  0.00    +0.000 C 
ENDBRANCH   1   9
BRANCH   2  16
ATOM     16  C   UNL     1      -1.770  12.284  23.160  0.00  0.00    +0.000 A 
ATOM     17  C   UNL     1      -1.223  13.540  23.448  0.00  0.00    +0.000 A 
ATOM     18  C   UNL     1      -1.999  14.526  24.077  0.00  0.00    +0.000 A 
ATOM     19  C   UNL     1      -3.332  14.284  24.391  0.00  0.00    +0.000 A 
ATOM     20  C   UNL     1      -3.906  13.058  24.063  0.00  0.00    +0.000 A 
ATOM     21  C   UNL     1      -3.128  12.069  23.453  0.00  0.00    +0.000 A 
ENDBRANCH   2  16
BRANCH   6  22
ATOM     22  C   UNL     1       1.589   8.244  19.795  0.00  0.00    +0.000 A 
ATOM     23  C   UNL     1       2.150   7.939  18.543  0.00  0.00    +0.000 A 
ATOM     24  C   UNL     1       2.542   6.631  18.251  0.00  0.00    +0.000 A 
ATOM     25  C   UNL     1       2.394   5.626  19.204  0.00  0.00    +0.000 A 
ATOM     26  C   UNL     1       1.854   5.928  20.457  0.00  0.00    +0.000 A 
ATOM     27  C   UNL     1       1.460   7.230  20.751  0.00  0.00    +0.000 A 
ENDBRANCH   6  22
TORSDOF 3
ENDMDL
MODEL 9
REMARK VINA RESULT:      -6.6      8.635     11.125
REMARK  Name = 
REMARK  3 active torsions:
REMARK  status: ('A' for Active; 'I' for Inactive)
REMARK    1  A    between atoms: C_2  and  C_3
REMARK    2  A    between atoms: C_4  and  C_5
REMARK    3  A    between atoms: C_14  and  C_16
REMARK                            x       y       z     vdW  Elec       q    Type
REMARK                         _______ _______ _______ _____ _____    ______ ____
ROOT
ATOM      1  C   UNL     1      -0.215  12.913  19.433  0.00  0.00    +0.000 A 
ATOM      2  C   UNL     1       0.512  14.103  19.291  0.00  0.00    +0.000 A 
ATOM      3  C   UNL     1       1.837  13.741  18.917  0.00  0.00    +0.000 A 
ATOM      4  C   UNL     1       1.873  12.381  18.761  0.00  0.00    +0.000 A 
ATOM      5  N   UNL     1       0.603  11.874  18.967  0.00  0.00    +0.000 N 
ATOM      6  C   UNL     1       0.226  10.526  18.757  0.00  0.00    +0.000 C 
ATOM      7  O   UNL     1      -0.944  10.314  18.447  0.00  0.00    +0.000 OA
ENDROOT
BRANCH   1   9
ATOM      8  O   UNL     1      -2.520  12.659  19.097  0.00  0.00    +0.000 OA
ATOM      9  C   UNL     1      -1.588  12.727  19.901  0.00  0.00    +0.000 C 
ATOM     10  N   UNL     1      -1.844  12.744  21.284  0.00  0.00    +0.000 N 
ATOM     11  C   UNL     1      -3.224  12.612  21.754  0.00  0.00    +0.000 C 
ATOM     12  C   UNL     1      -3.562  13.737  22.736  0.00  0.00    +0.000 C 
ATOM     13  C   UNL     1      -2.557  13.818  23.884  0.00  0.00    +0.000 C 
ATOM     14  C   UNL     1      -1.125  13.854  23.373  0.00  0.00    +0.000 C 
ATOM     15  C   UNL     1      -0.857  12.756  22.356  0.00  0.00    +0.000 C 
ENDBRANCH   1   9
BRANCH   2  16
ATOM     16  C   UNL     1       0.017  15.475  19.458  0.00  0.00    +0.000 A 
ATOM     17  C   UNL     1      -0.142  16.079  20.710  0.00  0.00    +0.000 A 
ATOM     18  C   UNL     1      -0.686  17.369  20.813  0.00  0.00    +0.000 A 
ATOM     19  C   UNL     1      -1.041  18.080  19.671  0.00  0.00    +0.000 A 
ATOM     20  C   UNL     1      -0.840  17.513  18.415  0.00  0.00    +0.000 A 
ATOM     21  C   UNL     1      -0.315  16.221  18.314  0.00  0.00    +0.000 A 
ENDBRANCH   2  16
BRANCH   6  22
ATOM     22  C   UNL     1       1.126   9.355  18.972  0.00  0.00    +0.000 A 
ATOM     23  C   UNL     1       1.184   8.683  20.205  0.00  0.00    +0.000 A 
ATOM     24  C   UNL     1       1.944   7.518  20.334  0.00  0.00    +0.000 A 
ATOM     25  C   UNL     1       2.635   7.008  19.238  0.00  0.00    +0.000 A 
ATOM     26  C   UNL     1       2.567   7.662  18.005  0.00  0.00    +0.000 A 
ATOM     27  C   UNL     1       1.812   8.823  17.872  0.00  0.00    +0.000 A 
ENDBRANCH   6  22
TORSDOF 3
ENDMDL
