MODEL 1
REMARK VINA RESULT:      -8.3      0.000      0.000
REMARK  Name = 
REMARK  13 active torsions:
REMARK  status: ('A' for Active; 'I' for Inactive)
REMARK    1  A    between atoms: C_1  and  C_2
REMARK    2  A    between atoms: C_7  and  N_8
REMARK    3  A    between atoms: N_8  and  C_22
REMARK    4  A    between atoms: C_9  and  C_11
REMARK    5  A    between atoms: C_11  and  N_12
REMARK    6  A    between atoms: C_15  and  C_16
REMARK    7  A    between atoms: C_22  and  C_23
REMARK    8  A    between atoms: C_22  and  C_31
REMARK    9  A    between atoms: N_25  and  C_26
REMARK   10  A    between atoms: C_26  and  C_27
REMARK   11  A    between atoms: C_27  and  C_28
REMARK   12  A    between atoms: C_28  and  C_29
REMARK   13  A    between atoms: C_28  and  C_30
REMARK                            x       y       z     vdW  Elec       q    Type
REMARK                         _______ _______ _______ _____ _____    ______ ____
ROOT
ATOM      1  N   UNL     1       3.735   5.914  17.660  0.00  0.00    +0.000 N 
ATOM      2  C   UNL     1       2.967   6.834  18.417  0.00  0.00    +0.000 C 
ATOM      3  O   UNL     1       2.273   6.496  19.385  0.00  0.00    +0.000 OA
ENDROOT
BRANCH   1  10
ATOM      4  C   UNL     1       1.479   3.964  17.074  0.00  0.00    +0.000 C 
ATOM      5  C   UNL     1       2.658   3.678  17.963  0.00  0.00    +0.000 A 
ATOM      6  C   UNL     1       2.666   2.435  18.630  0.00  0.00    +0.000 A 
ATOM      7  C   UNL     1       3.726   2.062  19.456  0.00  0.00    +0.000 A 
ATOM      8  C   UNL     1       4.809   2.915  19.611  0.00  0.00    +0.000 A 
ATOM      9  C   UNL     1       4.812   4.154  18.967  0.00  0.00    +0.000 A 
ATOM     10  C   UNL     1       3.742   4.558  18.148  0.00  0.00    +0.000 A 
ENDBRANCH   1  10
BRANCH   2  11
ATOM     11  C   UNL     1       2.881   8.274  17.965  0.00  0.00    +0.000 C 
BRANCH  11  12
ATOM     12  N   UNL     1       1.781   9.023  18.535  0.00  0.00    +0.000 N 
ATOM     13  N   UNL     1       0.732   9.373  17.767  0.00  0.00    +0.000 NA
ATOM     14  N   UNL     1      -0.112   9.970  18.594  0.00  0.00    +0.000 NA
ATOM     15  C   UNL     1       0.490   9.991  19.828  0.00  0.00    +0.000 A 
ATOM     16  N   UNL     1       1.741   9.489  19.804  0.00  0.00    +0.000 NA
BRANCH  15  17
ATOM     17  C   UNL     1      -0.189  10.510  21.051  0.00  0.00    +0.000 A 
ATOM     18  C   UNL     1      -0.372   9.775  22.207  0.00  0.00    +0.000 A 
ATOM     19  C   UNL     1      -1.068  10.514  23.209  0.00  0.00    +0.000 A 
ATOM     20  C   UNL     1      -1.399  11.780  22.778  0.00  0.00    +0.000 A 
ATOM     21  S   UNL     1      -0.791  12.099  21.210  0.00  0.00    +0.000 S 
ENDBRANCH  15  17
ENDBRANCH  11  12
ENDBRANCH   2  11
BRANCH   1  22
ATOM     22  C   UNL     1       4.952   6.381  16.952  0.00  0.00    +0.000 C 
BRANCH  22  23
ATOM     23  C   UNL     1       5.348   5.475  15.821  0.00  0.00    +0.000 A 
ATOM     24  C   UNL     1       4.782   4.377  15.211  0.00  0.00    +0.000 A 
ATOM     25  C   UNL     1       5.736   3.868  14.299  0.00  0.00    +0.000 A 
ATOM     26  C   UNL     1       6.834   4.687  14.405  0.00  0.00    +0.000 A 
ATOM     27  O   UNL     1       6.607   5.666  15.315  0.00  0.00    +0.000 OA
ENDBRANCH  22  23
BRANCH  22  28
ATOM     28  C   UNL     1       6.198   6.772  17.787  0.00  0.00    +0.000 C 
ATOM     29  O   UNL     1       6.587   6.148  18.772  0.00  0.00    +0.000 OA
ATOM     30  N   UNL     1       6.851   7.911  17.325  0.00  0.00    +0.000 N 
ATOM     31  H   UNL     1       6.448   8.461  16.574  0.00  0.00    +0.000 HD
BRANCH  30  32
ATOM     32  C   UNL     1       8.145   8.309  17.852  0.00  0.00    +0.000 C 
BRANCH  32  33
ATOM     33  C   UNL     1       8.222   9.818  18.128  0.00  0.00    +0.000 C 
BRANCH  33  34
ATOM     34  C   UNL     1       9.548  10.303  18.750  0.00  0.00    +0.000 C 
ATOM     35  C   UNL     1      10.225  11.377  17.898  0.00  0.00    +0.000 C 
ATOM     36  C   UNL     1       9.310  10.872  20.152  0.00  0.00    +0.000 C 
ENDBRANCH  33  34
ENDBRANCH  32  33
ENDBRANCH  30  32
ENDBRANCH  22  28
ENDBRANCH   1  22
TORSDOF 10
ENDMDL
MODEL 2
REMARK VINA RESULT:      -7.9      1.694      2.111
REMARK  Name = 
REMARK  13 active torsions:
REMARK  status: ('A' for Active; 'I' for Inactive)
REMARK    1  A    between atoms: C_1  and  C_2
REMARK    2  A    between atoms: C_7  and  N_8
REMARK    3  A    between atoms: N_8  and  C_22
REMARK    4  A    between atoms: C_9  and  C_11
REMARK    5  A    between atoms: C_11  and  N_12
REMARK    6  A    between atoms: C_15  and  C_16
REMARK    7  A    between atoms: C_22  and  C_23
REMARK    8  A    between atoms: C_22  and  C_31
REMARK    9  A    between atoms: N_25  and  C_26
REMARK   10  A    between atoms: C_26  and  C_27
REMARK   11  A    between atoms: C_27  and  C_28
REMARK   12  A    between atoms: C_28  and  C_29
REMARK   13  A    between atoms: C_28  and  C_30
REMARK                            x       y       z     vdW  Elec       q    Type
REMARK                         _______ _______ _______ _____ _____    ______ ____
ROOT
ATOM      1  N   UNL     1       3.909   6.095  17.614  0.00  0.00    +0.000 N 
ATOM      2  C   UNL     1       3.131   7.079  18.275  0.00  0.00    +0.000 C 
ATOM      3  O   UNL     1       2.422   6.829  19.259  0.00  0.00    +0.000 OA
ENDROOT
BRANCH   1  10
ATOM      4  C   UNL     1       1.648   4.109  17.199  0.00  0.00    +0.000 C 
ATOM      5  C   UNL     1       2.823   3.900  18.113  0.00  0.00    +0.000 A 
ATOM      6  C   UNL     1       2.824   2.722  18.890  0.00  0.00    +0.000 A 
ATOM      7  C   UNL     1       3.880   2.421  19.750  0.00  0.00    +0.000 A 
ATOM      8  C   UNL     1       4.965   3.281  19.832  0.00  0.00    +0.000 A 
ATOM      9  C   UNL     1       4.975   4.457  19.078  0.00  0.00    +0.000 A 
ATOM     10  C   UNL     1       3.909   4.789  18.222  0.00  0.00    +0.000 A 
ENDBRANCH   1  10
BRANCH   2  11
ATOM     11  C   UNL     1       3.050   8.473  17.693  0.00  0.00    +0.000 C 
BRANCH  11  12
ATOM     12  N   UNL     1       1.860   9.212  18.055  0.00  0.00    +0.000 N 
ATOM     13  N   UNL     1       1.901  10.110  19.057  0.00  0.00    +0.000 NA
ATOM     14  N   UNL     1       0.693  10.652  19.080  0.00  0.00    +0.000 NA
ATOM     15  C   UNL     1      -0.042  10.020  18.109  0.00  0.00    +0.000 A 
ATOM     16  N   UNL     1       0.638   9.025  17.506  0.00  0.00    +0.000 NA
BRANCH  15  17
ATOM     17  C   UNL     1      -1.441  10.414  17.767  0.00  0.00    +0.000 A 
ATOM     18  C   UNL     1      -2.244   9.730  16.876  0.00  0.00    +0.000 A 
ATOM     19  C   UNL     1      -3.524  10.340  16.727  0.00  0.00    +0.000 A 
ATOM     20  C   UNL     1      -3.648  11.472  17.503  0.00  0.00    +0.000 A 
ATOM     21  S   UNL     1      -2.260  11.738  18.469  0.00  0.00    +0.000 S 
ENDBRANCH  15  17
ENDBRANCH  11  12
ENDBRANCH   2  11
BRANCH   1  22
ATOM     22  C   UNL     1       5.136   6.498  16.884  0.00  0.00    +0.000 C 
BRANCH  22  23
ATOM     23  C   UNL     1       5.515   5.523  15.806  0.00  0.00    +0.000 A 
ATOM     24  C   UNL     1       5.032   4.304  15.384  0.00  0.00    +0.000 A 
ATOM     25  C   UNL     1       5.935   3.811  14.412  0.00  0.00    +0.000 A 
ATOM     26  C   UNL     1       6.921   4.760  14.297  0.00  0.00    +0.000 A 
ATOM     27  O   UNL     1       6.674   5.802  15.129  0.00  0.00    +0.000 OA
ENDBRANCH  22  23
BRANCH  22  28
ATOM     28  C   UNL     1       6.389   6.911  17.698  0.00  0.00    +0.000 C 
ATOM     29  O   UNL     1       6.925   6.195  18.541  0.00  0.00    +0.000 OA
ATOM     30  N   UNL     1       6.862   8.184  17.396  0.00  0.00    +0.000 N 
ATOM     31  H   UNL     1       6.339   8.788  16.772  0.00  0.00    +0.000 HD
BRANCH  30  32
ATOM     32  C   UNL     1       8.138   8.659  17.906  0.00  0.00    +0.000 C 
BRANCH  32  33
ATOM     33  C   UNL     1       8.425  10.109  17.493  0.00  0.00    +0.000 C 
BRANCH  33  34
ATOM     34  C   UNL     1       9.456  10.849  18.372  0.00  0.00    +0.000 C 
ATOM     35  C   UNL     1       9.249  12.363  18.355  0.00  0.00    +0.000 C 
ATOM     36  C   UNL     1       9.376  10.361  19.823  0.00  0.00    +0.000 C 
ENDBRANCH  33  34
ENDBRANCH  32  33
ENDBRANCH  30  32
ENDBRANCH  22  28
ENDBRANCH   1  22
TORSDOF 10
ENDMDL
MODEL 3
REMARK VINA RESULT:      -7.7      1.370      1.736
REMARK  Name = 
REMARK  13 active torsions:
REMARK  status: ('A' for Active; 'I' for Inactive)
REMARK    1  A    between atoms: C_1  and  C_2
REMARK    2  A    between atoms: C_7  and  N_8
REMARK    3  A    between atoms: N_8  and  C_22
REMARK    4  A    between atoms: C_9  and  C_11
REMARK    5  A    between atoms: C_11  and  N_12
REMARK    6  A    between atoms: C_15  and  C_16
REMARK    7  A    between atoms: C_22  and  C_23
REMARK    8  A    between atoms: C_22  and  C_31
REMARK    9  A    between atoms: N_25  and  C_26
REMARK   10  A    between atoms: C_26  and  C_27
REMARK   11  A    between atoms: C_27  and  C_28
REMARK   12  A    between atoms: C_28  and  C_29
REMARK   13  A    between atoms: C_28  and  C_30
REMARK                            x       y       z     vdW  Elec       q    Type
REMARK                         _______ _______ _______ _____ _____    ______ ____
ROOT
ATOM      1  N   UNL     1       3.948   5.483  17.687  0.00  0.00    +0.000 N 
ATOM      2  C   UNL     1       3.137   6.355  18.456  0.00  0.00    +0.000 C 
ATOM      3  O   UNL     1       2.470   5.974  19.427  0.00  0.00    +0.000 OA
ENDROOT
BRANCH   1  10
ATOM      4  C   UNL     1       2.403   3.204  16.404  0.00  0.00    +0.000 C 
ATOM      5  C   UNL     1       3.250   3.084  17.640  0.00  0.00    +0.000 A 
ATOM      6  C   UNL     1       3.258   1.829  18.287  0.00  0.00    +0.000 A 
ATOM      7  C   UNL     1       4.031   1.606  19.426  0.00  0.00    +0.000 A 
ATOM      8  C   UNL     1       4.830   2.625  19.925  0.00  0.00    +0.000 A 
ATOM      9  C   UNL     1       4.825   3.875  19.303  0.00  0.00    +0.000 A 
ATOM     10  C   UNL     1       4.035   4.127  18.167  0.00  0.00    +0.000 A 
ENDBRANCH   1  10
BRANCH   2  11
ATOM     11  C   UNL     1       2.967   7.791  18.014  0.00  0.00    +0.000 C 
BRANCH  11  12
ATOM     12  N   UNL     1       1.907   8.511  18.687  0.00  0.00    +0.000 N 
ATOM     13  N   UNL     1       1.888   8.584  20.031  0.00  0.00    +0.000 NA
ATOM     14  N   UNL     1       0.853   9.359  20.316  0.00  0.00    +0.000 NA
ATOM     15  C   UNL     1       0.263   9.687  19.121  0.00  0.00    +0.000 A 
ATOM     16  N   UNL     1       0.846   9.079  18.069  0.00  0.00    +0.000 NA
BRANCH  15  17
ATOM     17  C   UNL     1      -0.894  10.625  19.019  0.00  0.00    +0.000 A 
ATOM     18  C   UNL     1      -1.811  10.616  17.985  0.00  0.00    +0.000 A 
ATOM     19  C   UNL     1      -2.798  11.634  18.134  0.00  0.00    +0.000 A 
ATOM     20  C   UNL     1      -2.595  12.387  19.271  0.00  0.00    +0.000 A 
ATOM     21  S   UNL     1      -1.274  11.806  20.192  0.00  0.00    +0.000 S 
ENDBRANCH  15  17
ENDBRANCH  11  12
ENDBRANCH   2  11
BRANCH   1  22
ATOM     22  C   UNL     1       5.132   6.021  16.972  0.00  0.00    +0.000 C 
BRANCH  22  23
ATOM     23  C   UNL     1       5.641   5.089  15.911  0.00  0.00    +0.000 A 
ATOM     24  C   UNL     1       6.781   4.334  15.745  0.00  0.00    +0.000 A 
ATOM     25  C   UNL     1       6.736   3.790  14.440  0.00  0.00    +0.000 A 
ATOM     26  C   UNL     1       5.567   4.246  13.881  0.00  0.00    +0.000 A 
ATOM     27  O   UNL     1       4.894   5.025  14.764  0.00  0.00    +0.000 OA
ENDBRANCH  22  23
BRANCH  22  28
ATOM     28  C   UNL     1       6.314   6.585  17.803  0.00  0.00    +0.000 C 
ATOM     29  O   UNL     1       6.741   6.062  18.829  0.00  0.00    +0.000 OA
ATOM     30  N   UNL     1       6.858   7.756  17.284  0.00  0.00    +0.000 N 
ATOM     31  H   UNL     1       6.419   8.218  16.496  0.00  0.00    +0.000 HD
BRANCH  30  32
ATOM     32  C   UNL     1       8.094   8.313  17.808  0.00  0.00    +0.000 C 
BRANCH  32  33
ATOM     33  C   UNL     1       8.067   9.848  17.849  0.00  0.00    +0.000 C 
BRANCH  33  34
ATOM     34  C   UNL     1       9.368  10.512  18.348  0.00  0.00    +0.000 C 
ATOM     35  C   UNL     1       9.486  11.966  17.890  0.00  0.00    +0.000 C 
ATOM     36  C   UNL     1       9.440  10.476  19.878  0.00  0.00    +0.000 C 
ENDBRANCH  33  34
ENDBRANCH  32  33
ENDBRANCH  30  32
ENDBRANCH  22  28
ENDBRANCH   1  22
TORSDOF 10
ENDMDL
MODEL 4
REMARK VINA RESULT:      -7.5      0.860      1.114
REMARK  Name = 
REMARK  13 active torsions:
REMARK  status: ('A' for Active; 'I' for Inactive)
REMARK    1  A    between atoms: C_1  and  C_2
REMARK    2  A    between atoms: C_7  and  N_8
REMARK    3  A    between atoms: N_8  and  C_22
REMARK    4  A    between atoms: C_9  and  C_11
REMARK    5  A    between atoms: C_11  and  N_12
REMARK    6  A    between atoms: C_15  and  C_16
REMARK    7  A    between atoms: C_22  and  C_23
REMARK    8  A    between atoms: C_22  and  C_31
REMARK    9  A    between atoms: N_25  and  C_26
REMARK   10  A    between atoms: C_26  and  C_27
REMARK   11  A    between atoms: C_27  and  C_28
REMARK   12  A    between atoms: C_28  and  C_29
REMARK   13  A    between atoms: C_28  and  C_30
REMARK                            x       y       z     vdW  Elec       q    Type
REMARK                         _______ _______ _______ _____ _____    ______ ____
ROOT
ATOM      1  N   UNL     1       3.983   5.833  17.485  0.00  0.00    +0.000 N 
ATOM      2  C   UNL     1       3.046   6.730  18.057  0.00  0.00    +0.000 C 
ATOM      3  O   UNL     1       2.314   6.425  19.008  0.00  0.00    +0.000 OA
ENDROOT
BRANCH   1  10
ATOM      4  C   UNL     1       2.213   3.462  16.796  0.00  0.00    +0.000 C 
ATOM      5  C   UNL     1       3.232   3.486  17.902  0.00  0.00    +0.000 A 
ATOM      6  C   UNL     1       3.308   2.340  18.723  0.00  0.00    +0.000 A 
ATOM      7  C   UNL     1       4.237   2.251  19.759  0.00  0.00    +0.000 A 
ATOM      8  C   UNL     1       5.123   3.296  19.979  0.00  0.00    +0.000 A 
ATOM      9  C   UNL     1       5.054   4.441  19.182  0.00  0.00    +0.000 A 
ATOM     10  C   UNL     1       4.109   4.559  18.146  0.00  0.00    +0.000 A 
ENDBRANCH   1  10
BRANCH   2  11
ATOM     11  C   UNL     1       2.828   8.082  17.414  0.00  0.00    +0.000 C 
BRANCH  11  12
ATOM     12  N   UNL     1       2.164   9.053  18.257  0.00  0.00    +0.000 N 
ATOM     13  N   UNL     1       2.037  10.329  17.847  0.00  0.00    +0.000 NA
ATOM     14  N   UNL     1       1.333  10.925  18.796  0.00  0.00    +0.000 NA
ATOM     15  C   UNL     1       1.101   9.982  19.767  0.00  0.00    +0.000 A 
ATOM     16  N   UNL     1       1.705   8.807  19.505  0.00  0.00    +0.000 NA
BRANCH  15  17
ATOM     17  C   UNL     1       0.260  10.250  20.971  0.00  0.00    +0.000 A 
ATOM     18  C   UNL     1      -0.634  11.299  21.074  0.00  0.00    +0.000 A 
ATOM     19  C   UNL     1      -1.287  11.325  22.342  0.00  0.00    +0.000 A 
ATOM     20  C   UNL     1      -0.862  10.303  23.162  0.00  0.00    +0.000 A 
ATOM     21  S   UNL     1       0.249   9.270  22.368  0.00  0.00    +0.000 S 
ENDBRANCH  15  17
ENDBRANCH  11  12
ENDBRANCH   2  11
BRANCH   1  22
ATOM     22  C   UNL     1       5.193   6.365  16.812  0.00  0.00    +0.000 C 
BRANCH  22  23
ATOM     23  C   UNL     1       5.664   5.488  15.688  0.00  0.00    +0.000 A 
ATOM     24  C   UNL     1       5.131   4.421  14.999  0.00  0.00    +0.000 A 
ATOM     25  C   UNL     1       6.148   3.923  14.150  0.00  0.00    +0.000 A 
ATOM     26  C   UNL     1       7.247   4.716  14.371  0.00  0.00    +0.000 A 
ATOM     27  O   UNL     1       6.964   5.670  15.293  0.00  0.00    +0.000 OA
ENDBRANCH  22  23
BRANCH  22  28
ATOM     28  C   UNL     1       6.396   6.814  17.682  0.00  0.00    +0.000 C 
ATOM     29  O   UNL     1       6.905   6.118  18.559  0.00  0.00    +0.000 OA
ATOM     30  N   UNL     1       6.857   8.093  17.389  0.00  0.00    +0.000 N 
ATOM     31  H   UNL     1       6.352   8.680  16.733  0.00  0.00    +0.000 HD
BRANCH  30  32
ATOM     32  C   UNL     1       8.095   8.601  17.955  0.00  0.00    +0.000 C 
BRANCH  32  33
ATOM     33  C   UNL     1       8.456   9.991  17.413  0.00  0.00    +0.000 C 
BRANCH  33  34
ATOM     34  C   UNL     1       9.104  10.946  18.437  0.00  0.00    +0.000 C 
ATOM     35  C   UNL     1       9.448  10.239  19.748  0.00  0.00    +0.000 C 
ATOM     36  C   UNL     1      10.384  11.564  17.865  0.00  0.00    +0.000 C 
ENDBRANCH  33  34
ENDBRANCH  32  33
ENDBRANCH  30  32
ENDBRANCH  22  28
ENDBRANCH   1  22
TORSDOF 10
ENDMDL
MODEL 5
REMARK VINA RESULT:      -7.1      2.100      5.048
REMARK  Name = 
REMARK  13 active torsions:
REMARK  status: ('A' for Active; 'I' for Inactive)
REMARK    1  A    between atoms: C_1  and  C_2
REMARK    2  A    between atoms: C_7  and  N_8
REMARK    3  A    between atoms: N_8  and  C_22
REMARK    4  A    between atoms: C_9  and  C_11
REMARK    5  A    between atoms: C_11  and  N_12
REMARK    6  A    between atoms: C_15  and  C_16
REMARK    7  A    between atoms: C_22  and  C_23
REMARK    8  A    between atoms: C_22  and  C_31
REMARK    9  A    between atoms: N_25  and  C_26
REMARK   10  A    between atoms: C_26  and  C_27
REMARK   11  A    between atoms: C_27  and  C_28
REMARK   12  A    between atoms: C_28  and  C_29
REMARK   13  A    between atoms: C_28  and  C_30
REMARK                            x       y       z     vdW  Elec       q    Type
REMARK                         _______ _______ _______ _____ _____    ______ ____
ROOT
ATOM      1  N   UNL     1       4.003   6.203  17.922  0.00  0.00    +0.000 N 
ATOM      2  C   UNL     1       3.397   7.473  17.749  0.00  0.00    +0.000 C 
ATOM      3  O   UNL     1       4.030   8.535  17.802  0.00  0.00    +0.000 OA
ENDROOT
BRANCH   1  10
ATOM      4  C   UNL     1       5.443   4.470  19.960  0.00  0.00    +0.000 C 
ATOM      5  C   UNL     1       6.104   5.485  19.069  0.00  0.00    +0.000 A 
ATOM      6  C   UNL     1       7.487   5.693  19.259  0.00  0.00    +0.000 A 
ATOM      7  C   UNL     1       8.200   6.593  18.467  0.00  0.00    +0.000 A 
ATOM      8  C   UNL     1       7.548   7.284  17.456  0.00  0.00    +0.000 A 
ATOM      9  C   UNL     1       6.178   7.097  17.263  0.00  0.00    +0.000 A 
ATOM     10  C   UNL     1       5.437   6.211  18.065  0.00  0.00    +0.000 A 
ENDBRANCH   1  10
BRANCH   2  11
ATOM     11  C   UNL     1       1.893   7.563  17.616  0.00  0.00    +0.000 C 
BRANCH  11  12
ATOM     12  N   UNL     1       1.284   8.649  18.355  0.00  0.00    +0.000 N 
ATOM     13  N   UNL     1       0.890   9.765  17.713  0.00  0.00    +0.000 NA
ATOM     14  N   UNL     1       0.319  10.511  18.646  0.00  0.00    +0.000 NA
ATOM     15  C   UNL     1       0.432   9.822  19.828  0.00  0.00    +0.000 A 
ATOM     16  N   UNL     1       1.134   8.679  19.699  0.00  0.00    +0.000 NA
BRANCH  15  17
ATOM     17  C   UNL     1      -0.171  10.303  21.106  0.00  0.00    +0.000 A 
ATOM     18  C   UNL     1      -0.167   9.582  22.285  0.00  0.00    +0.000 A 
ATOM     19  C   UNL     1      -0.831  10.274  23.340  0.00  0.00    +0.000 A 
ATOM     20  C   UNL     1      -1.325  11.492  22.927  0.00  0.00    +0.000 A 
ATOM     21  S   UNL     1      -0.908  11.830  21.302  0.00  0.00    +0.000 S 
ENDBRANCH  15  17
ENDBRANCH  11  12
ENDBRANCH   2  11
BRANCH   1  22
ATOM     22  C   UNL     1       3.397   5.007  17.287  0.00  0.00    +0.000 C 
BRANCH  22  23
ATOM     23  C   UNL     1       2.371   4.344  18.161  0.00  0.00    +0.000 A 
ATOM     24  C   UNL     1       2.046   4.408  19.499  0.00  0.00    +0.000 A 
ATOM     25  C   UNL     1       1.077   3.406  19.741  0.00  0.00    +0.000 A 
ATOM     26  C   UNL     1       0.866   2.785  18.534  0.00  0.00    +0.000 A 
ATOM     27  O   UNL     1       1.637   3.349  17.571  0.00  0.00    +0.000 OA
ENDBRANCH  22  23
BRANCH  22  28
ATOM     28  C   UNL     1       4.330   3.943  16.653  0.00  0.00    +0.000 C 
ATOM     29  O   UNL     1       4.528   2.830  17.136  0.00  0.00    +0.000 OA
ATOM     30  N   UNL     1       4.940   4.361  15.475  0.00  0.00    +0.000 N 
ATOM     31  H   UNL     1       4.837   5.319  15.158  0.00  0.00    +0.000 HD
BRANCH  30  32
ATOM     32  C   UNL     1       5.682   3.434  14.636  0.00  0.00    +0.000 C 
BRANCH  32  33
ATOM     33  C   UNL     1       6.464   4.152  13.527  0.00  0.00    +0.000 C 
BRANCH  33  34
ATOM     34  C   UNL     1       6.138   3.688  12.091  0.00  0.00    +0.000 C 
ATOM     35  C   UNL     1       6.948   2.458  11.684  0.00  0.00    +0.000 C 
ATOM     36  C   UNL     1       4.647   3.358  11.956  0.00  0.00    +0.000 C 
ENDBRANCH  33  34
ENDBRANCH  32  33
ENDBRANCH  30  32
ENDBRANCH  22  28
ENDBRANCH   1  22
TORSDOF 10
ENDMDL
MODEL 6
REMARK VINA RESULT:      -7.1      1.284      1.616
REMARK  Name = 
REMARK  13 active torsions:
REMARK  status: ('A' for Active; 'I' for Inactive)
REMARK    1  A    between atoms: C_1  and  C_2
REMARK    2  A    between atoms: C_7  and  N_8
REMARK    3  A    between atoms: N_8  and  C_22
REMARK    4  A    between atoms: C_9  and  C_11
REMARK    5  A    between atoms: C_11  and  N_12
REMARK    6  A    between atoms: C_15  and  C_16
REMARK    7  A    between atoms: C_22  and  C_23
REMARK    8  A    between atoms: C_22  and  C_31
REMARK    9  A    between atoms: N_25  and  C_26
REMARK   10  A    between atoms: C_26  and  C_27
REMARK   11  A    between atoms: C_27  and  C_28
REMARK   12  A    between atoms: C_28  and  C_29
REMARK   13  A    between atoms: C_28  and  C_30
REMARK                            x       y       z     vdW  Elec       q    Type
REMARK                         _______ _______ _______ _____ _____    ______ ____
ROOT
ATOM      1  N   UNL     1       3.896   5.741  17.662  0.00  0.00    +0.000 N 
ATOM      2  C   UNL     1       3.089   6.658  18.382  0.00  0.00    +0.000 C 
ATOM      3  O   UNL     1       2.404   6.331  19.360  0.00  0.00    +0.000 OA
ENDROOT
BRANCH   1  10
ATOM      4  C   UNL     1       2.287   3.445  16.492  0.00  0.00    +0.000 C 
ATOM      5  C   UNL     1       3.141   3.359  17.727  0.00  0.00    +0.000 A 
ATOM      6  C   UNL     1       3.123   2.135  18.429  0.00  0.00    +0.000 A 
ATOM      7  C   UNL     1       3.899   1.944  19.572  0.00  0.00    +0.000 A 
ATOM      8  C   UNL     1       4.725   2.964  20.021  0.00  0.00    +0.000 A 
ATOM      9  C   UNL     1       4.746   4.186  19.343  0.00  0.00    +0.000 A 
ATOM     10  C   UNL     1       3.953   4.406  18.202  0.00  0.00    +0.000 A 
ENDBRANCH   1  10
BRANCH   2  11
ATOM     11  C   UNL     1       2.949   8.076  17.875  0.00  0.00    +0.000 C 
BRANCH  11  12
ATOM     12  N   UNL     1       2.028   8.900  18.629  0.00  0.00    +0.000 N 
ATOM     13  N   UNL     1       1.640   8.526  19.862  0.00  0.00    +0.000 NA
ATOM     14  N   UNL     1       0.874   9.516  20.294  0.00  0.00    +0.000 NA
ATOM     15  C   UNL     1       0.799  10.432  19.275  0.00  0.00    +0.000 A 
ATOM     16  N   UNL     1       1.437  10.024  18.161  0.00  0.00    +0.000 NA
BRANCH  15  17
ATOM     17  C   UNL     1       0.088  11.738  19.411  0.00  0.00    +0.000 A 
ATOM     18  C   UNL     1       0.365  12.854  18.646  0.00  0.00    +0.000 A 
ATOM     19  C   UNL     1      -0.452  13.967  19.003  0.00  0.00    +0.000 A 
ATOM     20  C   UNL     1      -1.317  13.661  20.033  0.00  0.00    +0.000 A 
ATOM     21  S   UNL     1      -1.199  12.018  20.497  0.00  0.00    +0.000 S 
ENDBRANCH  15  17
ENDBRANCH  11  12
ENDBRANCH   2  11
BRANCH   1  22
ATOM     22  C   UNL     1       5.097   6.228  16.941  0.00  0.00    +0.000 C 
BRANCH  22  23
ATOM     23  C   UNL     1       5.500   5.325  15.811  0.00  0.00    +0.000 A 
ATOM     24  C   UNL     1       5.091   5.160  14.506  0.00  0.00    +0.000 A 
ATOM     25  C   UNL     1       5.760   4.020  14.000  0.00  0.00    +0.000 A 
ATOM     26  C   UNL     1       6.541   3.553  15.029  0.00  0.00    +0.000 A 
ATOM     27  O   UNL     1       6.398   4.339  16.125  0.00  0.00    +0.000 OA
ENDBRANCH  22  23
BRANCH  22  28
ATOM     28  C   UNL     1       6.343   6.648  17.763  0.00  0.00    +0.000 C 
ATOM     29  O   UNL     1       6.847   5.955  18.645  0.00  0.00    +0.000 OA
ATOM     30  N   UNL     1       6.851   7.896  17.419  0.00  0.00    +0.000 N 
ATOM     31  H   UNL     1       6.353   8.486  16.760  0.00  0.00    +0.000 HD
BRANCH  30  32
ATOM     32  C   UNL     1       8.126   8.364  17.934  0.00  0.00    +0.000 C 
BRANCH  32  33
ATOM     33  C   UNL     1       8.242   9.895  17.898  0.00  0.00    +0.000 C 
BRANCH  33  34
ATOM     34  C   UNL     1       9.529  10.470  18.527  0.00  0.00    +0.000 C 
ATOM     35  C   UNL     1       9.957  11.781  17.868  0.00  0.00    +0.000 C 
ATOM     36  C   UNL     1       9.331  10.719  20.026  0.00  0.00    +0.000 C 
ENDBRANCH  33  34
ENDBRANCH  32  33
ENDBRANCH  30  32
ENDBRANCH  22  28
ENDBRANCH   1  22
TORSDOF 10
ENDMDL
MODEL 7
REMARK VINA RESULT:      -7.1      4.838      9.189
REMARK  Name = 
REMARK  13 active torsions:
REMARK  status: ('A' for Active; 'I' for Inactive)
REMARK    1  A    between atoms: C_1  and  C_2
REMARK    2  A    between atoms: C_7  and  N_8
REMARK    3  A    between atoms: N_8  and  C_22
REMARK    4  A    between atoms: C_9  and  C_11
REMARK    5  A    between atoms: C_11  and  N_12
REMARK    6  A    between atoms: C_15  and  C_16
REMARK    7  A    between atoms: C_22  and  C_23
REMARK    8  A    between atoms: C_22  and  C_31
REMARK    9  A    between atoms: N_25  and  C_26
REMARK   10  A    between atoms: C_26  and  C_27
REMARK   11  A    between atoms: C_27  and  C_28
REMARK   12  A    between atoms: C_28  and  C_29
REMARK   13  A    between atoms: C_28  and  C_30
REMARK                            x       y       z     vdW  Elec       q    Type
REMARK                         _______ _______ _______ _____ _____    ______ ____
ROOT
ATOM      1  N   UNL     1      -1.133  13.435  19.672  0.00  0.00    +0.000 N 
ATOM      2  C   UNL     1      -0.579  14.724  19.875  0.00  0.00    +0.000 C 
ATOM      3  O   UNL     1      -0.586  15.297  20.972  0.00  0.00    +0.000 OA
ENDROOT
BRANCH   1  10
ATOM      4  C   UNL     1      -4.056  13.530  20.494  0.00  0.00    +0.000 C 
ATOM      5  C   UNL     1      -2.955  12.893  21.295  0.00  0.00    +0.000 A 
ATOM      6  C   UNL     1      -3.306  12.371  22.559  0.00  0.00    +0.000 A 
ATOM      7  C   UNL     1      -2.364  11.737  23.369  0.00  0.00    +0.000 A 
ATOM      8  C   UNL     1      -1.059  11.591  22.921  0.00  0.00    +0.000 A 
ATOM      9  C   UNL     1      -0.693  12.112  21.677  0.00  0.00    +0.000 A 
ATOM     10  C   UNL     1      -1.623  12.775  20.856  0.00  0.00    +0.000 A 
ENDBRANCH   1  10
BRANCH   2  11
ATOM     11  C   UNL     1      -0.063  15.503  18.685  0.00  0.00    +0.000 C 
BRANCH  11  12
ATOM     12  N   UNL     1       1.235  16.112  18.877  0.00  0.00    +0.000 N 
ATOM     13  N   UNL     1       1.339  17.443  19.051  0.00  0.00    +0.000 NA
ATOM     14  N   UNL     1       2.627  17.660  19.268  0.00  0.00    +0.000 NA
ATOM     15  C   UNL     1       3.255  16.443  19.172  0.00  0.00    +0.000 A 
ATOM     16  N   UNL     1       2.414  15.450  18.821  0.00  0.00    +0.000 NA
BRANCH  15  17
ATOM     17  C   UNL     1       4.712  16.260  19.441  0.00  0.00    +0.000 A 
ATOM     18  C   UNL     1       5.711  16.986  18.822  0.00  0.00    +0.000 A 
ATOM     19  C   UNL     1       7.011  16.589  19.255  0.00  0.00    +0.000 A 
ATOM     20  C   UNL     1       6.956  15.570  20.181  0.00  0.00    +0.000 A 
ATOM     21  S   UNL     1       5.344  15.163  20.586  0.00  0.00    +0.000 S 
ENDBRANCH  15  17
ENDBRANCH  11  12
ENDBRANCH   2  11
BRANCH   1  22
ATOM     22  C   UNL     1      -0.605  12.570  18.588  0.00  0.00    +0.000 C 
BRANCH  22  23
ATOM     23  C   UNL     1      -1.604  11.551  18.122  0.00  0.00    +0.000 A 
ATOM     24  C   UNL     1      -2.155  10.411  18.665  0.00  0.00    +0.000 A 
ATOM     25  C   UNL     1      -2.924   9.795  17.650  0.00  0.00    +0.000 A 
ATOM     26  C   UNL     1      -2.797  10.596  16.541  0.00  0.00    +0.000 A 
ATOM     27  O   UNL     1      -2.008  11.663  16.818  0.00  0.00    +0.000 OA
ENDBRANCH  22  23
BRANCH  22  28
ATOM     28  C   UNL     1       0.788  11.914  18.768  0.00  0.00    +0.000 C 
ATOM     29  O   UNL     1       1.640  12.320  19.555  0.00  0.00    +0.000 OA
ATOM     30  N   UNL     1       1.001  10.811  17.948  0.00  0.00    +0.000 N 
ATOM     31  H   UNL     1       0.320  10.563  17.238  0.00  0.00    +0.000 HD
BRANCH  30  32
ATOM     32  C   UNL     1       2.159   9.950  18.121  0.00  0.00    +0.000 C 
BRANCH  32  33
ATOM     33  C   UNL     1       1.793   8.460  18.044  0.00  0.00    +0.000 C 
BRANCH  33  34
ATOM     34  C   UNL     1       2.793   7.504  18.727  0.00  0.00    +0.000 C 
ATOM     35  C   UNL     1       2.137   6.683  19.838  0.00  0.00    +0.000 C 
ATOM     36  C   UNL     1       3.403   6.541  17.704  0.00  0.00    +0.000 C 
ENDBRANCH  33  34
ENDBRANCH  32  33
ENDBRANCH  30  32
ENDBRANCH  22  28
ENDBRANCH   1  22
TORSDOF 10
ENDMDL
MODEL 8
REMARK VINA RESULT:      -7.0      5.010      9.214
REMARK  Name = 
REMARK  13 active torsions:
REMARK  status: ('A' for Active; 'I' for Inactive)
REMARK    1  A    between atoms: C_1  and  C_2
REMARK    2  A    between atoms: C_7  and  N_8
REMARK    3  A    between atoms: N_8  and  C_22
REMARK    4  A    between atoms: C_9  and  C_11
REMARK    5  A    between atoms: C_11  and  N_12
REMARK    6  A    between atoms: C_15  and  C_16
REMARK    7  A    between atoms: C_22  and  C_23
REMARK    8  A    between atoms: C_22  and  C_31
REMARK    9  A    between atoms: N_25  and  C_26
REMARK   10  A    between atoms: C_26  and  C_27
REMARK   11  A    between atoms: C_27  and  C_28
REMARK   12  A    between atoms: C_28  and  C_29
REMARK   13  A    between atoms: C_28  and  C_30
REMARK                            x       y       z     vdW  Elec       q    Type
REMARK                         _______ _______ _______ _____ _____    ______ ____
ROOT
ATOM      1  N   UNL     1      -1.237  13.391  19.686  0.00  0.00    +0.000 N 
ATOM      2  C   UNL     1      -0.661  14.674  19.864  0.00  0.00    +0.000 C 
ATOM      3  O   UNL     1      -0.671  15.274  20.947  0.00  0.00    +0.000 OA
ENDROOT
BRANCH   1  10
ATOM      4  C   UNL     1      -4.187  13.468  20.407  0.00  0.00    +0.000 C 
ATOM      5  C   UNL     1      -3.103  12.883  21.269  0.00  0.00    +0.000 A 
ATOM      6  C   UNL     1      -3.488  12.406  22.540  0.00  0.00    +0.000 A 
ATOM      7  C   UNL     1      -2.564  11.821  23.406  0.00  0.00    +0.000 A 
ATOM      8  C   UNL     1      -1.243  11.680  23.007  0.00  0.00    +0.000 A 
ATOM      9  C   UNL     1      -0.843  12.157  21.756  0.00  0.00    +0.000 A 
ATOM     10  C   UNL     1      -1.755  12.770  20.878  0.00  0.00    +0.000 A 
ENDBRANCH   1  10
BRANCH   2  11
ATOM     11  C   UNL     1      -0.114  15.413  18.663  0.00  0.00    +0.000 C 
BRANCH  11  12
ATOM     12  N   UNL     1       1.217  15.953  18.839  0.00  0.00    +0.000 N 
ATOM     13  N   UNL     1       1.435  17.274  18.697  0.00  0.00    +0.000 NA
ATOM     14  N   UNL     1       2.715  17.443  18.990  0.00  0.00    +0.000 NA
ATOM     15  C   UNL     1       3.227  16.198  19.258  0.00  0.00    +0.000 A 
ATOM     16  N   UNL     1       2.326  15.214  19.069  0.00  0.00    +0.000 NA
BRANCH  15  17
ATOM     17  C   UNL     1       4.631  15.982  19.715  0.00  0.00    +0.000 A 
ATOM     18  C   UNL     1       5.006  15.033  20.646  0.00  0.00    +0.000 A 
ATOM     19  C   UNL     1       6.408  15.061  20.908  0.00  0.00    +0.000 A 
ATOM     20  C   UNL     1       7.049  16.036  20.176  0.00  0.00    +0.000 A 
ATOM     21  S   UNL     1       5.977  16.845  19.115  0.00  0.00    +0.000 S 
ENDBRANCH  15  17
ENDBRANCH  11  12
ENDBRANCH   2  11
BRANCH   1  22
ATOM     22  C   UNL     1      -0.711  12.490  18.632  0.00  0.00    +0.000 C 
BRANCH  22  23
ATOM     23  C   UNL     1      -1.748  11.532  18.118  0.00  0.00    +0.000 A 
ATOM     24  C   UNL     1      -2.827  11.632  17.267  0.00  0.00    +0.000 A 
ATOM     25  C   UNL     1      -3.512  10.396  17.316  0.00  0.00    +0.000 A 
ATOM     26  C   UNL     1      -2.812   9.609  18.198  0.00  0.00    +0.000 A 
ATOM     27  O   UNL     1      -1.740  10.283  18.682  0.00  0.00    +0.000 OA
ENDBRANCH  22  23
BRANCH  22  28
ATOM     28  C   UNL     1       0.627  11.748  18.882  0.00  0.00    +0.000 C 
ATOM     29  O   UNL     1       1.380  11.992  19.822  0.00  0.00    +0.000 OA
ATOM     30  N   UNL     1       0.914  10.769  17.936  0.00  0.00    +0.000 N 
ATOM     31  H   UNL     1       0.325  10.662  17.117  0.00  0.00    +0.000 HD
BRANCH  30  32
ATOM     32  C   UNL     1       2.014   9.838  18.119  0.00  0.00    +0.000 C 
BRANCH  32  33
ATOM     33  C   UNL     1       1.534   8.452  18.575  0.00  0.00    +0.000 C 
BRANCH  33  34
ATOM     34  C   UNL     1       1.923   8.066  20.018  0.00  0.00    +0.000 C 
ATOM     35  C   UNL     1       0.861   8.487  21.034  0.00  0.00    +0.000 C 
ATOM     36  C   UNL     1       2.135   6.553  20.132  0.00  0.00    +0.000 C 
ENDBRANCH  33  34
ENDBRANCH  32  33
ENDBRANCH  30  32
ENDBRANCH  22  28
ENDBRANCH   1  22
TORSDOF 10
ENDMDL
MODEL 9
REMARK VINA RESULT:      -7.0      6.296     10.291
REMARK  Name = 
REMARK  13 active torsions:
REMARK  status: ('A' for Active; 'I' for Inactive)
REMARK    1  A    between atoms: C_1  and  C_2
REMARK    2  A    between atoms: C_7  and  N_8
REMARK    3  A    between atoms: N_8  and  C_22
REMARK    4  A    between atoms: C_9  and  C_11
REMARK    5  A    between atoms: C_11  and  N_12
REMARK    6  A    between atoms: C_15  and  C_16
REMARK    7  A    between atoms: C_22  and  C_23
REMARK    8  A    between atoms: C_22  and  C_31
REMARK    9  A    between atoms: N_25  and  C_26
REMARK   10  A    between atoms: C_26  and  C_27
REMARK   11  A    between atoms: C_27  and  C_28
REMARK   12  A    between atoms: C_28  and  C_29
REMARK   13  A    between atoms: C_28  and  C_30
REMARK                            x       y       z     vdW  Elec       q    Type
REMARK                         _______ _______ _______ _____ _____    ______ ____
ROOT
ATOM      1  N   UNL     1      -0.527  12.605  19.993  0.00  0.00    +0.000 N 
ATOM      2  C   UNL     1      -0.190  13.830  19.364  0.00  0.00    +0.000 C 
ATOM      3  O   UNL     1      -0.464  14.079  18.182  0.00  0.00    +0.000 OA
ENDROOT
BRANCH   1  10
ATOM      4  C   UNL     1       0.718  10.257  18.522  0.00  0.00    +0.000 C 
ATOM      5  C   UNL     1      -0.728  10.659  18.438  0.00  0.00    +0.000 A 
ATOM      6  C   UNL     1      -1.541   9.929  17.545  0.00  0.00    +0.000 A 
ATOM      7  C   UNL     1      -2.902  10.205  17.412  0.00  0.00    +0.000 A 
ATOM      8  C   UNL     1      -3.480  11.200  18.187  0.00  0.00    +0.000 A 
ATOM      9  C   UNL     1      -2.687  11.939  19.068  0.00  0.00    +0.000 A 
ATOM     10  C   UNL     1      -1.308  11.692  19.199  0.00  0.00    +0.000 A 
ENDBRANCH   1  10
BRANCH   2  11
ATOM     11  C   UNL     1       0.650  14.841  20.112  0.00  0.00    +0.000 C 
BRANCH  11  12
ATOM     12  N   UNL     1       1.797  15.335  19.381  0.00  0.00    +0.000 N 
ATOM     13  N   UNL     1       1.677  16.412  18.583  0.00  0.00    +0.000 NA
ATOM     14  N   UNL     1       2.900  16.641  18.131  0.00  0.00    +0.000 NA
ATOM     15  C   UNL     1       3.704  15.656  18.649  0.00  0.00    +0.000 A 
ATOM     16  N   UNL     1       3.015  14.746  19.366  0.00  0.00    +0.000 NA
BRANCH  15  17
ATOM     17  C   UNL     1       5.181  15.621  18.436  0.00  0.00    +0.000 A 
ATOM     18  C   UNL     1       5.844  14.611  17.765  0.00  0.00    +0.000 A 
ATOM     19  C   UNL     1       7.253  14.825  17.728  0.00  0.00    +0.000 A 
ATOM     20  C   UNL     1       7.615  15.985  18.379  0.00  0.00    +0.000 A 
ATOM     21  S   UNL     1       6.251  16.848  18.948  0.00  0.00    +0.000 S 
ENDBRANCH  15  17
ENDBRANCH  11  12
ENDBRANCH   2  11
BRANCH   1  22
ATOM     22  C   UNL     1      -0.733  12.567  21.462  0.00  0.00    +0.000 C 
BRANCH  22  23
ATOM     23  C   UNL     1      -0.394  11.232  22.060  0.00  0.00    +0.000 A 
ATOM     24  C   UNL     1      -0.984  10.405  22.990  0.00  0.00    +0.000 A 
ATOM     25  C   UNL     1      -0.077   9.349  23.245  0.00  0.00    +0.000 A 
ATOM     26  C   UNL     1       1.019   9.593  22.454  0.00  0.00    +0.000 A 
ATOM     27  O   UNL     1       0.835  10.724  21.729  0.00  0.00    +0.000 OA
ENDBRANCH  22  23
BRANCH  22  28
ATOM     28  C   UNL     1      -2.072  13.090  22.043  0.00  0.00    +0.000 C 
ATOM     29  O   UNL     1      -3.101  12.420  22.103  0.00  0.00    +0.000 OA
ATOM     30  N   UNL     1      -2.015  14.405  22.494  0.00  0.00    +0.000 N 
ATOM     31  H   UNL     1      -1.183  14.963  22.337  0.00  0.00    +0.000 HD
BRANCH  30  32
ATOM     32  C   UNL     1      -3.106  14.994  23.252  0.00  0.00    +0.000 C 
BRANCH  32  33
ATOM     33  C   UNL     1      -3.064  14.600  24.735  0.00  0.00    +0.000 C 
BRANCH  33  34
ATOM     34  C   UNL     1      -2.612  15.718  25.698  0.00  0.00    +0.000 C 
ATOM     35  C   UNL     1      -1.100  15.714  25.918  0.00  0.00    +0.000 C 
ATOM     36  C   UNL     1      -3.024  17.092  25.159  0.00  0.00    +0.000 C 
ENDBRANCH  33  34
ENDBRANCH  32  33
ENDBRANCH  30  32
ENDBRANCH  22  28
ENDBRANCH   1  22
TORSDOF 10
ENDMDL
