MODEL 1
REMARK VINA RESULT:      -7.5      0.000      0.000
REMARK  Name = 
REMARK  12 active torsions:
REMARK  status: ('A' for Active; 'I' for Inactive)
REMARK    1  A    between atoms: C_1  and  O_2
REMARK    2  A    between atoms: O_2  and  C_3
REMARK    3  A    between atoms: C_7  and  C_8
REMARK    4  A    between atoms: C_9  and  C_10
REMARK    5  A    between atoms: C_10  and  O_12
REMARK    6  A    between atoms: O_12  and  C_13
REMARK    7  A    between atoms: C_13  and  C_14
REMARK    8  A    between atoms: C_14  and  C_16
REMARK    9  A    between atoms: C_19  and  C_20
REMARK   10  A    between atoms: C_21  and  C_22
REMARK   11  A    between atoms: C_24  and  O_25
REMARK   12  A    between atoms: O_25  and  C_26
REMARK                            x       y       z     vdW  Elec       q    Type
REMARK                         _______ _______ _______ _____ _____    ______ ____
ROOT
ATOM      1  C   UNL     1       1.735   3.783  20.990  0.00  0.00    +0.000 C 
ATOM      2  O   UNL     1       2.263   3.619  22.074  0.00  0.00    +0.000 OA
ENDROOT
BRANCH   1   4
ATOM      3  C   UNL     1       2.286   6.095  20.351  0.00  0.00    +0.000 C 
ATOM      4  C   UNL     1       1.413   5.078  20.359  0.00  0.00    +0.000 C 
BRANCH   3   9
ATOM      5  C   UNL     1       1.176   9.632  19.370  0.00  0.00    +0.000 A 
ATOM      6  C   UNL     1       1.760   9.694  18.095  0.00  0.00    +0.000 A 
ATOM      7  C   UNL     1       2.405   8.588  17.553  0.00  0.00    +0.000 A 
ATOM      8  C   UNL     1       2.550   7.433  18.313  0.00  0.00    +0.000 A 
ATOM      9  C   UNL     1       2.061   7.369  19.627  0.00  0.00    +0.000 A 
ATOM     10  C   UNL     1       1.336   8.472  20.156  0.00  0.00    +0.000 A 
BRANCH   5  12
ATOM     11  C   UNL     1      -0.039  11.592  18.861  0.00  0.00    +0.000 C 
ATOM     12  O   UNL     1       0.450  10.691  19.855  0.00  0.00    +0.000 OA
ENDBRANCH   5  12
BRANCH  10  13
ATOM     13  O   UNL     1       0.767   8.243  21.384  0.00  0.00    +0.000 OA
ATOM     14  C   UNL     1       1.209   8.959  22.525  0.00  0.00    +0.000 C 
ENDBRANCH  10  13
ENDBRANCH   3   9
ENDBRANCH   1   4
BRANCH   1  15
ATOM     15  O   UNL     1       1.385   2.818  20.101  0.00  0.00    +0.000 OA
BRANCH  15  16
ATOM     16  C   UNL     1       1.928   2.986  18.791  0.00  0.00    +0.000 C 
BRANCH  16  17
ATOM     17  C   UNL     1       3.437   2.748  18.821  0.00  0.00    +0.000 C 
ATOM     18  O   UNL     1       3.929   1.693  19.221  0.00  0.00    +0.000 OA
BRANCH  17  19
ATOM     19  C   UNL     1       4.341   3.848  18.370  0.00  0.00    +0.000 A 
ATOM     20  C   UNL     1       4.070   4.475  17.151  0.00  0.00    +0.000 A 
ATOM     21  C   UNL     1       4.885   5.513  16.697  0.00  0.00    +0.000 A 
ATOM     22  C   UNL     1       5.988   5.945  17.448  0.00  0.00    +0.000 A 
ATOM     23  C   UNL     1       6.812   7.091  16.933  0.00  0.00    +0.000 C 
ATOM     24  C   UNL     1       6.283   5.300  18.665  0.00  0.00    +0.000 A 
ATOM     25  C   UNL     1       7.462   5.664  19.529  0.00  0.00    +0.000 C 
ATOM     26  C   UNL     1       5.448   4.261  19.118  0.00  0.00    +0.000 A 
ENDBRANCH  17  19
ENDBRANCH  16  17
ENDBRANCH  15  16
ENDBRANCH   1  15
TORSDOF 8
ENDMDL
MODEL 2
REMARK VINA RESULT:      -7.4      0.794      1.597
REMARK  Name = 
REMARK  12 active torsions:
REMARK  status: ('A' for Active; 'I' for Inactive)
REMARK    1  A    between atoms: C_1  and  O_2
REMARK    2  A    between atoms: O_2  and  C_3
REMARK    3  A    between atoms: C_7  and  C_8
REMARK    4  A    between atoms: C_9  and  C_10
REMARK    5  A    between atoms: C_10  and  O_12
REMARK    6  A    between atoms: O_12  and  C_13
REMARK    7  A    between atoms: C_13  and  C_14
REMARK    8  A    between atoms: C_14  and  C_16
REMARK    9  A    between atoms: C_19  and  C_20
REMARK   10  A    between atoms: C_21  and  C_22
REMARK   11  A    between atoms: C_24  and  O_25
REMARK   12  A    between atoms: O_25  and  C_26
REMARK                            x       y       z     vdW  Elec       q    Type
REMARK                         _______ _______ _______ _____ _____    ______ ____
ROOT
ATOM      1  C   UNL     1       1.739   3.676  20.849  0.00  0.00    +0.000 C 
ATOM      2  O   UNL     1       0.925   2.845  21.207  0.00  0.00    +0.000 OA
ENDROOT
BRANCH   1   4
ATOM      3  C   UNL     1       2.279   6.021  20.334  0.00  0.00    +0.000 C 
ATOM      4  C   UNL     1       1.443   4.979  20.221  0.00  0.00    +0.000 C 
BRANCH   3   9
ATOM      5  C   UNL     1       1.388   9.643  19.439  0.00  0.00    +0.000 A 
ATOM      6  C   UNL     1       1.831   9.649  18.107  0.00  0.00    +0.000 A 
ATOM      7  C   UNL     1       2.310   8.489  17.511  0.00  0.00    +0.000 A 
ATOM      8  C   UNL     1       2.434   7.326  18.263  0.00  0.00    +0.000 A 
ATOM      9  C   UNL     1       2.090   7.309  19.624  0.00  0.00    +0.000 A 
ATOM     10  C   UNL     1       1.530   8.474  20.216  0.00  0.00    +0.000 A 
BRANCH   5  12
ATOM     11  C   UNL     1      -0.298  11.287  19.268  0.00  0.00    +0.000 C 
ATOM     12  O   UNL     1       0.818  10.763  19.988  0.00  0.00    +0.000 OA
ENDBRANCH   5  12
BRANCH  10  13
ATOM     13  O   UNL     1       1.081   8.300  21.502  0.00  0.00    +0.000 OA
ATOM     14  C   UNL     1      -0.285   8.506  21.820  0.00  0.00    +0.000 C 
ENDBRANCH  10  13
ENDBRANCH   3   9
ENDBRANCH   1   4
BRANCH   1  15
ATOM     15  O   UNL     1       3.086   3.614  21.002  0.00  0.00    +0.000 OA
BRANCH  15  16
ATOM     16  C   UNL     1       3.712   2.508  20.350  0.00  0.00    +0.000 C 
BRANCH  16  17
ATOM     17  C   UNL     1       3.893   2.815  18.865  0.00  0.00    +0.000 C 
ATOM     18  O   UNL     1       3.391   2.118  17.983  0.00  0.00    +0.000 OA
BRANCH  17  19
ATOM     19  C   UNL     1       4.730   3.990  18.478  0.00  0.00    +0.000 A 
ATOM     20  C   UNL     1       5.727   4.417  19.358  0.00  0.00    +0.000 A 
ATOM     21  C   UNL     1       6.537   5.506  19.030  0.00  0.00    +0.000 A 
ATOM     22  C   UNL     1       6.364   6.193  17.819  0.00  0.00    +0.000 A 
ATOM     23  C   UNL     1       7.286   7.336  17.497  0.00  0.00    +0.000 C 
ATOM     24  C   UNL     1       5.343   5.785  16.939  0.00  0.00    +0.000 A 
ATOM     25  C   UNL     1       5.054   6.476  15.631  0.00  0.00    +0.000 C 
ATOM     26  C   UNL     1       4.540   4.679  17.276  0.00  0.00    +0.000 A 
ENDBRANCH  17  19
ENDBRANCH  16  17
ENDBRANCH  15  16
ENDBRANCH   1  15
TORSDOF 8
ENDMDL
MODEL 3
REMARK VINA RESULT:      -7.3      2.232      4.368
REMARK  Name = 
REMARK  12 active torsions:
REMARK  status: ('A' for Active; 'I' for Inactive)
REMARK    1  A    between atoms: C_1  and  O_2
REMARK    2  A    between atoms: O_2  and  C_3
REMARK    3  A    between atoms: C_7  and  C_8
REMARK    4  A    between atoms: C_9  and  C_10
REMARK    5  A    between atoms: C_10  and  O_12
REMARK    6  A    between atoms: O_12  and  C_13
REMARK    7  A    between atoms: C_13  and  C_14
REMARK    8  A    between atoms: C_14  and  C_16
REMARK    9  A    between atoms: C_19  and  C_20
REMARK   10  A    between atoms: C_21  and  C_22
REMARK   11  A    between atoms: C_24  and  O_25
REMARK   12  A    between atoms: O_25  and  C_26
REMARK                            x       y       z     vdW  Elec       q    Type
REMARK                         _______ _______ _______ _____ _____    ______ ____
ROOT
ATOM      1  C   UNL     1       5.436   6.682  16.232  0.00  0.00    +0.000 C 
ATOM      2  O   UNL     1       5.119   6.795  15.063  0.00  0.00    +0.000 OA
ENDROOT
BRANCH   1   4
ATOM      3  C   UNL     1       3.346   7.381  17.329  0.00  0.00    +0.000 C 
ATOM      4  C   UNL     1       4.666   7.159  17.399  0.00  0.00    +0.000 C 
BRANCH   3   9
ATOM      5  C   UNL     1       1.022   9.195  19.782  0.00  0.00    +0.000 A 
ATOM      6  C   UNL     1       0.974   8.221  20.792  0.00  0.00    +0.000 A 
ATOM      7  C   UNL     1       1.745   7.068  20.705  0.00  0.00    +0.000 A 
ATOM      8  C   UNL     1       2.511   6.833  19.569  0.00  0.00    +0.000 A 
ATOM      9  C   UNL     1       2.508   7.741  18.498  0.00  0.00    +0.000 A 
ATOM     10  C   UNL     1       1.778   8.956  18.616  0.00  0.00    +0.000 A 
BRANCH   5  12
ATOM     11  C   UNL     1      -0.971  10.390  19.359  0.00  0.00    +0.000 C 
ATOM     12  O   UNL     1       0.340  10.378  19.923  0.00  0.00    +0.000 OA
ENDBRANCH   5  12
BRANCH  10  13
ATOM     13  O   UNL     1       1.974   9.840  17.584  0.00  0.00    +0.000 OA
ATOM     14  C   UNL     1       2.427  11.157  17.843  0.00  0.00    +0.000 C 
ENDBRANCH  10  13
ENDBRANCH   3   9
ENDBRANCH   1   4
BRANCH   1  15
ATOM     15  O   UNL     1       6.529   6.042  16.722  0.00  0.00    +0.000 OA
BRANCH  15  16
ATOM     16  C   UNL     1       6.358   4.639  16.929  0.00  0.00    +0.000 C 
BRANCH  16  17
ATOM     17  C   UNL     1       5.875   4.380  18.355  0.00  0.00    +0.000 C 
ATOM     18  O   UNL     1       6.593   4.569  19.337  0.00  0.00    +0.000 OA
BRANCH  17  19
ATOM     19  C   UNL     1       4.491   3.856  18.554  0.00  0.00    +0.000 A 
ATOM     20  C   UNL     1       3.684   3.662  17.431  0.00  0.00    +0.000 A 
ATOM     21  C   UNL     1       2.388   3.166  17.572  0.00  0.00    +0.000 A 
ATOM     22  C   UNL     1       1.868   2.858  18.839  0.00  0.00    +0.000 A 
ATOM     23  C   UNL     1       0.479   2.292  18.935  0.00  0.00    +0.000 C 
ATOM     24  C   UNL     1       2.666   3.078  19.979  0.00  0.00    +0.000 A 
ATOM     25  C   UNL     1       2.191   2.812  21.384  0.00  0.00    +0.000 C 
ATOM     26  C   UNL     1       3.976   3.568  19.822  0.00  0.00    +0.000 A 
ENDBRANCH  17  19
ENDBRANCH  16  17
ENDBRANCH  15  16
ENDBRANCH   1  15
TORSDOF 8
ENDMDL
MODEL 4
REMARK VINA RESULT:      -7.3      1.003      1.082
REMARK  Name = 
REMARK  12 active torsions:
REMARK  status: ('A' for Active; 'I' for Inactive)
REMARK    1  A    between atoms: C_1  and  O_2
REMARK    2  A    between atoms: O_2  and  C_3
REMARK    3  A    between atoms: C_7  and  C_8
REMARK    4  A    between atoms: C_9  and  C_10
REMARK    5  A    between atoms: C_10  and  O_12
REMARK    6  A    between atoms: O_12  and  C_13
REMARK    7  A    between atoms: C_13  and  C_14
REMARK    8  A    between atoms: C_14  and  C_16
REMARK    9  A    between atoms: C_19  and  C_20
REMARK   10  A    between atoms: C_21  and  C_22
REMARK   11  A    between atoms: C_24  and  O_25
REMARK   12  A    between atoms: O_25  and  C_26
REMARK                            x       y       z     vdW  Elec       q    Type
REMARK                         _______ _______ _______ _____ _____    ______ ____
ROOT
ATOM      1  C   UNL     1       1.614   3.629  21.095  0.00  0.00    +0.000 C 
ATOM      2  O   UNL     1       2.086   3.464  22.205  0.00  0.00    +0.000 OA
ENDROOT
BRANCH   1   4
ATOM      3  C   UNL     1       2.244   5.922  20.461  0.00  0.00    +0.000 C 
ATOM      4  C   UNL     1       1.349   4.925  20.439  0.00  0.00    +0.000 C 
BRANCH   3   9
ATOM      5  C   UNL     1       1.379   9.519  19.453  0.00  0.00    +0.000 A 
ATOM      6  C   UNL     1       1.874   9.499  18.140  0.00  0.00    +0.000 A 
ATOM      7  C   UNL     1       2.380   8.328  17.589  0.00  0.00    +0.000 A 
ATOM      8  C   UNL     1       2.478   7.183  18.370  0.00  0.00    +0.000 A 
ATOM      9  C   UNL     1       2.080   7.193  19.717  0.00  0.00    +0.000 A 
ATOM     10  C   UNL     1       1.492   8.369  20.260  0.00  0.00    +0.000 A 
BRANCH   5  12
ATOM     11  C   UNL     1       1.139  11.863  19.292  0.00  0.00    +0.000 C 
ATOM     12  O   UNL     1       0.783  10.650  19.955  0.00  0.00    +0.000 OA
ENDBRANCH   5  12
BRANCH  10  13
ATOM     13  O   UNL     1       0.994   8.220  21.531  0.00  0.00    +0.000 OA
ATOM     14  C   UNL     1      -0.401   8.304  21.769  0.00  0.00    +0.000 C 
ENDBRANCH  10  13
ENDBRANCH   3   9
ENDBRANCH   1   4
BRANCH   1  15
ATOM     15  O   UNL     1       1.286   2.663  20.199  0.00  0.00    +0.000 OA
BRANCH  15  16
ATOM     16  C   UNL     1       2.358   2.242  19.354  0.00  0.00    +0.000 C 
BRANCH  16  17
ATOM     17  C   UNL     1       2.393   3.101  18.092  0.00  0.00    +0.000 C 
ATOM     18  O   UNL     1       1.408   3.246  17.368  0.00  0.00    +0.000 OA
BRANCH  17  19
ATOM     19  C   UNL     1       3.677   3.765  17.717  0.00  0.00    +0.000 A 
ATOM     20  C   UNL     1       4.003   3.867  16.362  0.00  0.00    +0.000 A 
ATOM     21  C   UNL     1       5.190   4.488  15.969  0.00  0.00    +0.000 A 
ATOM     22  C   UNL     1       6.076   5.015  16.919  0.00  0.00    +0.000 A 
ATOM     23  C   UNL     1       7.324   5.706  16.442  0.00  0.00    +0.000 C 
ATOM     24  C   UNL     1       5.768   4.891  18.288  0.00  0.00    +0.000 A 
ATOM     25  C   UNL     1       6.668   5.393  19.387  0.00  0.00    +0.000 C 
ATOM     26  C   UNL     1       4.563   4.273  18.672  0.00  0.00    +0.000 A 
ENDBRANCH  17  19
ENDBRANCH  16  17
ENDBRANCH  15  16
ENDBRANCH   1  15
TORSDOF 8
ENDMDL
MODEL 5
REMARK VINA RESULT:      -7.2      5.560      7.501
REMARK  Name = 
REMARK  12 active torsions:
REMARK  status: ('A' for Active; 'I' for Inactive)
REMARK    1  A    between atoms: C_1  and  O_2
REMARK    2  A    between atoms: O_2  and  C_3
REMARK    3  A    between atoms: C_7  and  C_8
REMARK    4  A    between atoms: C_9  and  C_10
REMARK    5  A    between atoms: C_10  and  O_12
REMARK    6  A    between atoms: O_12  and  C_13
REMARK    7  A    between atoms: C_13  and  C_14
REMARK    8  A    between atoms: C_14  and  C_16
REMARK    9  A    between atoms: C_19  and  C_20
REMARK   10  A    between atoms: C_21  and  C_22
REMARK   11  A    between atoms: C_24  and  O_25
REMARK   12  A    between atoms: O_25  and  C_26
REMARK                            x       y       z     vdW  Elec       q    Type
REMARK                         _______ _______ _______ _____ _____    ______ ____
ROOT
ATOM      1  C   UNL     1       8.035   7.770  18.072  0.00  0.00    +0.000 C 
ATOM      2  O   UNL     1       8.414   6.914  18.848  0.00  0.00    +0.000 OA
ENDROOT
BRANCH   1   4
ATOM      3  C   UNL     1       8.997   9.785  19.108  0.00  0.00    +0.000 C 
ATOM      4  C   UNL     1       8.485   9.176  18.029  0.00  0.00    +0.000 C 
BRANCH   3   9
ATOM      5  C   UNL     1      10.368  13.225  20.105  0.00  0.00    +0.000 A 
ATOM      6  C   UNL     1      10.688  13.707  18.826  0.00  0.00    +0.000 A 
ATOM      7  C   UNL     1      10.378  12.970  17.689  0.00  0.00    +0.000 A 
ATOM      8  C   UNL     1       9.821  11.702  17.819  0.00  0.00    +0.000 A 
ATOM      9  C   UNL     1       9.576  11.150  19.086  0.00  0.00    +0.000 A 
ATOM     10  C   UNL     1       9.823  11.933  20.247  0.00  0.00    +0.000 A 
BRANCH   5  12
ATOM     11  C   UNL     1      10.707  15.402  20.955  0.00  0.00    +0.000 C 
ATOM     12  O   UNL     1      10.580  14.004  21.215  0.00  0.00    +0.000 OA
ENDBRANCH   5  12
BRANCH  10  13
ATOM     13  O   UNL     1       9.398  11.360  21.421  0.00  0.00    +0.000 OA
ATOM     14  C   UNL     1       8.346  11.947  22.167  0.00  0.00    +0.000 C 
ENDBRANCH  10  13
ENDBRANCH   3   9
ENDBRANCH   1   4
BRANCH   1  15
ATOM     15  O   UNL     1       7.165   7.608  17.042  0.00  0.00    +0.000 OA
BRANCH  15  16
ATOM     16  C   UNL     1       6.814   6.252  16.763  0.00  0.00    +0.000 C 
BRANCH  16  17
ATOM     17  C   UNL     1       5.395   6.187  16.203  0.00  0.00    +0.000 C 
ATOM     18  O   UNL     1       5.098   6.665  15.108  0.00  0.00    +0.000 OA
BRANCH  17  19
ATOM     19  C   UNL     1       4.332   5.541  17.030  0.00  0.00    +0.000 A 
ATOM     20  C   UNL     1       3.514   6.355  17.817  0.00  0.00    +0.000 A 
ATOM     21  C   UNL     1       2.503   5.792  18.597  0.00  0.00    +0.000 A 
ATOM     22  C   UNL     1       2.291   4.406  18.611  0.00  0.00    +0.000 A 
ATOM     23  C   UNL     1       1.165   3.853  19.440  0.00  0.00    +0.000 C 
ATOM     24  C   UNL     1       3.129   3.576  17.841  0.00  0.00    +0.000 A 
ATOM     25  C   UNL     1       3.006   2.074  17.813  0.00  0.00    +0.000 C 
ATOM     26  C   UNL     1       4.139   4.156  17.050  0.00  0.00    +0.000 A 
ENDBRANCH  17  19
ENDBRANCH  16  17
ENDBRANCH  15  16
ENDBRANCH   1  15
TORSDOF 8
ENDMDL
MODEL 6
REMARK VINA RESULT:      -7.2      0.917      1.074
REMARK  Name = 
REMARK  12 active torsions:
REMARK  status: ('A' for Active; 'I' for Inactive)
REMARK    1  A    between atoms: C_1  and  O_2
REMARK    2  A    between atoms: O_2  and  C_3
REMARK    3  A    between atoms: C_7  and  C_8
REMARK    4  A    between atoms: C_9  and  C_10
REMARK    5  A    between atoms: C_10  and  O_12
REMARK    6  A    between atoms: O_12  and  C_13
REMARK    7  A    between atoms: C_13  and  C_14
REMARK    8  A    between atoms: C_14  and  C_16
REMARK    9  A    between atoms: C_19  and  C_20
REMARK   10  A    between atoms: C_21  and  C_22
REMARK   11  A    between atoms: C_24  and  O_25
REMARK   12  A    between atoms: O_25  and  C_26
REMARK                            x       y       z     vdW  Elec       q    Type
REMARK                         _______ _______ _______ _____ _____    ______ ____
ROOT
ATOM      1  C   UNL     1       1.888   3.608  20.843  0.00  0.00    +0.000 C 
ATOM      2  O   UNL     1       2.182   3.441  22.013  0.00  0.00    +0.000 OA
ENDROOT
BRANCH   1   4
ATOM      3  C   UNL     1       2.340   5.984  20.387  0.00  0.00    +0.000 C 
ATOM      4  C   UNL     1       1.580   4.897  20.193  0.00  0.00    +0.000 C 
BRANCH   3   9
ATOM      5  C   UNL     1       1.419   9.587  19.451  0.00  0.00    +0.000 A 
ATOM      6  C   UNL     1       1.882   9.590  18.125  0.00  0.00    +0.000 A 
ATOM      7  C   UNL     1       2.385   8.431  17.546  0.00  0.00    +0.000 A 
ATOM      8  C   UNL     1       2.511   7.275  18.309  0.00  0.00    +0.000 A 
ATOM      9  C   UNL     1       2.146   7.264  19.664  0.00  0.00    +0.000 A 
ATOM     10  C   UNL     1       1.562   8.427  20.238  0.00  0.00    +0.000 A 
BRANCH   5  12
ATOM     11  C   UNL     1      -0.293  11.202  19.247  0.00  0.00    +0.000 C 
ATOM     12  O   UNL     1       0.826  10.705  19.982  0.00  0.00    +0.000 OA
ENDBRANCH   5  12
BRANCH  10  13
ATOM     13  O   UNL     1       1.096   8.256  21.519  0.00  0.00    +0.000 OA
ATOM     14  C   UNL     1      -0.296   8.275  21.784  0.00  0.00    +0.000 C 
ENDBRANCH  10  13
ENDBRANCH   3   9
ENDBRANCH   1   4
BRANCH   1  15
ATOM     15  O   UNL     1       1.841   2.660  19.873  0.00  0.00    +0.000 OA
BRANCH  15  16
ATOM     16  C   UNL     1       2.871   1.673  19.950  0.00  0.00    +0.000 C 
BRANCH  16  17
ATOM     17  C   UNL     1       4.240   2.349  19.941  0.00  0.00    +0.000 C 
ATOM     18  O   UNL     1       5.094   2.117  20.797  0.00  0.00    +0.000 OA
BRANCH  17  19
ATOM     19  C   UNL     1       4.537   3.343  18.866  0.00  0.00    +0.000 A 
ATOM     20  C   UNL     1       3.890   3.207  17.636  0.00  0.00    +0.000 A 
ATOM     21  C   UNL     1       4.132   4.119  16.608  0.00  0.00    +0.000 A 
ATOM     22  C   UNL     1       5.029   5.183  16.786  0.00  0.00    +0.000 A 
ATOM     23  C   UNL     1       5.228   6.160  15.660  0.00  0.00    +0.000 C 
ATOM     24  C   UNL     1       5.706   5.311  18.015  0.00  0.00    +0.000 A 
ATOM     25  C   UNL     1       6.712   6.398  18.295  0.00  0.00    +0.000 C 
ATOM     26  C   UNL     1       5.445   4.391  19.047  0.00  0.00    +0.000 A 
ENDBRANCH  17  19
ENDBRANCH  16  17
ENDBRANCH  15  16
ENDBRANCH   1  15
TORSDOF 8
ENDMDL
MODEL 7
REMARK VINA RESULT:      -7.1      5.663      7.728
REMARK  Name = 
REMARK  12 active torsions:
REMARK  status: ('A' for Active; 'I' for Inactive)
REMARK    1  A    between atoms: C_1  and  O_2
REMARK    2  A    between atoms: O_2  and  C_3
REMARK    3  A    between atoms: C_7  and  C_8
REMARK    4  A    between atoms: C_9  and  C_10
REMARK    5  A    between atoms: C_10  and  O_12
REMARK    6  A    between atoms: O_12  and  C_13
REMARK    7  A    between atoms: C_13  and  C_14
REMARK    8  A    between atoms: C_14  and  C_16
REMARK    9  A    between atoms: C_19  and  C_20
REMARK   10  A    between atoms: C_21  and  C_22
REMARK   11  A    between atoms: C_24  and  O_25
REMARK   12  A    between atoms: O_25  and  C_26
REMARK                            x       y       z     vdW  Elec       q    Type
REMARK                         _______ _______ _______ _____ _____    ______ ____
ROOT
ATOM      1  C   UNL     1       7.949   8.387  17.946  0.00  0.00    +0.000 C 
ATOM      2  O   UNL     1       7.099   8.565  17.094  0.00  0.00    +0.000 OA
ENDROOT
BRANCH   1   4
ATOM      3  C   UNL     1       8.930  10.643  18.036  0.00  0.00    +0.000 C 
ATOM      4  C   UNL     1       8.785   9.427  18.580  0.00  0.00    +0.000 C 
BRANCH   3   9
ATOM      5  C   UNL     1      10.177  14.110  19.100  0.00  0.00    +0.000 A 
ATOM      6  C   UNL     1      11.130  13.712  20.051  0.00  0.00    +0.000 A 
ATOM      7  C   UNL     1      11.410  12.366  20.258  0.00  0.00    +0.000 A 
ATOM      8  C   UNL     1      10.681  11.397  19.579  0.00  0.00    +0.000 A 
ATOM      9  C   UNL     1       9.655  11.758  18.691  0.00  0.00    +0.000 A 
ATOM     10  C   UNL     1       9.418  13.134  18.422  0.00  0.00    +0.000 A 
BRANCH   5  12
ATOM     11  C   UNL     1      10.879  15.995  17.863  0.00  0.00    +0.000 C 
ATOM     12  O   UNL     1       9.983  15.440  18.825  0.00  0.00    +0.000 OA
ENDBRANCH   5  12
BRANCH  10  13
ATOM     13  O   UNL     1       8.507  13.370  17.423  0.00  0.00    +0.000 OA
ATOM     14  C   UNL     1       7.250  13.955  17.721  0.00  0.00    +0.000 C 
ENDBRANCH  10  13
ENDBRANCH   3   9
ENDBRANCH   1   4
BRANCH   1  15
ATOM     15  O   UNL     1       8.271   7.211  18.542  0.00  0.00    +0.000 OA
BRANCH  15  16
ATOM     16  C   UNL     1       7.605   6.067  18.006  0.00  0.00    +0.000 C 
BRANCH  16  17
ATOM     17  C   UNL     1       6.743   5.415  19.086  0.00  0.00    +0.000 C 
ATOM     18  O   UNL     1       7.182   5.145  20.204  0.00  0.00    +0.000 OA
BRANCH  17  19
ATOM     19  C   UNL     1       5.326   5.075  18.757  0.00  0.00    +0.000 A 
ATOM     20  C   UNL     1       5.050   4.507  17.511  0.00  0.00    +0.000 A 
ATOM     21  C   UNL     1       3.740   4.166  17.168  0.00  0.00    +0.000 A 
ATOM     22  C   UNL     1       2.680   4.390  18.059  0.00  0.00    +0.000 A 
ATOM     23  C   UNL     1       1.294   3.973  17.655  0.00  0.00    +0.000 C 
ATOM     24  C   UNL     1       2.948   4.989  19.306  0.00  0.00    +0.000 A 
ATOM     25  C   UNL     1       1.877   5.302  20.319  0.00  0.00    +0.000 C 
ATOM     26  C   UNL     1       4.274   5.318  19.645  0.00  0.00    +0.000 A 
ENDBRANCH  17  19
ENDBRANCH  16  17
ENDBRANCH  15  16
ENDBRANCH   1  15
TORSDOF 8
ENDMDL
MODEL 8
REMARK VINA RESULT:      -6.8      5.286      7.323
REMARK  Name = 
REMARK  12 active torsions:
REMARK  status: ('A' for Active; 'I' for Inactive)
REMARK    1  A    between atoms: C_1  and  O_2
REMARK    2  A    between atoms: O_2  and  C_3
REMARK    3  A    between atoms: C_7  and  C_8
REMARK    4  A    between atoms: C_9  and  C_10
REMARK    5  A    between atoms: C_10  and  O_12
REMARK    6  A    between atoms: O_12  and  C_13
REMARK    7  A    between atoms: C_13  and  C_14
REMARK    8  A    between atoms: C_14  and  C_16
REMARK    9  A    between atoms: C_19  and  C_20
REMARK   10  A    between atoms: C_21  and  C_22
REMARK   11  A    between atoms: C_24  and  O_25
REMARK   12  A    between atoms: O_25  and  C_26
REMARK                            x       y       z     vdW  Elec       q    Type
REMARK                         _______ _______ _______ _____ _____    ______ ____
ROOT
ATOM      1  C   UNL     1       7.815   7.489  18.004  0.00  0.00    +0.000 C 
ATOM      2  O   UNL     1       8.073   6.650  18.846  0.00  0.00    +0.000 OA
ENDROOT
BRANCH   1   4
ATOM      3  C   UNL     1       8.983   9.407  19.011  0.00  0.00    +0.000 C 
ATOM      4  C   UNL     1       8.246   8.901  18.012  0.00  0.00    +0.000 C 
BRANCH   3   9
ATOM      5  C   UNL     1      10.282  12.862  20.052  0.00  0.00    +0.000 A 
ATOM      6  C   UNL     1      10.626  13.353  18.783  0.00  0.00    +0.000 A 
ATOM      7  C   UNL     1      10.353  12.615  17.637  0.00  0.00    +0.000 A 
ATOM      8  C   UNL     1       9.811  11.340  17.749  0.00  0.00    +0.000 A 
ATOM      9  C   UNL     1       9.543  10.779  19.008  0.00  0.00    +0.000 A 
ATOM     10  C   UNL     1       9.751  11.561  20.177  0.00  0.00    +0.000 A 
BRANCH   5  12
ATOM     11  C   UNL     1       9.928  14.962  21.072  0.00  0.00    +0.000 C 
ATOM     12  O   UNL     1      10.456  13.639  21.170  0.00  0.00    +0.000 OA
ENDBRANCH   5  12
BRANCH  10  13
ATOM     13  O   UNL     1       9.307  10.978  21.338  0.00  0.00    +0.000 OA
ATOM     14  C   UNL     1       8.313  11.613  22.126  0.00  0.00    +0.000 C 
ENDBRANCH  10  13
ENDBRANCH   3   9
ENDBRANCH   1   4
BRANCH   1  15
ATOM     15  O   UNL     1       7.131   7.297  16.846  0.00  0.00    +0.000 OA
BRANCH  15  16
ATOM     16  C   UNL     1       6.272   6.156  16.842  0.00  0.00    +0.000 C 
BRANCH  16  17
ATOM     17  C   UNL     1       4.870   6.560  17.295  0.00  0.00    +0.000 C 
ATOM     18  O   UNL     1       4.507   7.735  17.339  0.00  0.00    +0.000 OA
BRANCH  17  19
ATOM     19  C   UNL     1       3.923   5.487  17.721  0.00  0.00    +0.000 A 
ATOM     20  C   UNL     1       3.824   4.336  16.936  0.00  0.00    +0.000 A 
ATOM     21  C   UNL     1       2.956   3.306  17.303  0.00  0.00    +0.000 A 
ATOM     22  C   UNL     1       2.167   3.406  18.459  0.00  0.00    +0.000 A 
ATOM     23  C   UNL     1       1.276   2.253  18.830  0.00  0.00    +0.000 C 
ATOM     24  C   UNL     1       2.241   4.575  19.240  0.00  0.00    +0.000 A 
ATOM     25  C   UNL     1       1.413   4.795  20.479  0.00  0.00    +0.000 C 
ATOM     26  C   UNL     1       3.128   5.603  18.866  0.00  0.00    +0.000 A 
ENDBRANCH  17  19
ENDBRANCH  16  17
ENDBRANCH  15  16
ENDBRANCH   1  15
TORSDOF 8
ENDMDL
MODEL 9
REMARK VINA RESULT:      -6.8      5.310      7.511
REMARK  Name = 
REMARK  12 active torsions:
REMARK  status: ('A' for Active; 'I' for Inactive)
REMARK    1  A    between atoms: C_1  and  O_2
REMARK    2  A    between atoms: O_2  and  C_3
REMARK    3  A    between atoms: C_7  and  C_8
REMARK    4  A    between atoms: C_9  and  C_10
REMARK    5  A    between atoms: C_10  and  O_12
REMARK    6  A    between atoms: O_12  and  C_13
REMARK    7  A    between atoms: C_13  and  C_14
REMARK    8  A    between atoms: C_14  and  C_16
REMARK    9  A    between atoms: C_19  and  C_20
REMARK   10  A    between atoms: C_21  and  C_22
REMARK   11  A    between atoms: C_24  and  O_25
REMARK   12  A    between atoms: O_25  and  C_26
REMARK                            x       y       z     vdW  Elec       q    Type
REMARK                         _______ _______ _______ _____ _____    ______ ____
ROOT
ATOM      1  C   UNL     1       7.817   7.824  17.821  0.00  0.00    +0.000 C 
ATOM      2  O   UNL     1       6.926   8.006  17.013  0.00  0.00    +0.000 OA
ENDROOT
BRANCH   1   4
ATOM      3  C   UNL     1       8.571  10.150  18.102  0.00  0.00    +0.000 C 
ATOM      4  C   UNL     1       8.622   8.867  18.487  0.00  0.00    +0.000 C 
BRANCH   3   9
ATOM      5  C   UNL     1       9.864  13.587  19.208  0.00  0.00    +0.000 A 
ATOM      6  C   UNL     1      10.649  13.181  20.298  0.00  0.00    +0.000 A 
ATOM      7  C   UNL     1      10.817  11.832  20.590  0.00  0.00    +0.000 A 
ATOM      8  C   UNL     1      10.132  10.875  19.850  0.00  0.00    +0.000 A 
ATOM      9  C   UNL     1       9.263  11.251  18.814  0.00  0.00    +0.000 A 
ATOM     10  C   UNL     1       9.149  12.625  18.465  0.00  0.00    +0.000 A 
BRANCH   5  12
ATOM     11  C   UNL     1      10.840  15.375  18.012  0.00  0.00    +0.000 C 
ATOM     12  O   UNL     1       9.789  14.913  18.861  0.00  0.00    +0.000 OA
ENDBRANCH   5  12
BRANCH  10  13
ATOM     13  O   UNL     1       8.401  12.867  17.339  0.00  0.00    +0.000 OA
ATOM     14  C   UNL     1       7.158  13.541  17.433  0.00  0.00    +0.000 C 
ENDBRANCH  10  13
ENDBRANCH   3   9
ENDBRANCH   1   4
BRANCH   1  15
ATOM     15  O   UNL     1       8.222   6.633  18.331  0.00  0.00    +0.000 OA
BRANCH  15  16
ATOM     16  C   UNL     1       7.240   5.953  19.114  0.00  0.00    +0.000 C 
BRANCH  16  17
ATOM     17  C   UNL     1       6.488   4.947  18.245  0.00  0.00    +0.000 C 
ATOM     18  O   UNL     1       6.996   4.427  17.252  0.00  0.00    +0.000 OA
BRANCH  17  19
ATOM     19  C   UNL     1       5.079   4.605  18.607  0.00  0.00    +0.000 A 
ATOM     20  C   UNL     1       4.424   5.398  19.552  0.00  0.00    +0.000 A 
ATOM     21  C   UNL     1       3.105   5.118  19.912  0.00  0.00    +0.000 A 
ATOM     22  C   UNL     1       2.415   4.039  19.339  0.00  0.00    +0.000 A 
ATOM     23  C   UNL     1       0.984   3.802  19.733  0.00  0.00    +0.000 C 
ATOM     24  C   UNL     1       3.079   3.219  18.406  0.00  0.00    +0.000 A 
ATOM     25  C   UNL     1       2.439   2.018  17.758  0.00  0.00    +0.000 C 
ATOM     26  C   UNL     1       4.405   3.518  18.043  0.00  0.00    +0.000 A 
ENDBRANCH  17  19
ENDBRANCH  16  17
ENDBRANCH  15  16
ENDBRANCH   1  15
TORSDOF 8
ENDMDL
