MODEL 1
REMARK VINA RESULT:      -5.8      0.000      0.000
REMARK  Name = 
REMARK  22 active torsions:
REMARK  status: ('A' for Active; 'I' for Inactive)
REMARK    1  A    between atoms: C_1  and  C_2
REMARK    2  A    between atoms: C_2  and  C_3
REMARK    3  A    between atoms: C_3  and  C_4
REMARK    4  A    between atoms: C_4  and  C_5
REMARK    5  A    between atoms: C_5  and  C_6
REMARK    6  A    between atoms: C_6  and  C_7
REMARK    7  A    between atoms: C_7  and  C_8
REMARK    8  A    between atoms: C_8  and  C_9
REMARK    9  A    between atoms: C_9  and  C_10
REMARK   10  A    between atoms: C_10  and  C_11
REMARK   11  A    between atoms: C_11  and  C_12
REMARK   12  A    between atoms: C_12  and  C_13
REMARK   13  A    between atoms: C_13  and  C_14
REMARK   14  A    between atoms: C_14  and  C_15
REMARK   15  A    between atoms: C_15  and  C_16
REMARK   16  A    between atoms: C_16  and  S_17
REMARK   17  A    between atoms: S_17  and  C_18
REMARK   18  A    between atoms: C_18  and  C_19
REMARK   19  A    between atoms: C_19  and  C_20
REMARK   20  A    between atoms: C_20  and  N_21
REMARK   21  A    between atoms: N_21  and  C_22
REMARK   22  A    between atoms: C_25  and  O_26
REMARK                            x       y       z     vdW  Elec       q    Type
REMARK                         _______ _______ _______ _____ _____    ______ ____
ROOT
ATOM      1  C   UNL     1       7.778   6.004  18.633  0.00  0.00    +0.000 C 
ENDROOT
BRANCH   1   2
ATOM      2  C   UNL     1       7.281   4.801  17.830  0.00  0.00    +0.000 C 
BRANCH   2   3
ATOM      3  C   UNL     1       5.858   4.380  18.209  0.00  0.00    +0.000 C 
BRANCH   3   4
ATOM      4  S   UNL     1       4.703   5.121  16.990  0.00  0.00    +0.000 S 
BRANCH   4   5
ATOM      5  C   UNL     1       3.794   6.293  18.039  0.00  0.00    +0.000 C 
BRANCH   5   6
ATOM      6  C   UNL     1       2.315   5.873  18.094  0.00  0.00    +0.000 C 
BRANCH   6   7
ATOM      7  C   UNL     1       2.198   4.357  17.896  0.00  0.00    +0.000 C 
BRANCH   7   8
ATOM      8  N   UNL     1       1.865   3.547  19.106  0.00  0.00    +0.000 NA
ATOM      9  C   UNL     1       1.072   2.350  18.589  0.00  0.00    +0.000 C 
ATOM     10  C   UNL     1       1.097   4.117  20.049  0.00  0.00    +0.000 C 
ATOM     11  C   UNL     1       1.370   3.541  21.283  0.00  0.00    +0.000 C 
ATOM     12  C   UNL     1       2.554   2.846  21.095  0.00  0.00    +0.000 C 
ATOM     13  C   UNL     1       2.929   3.029  19.786  0.00  0.00    +0.000 C 
BRANCH  12  14
ATOM     14  O   UNL     1       3.191   2.073  22.021  0.00  0.00    +0.000 OA
ATOM     15  H   UNL     1       4.018   2.548  22.174  0.00  0.00    +0.000 HD
ENDBRANCH  12  14
ENDBRANCH   7   8
ENDBRANCH   6   7
ENDBRANCH   5   6
ENDBRANCH   4   5
ENDBRANCH   3   4
ENDBRANCH   2   3
ENDBRANCH   1   2
BRANCH   1  16
ATOM     16  C   UNL     1       7.895   7.233  17.728  0.00  0.00    +0.000 C 
BRANCH  16  17
ATOM     17  C   UNL     1       8.526   8.404  18.471  0.00  0.00    +0.000 C 
BRANCH  17  18
ATOM     18  C   UNL     1       8.053   9.730  17.887  0.00  0.00    +0.000 C 
BRANCH  18  19
ATOM     19  C   UNL     1       9.121  10.797  18.069  0.00  0.00    +0.000 C 
BRANCH  19  20
ATOM     20  C   UNL     1       9.721  10.713  19.463  0.00  0.00    +0.000 C 
BRANCH  20  21
ATOM     21  C   UNL     1      11.055  11.440  19.502  0.00  0.00    +0.000 C 
BRANCH  21  22
ATOM     22  C   UNL     1      11.448  11.873  18.103  0.00  0.00    +0.000 C 
BRANCH  22  23
ATOM     23  C   UNL     1      11.830  13.344  18.092  0.00  0.00    +0.000 C 
BRANCH  23  24
ATOM     24  C   UNL     1      10.919  14.101  19.033  0.00  0.00    +0.000 C 
BRANCH  24  25
ATOM     25  C   UNL     1      10.479  15.429  18.434  0.00  0.00    +0.000 C 
BRANCH  25  26
ATOM     26  C   UNL     1      11.302  15.738  17.190  0.00  0.00    +0.000 C 
BRANCH  26  28
ATOM     27  C   UNL     1      11.866  17.749  18.571  0.00  0.00    +0.000 C 
ATOM     28  C   UNL     1      11.740  17.203  17.167  0.00  0.00    +0.000 C 
ENDBRANCH  26  28
ENDBRANCH  25  26
ENDBRANCH  24  25
ENDBRANCH  23  24
ENDBRANCH  22  23
ENDBRANCH  21  22
ENDBRANCH  20  21
ENDBRANCH  19  20
ENDBRANCH  18  19
ENDBRANCH  17  18
ENDBRANCH  16  17
ENDBRANCH   1  16
TORSDOF 20
ENDMDL
MODEL 2
REMARK VINA RESULT:      -5.7      5.468      7.958
REMARK  Name = 
REMARK  22 active torsions:
REMARK  status: ('A' for Active; 'I' for Inactive)
REMARK    1  A    between atoms: C_1  and  C_2
REMARK    2  A    between atoms: C_2  and  C_3
REMARK    3  A    between atoms: C_3  and  C_4
REMARK    4  A    between atoms: C_4  and  C_5
REMARK    5  A    between atoms: C_5  and  C_6
REMARK    6  A    between atoms: C_6  and  C_7
REMARK    7  A    between atoms: C_7  and  C_8
REMARK    8  A    between atoms: C_8  and  C_9
REMARK    9  A    between atoms: C_9  and  C_10
REMARK   10  A    between atoms: C_10  and  C_11
REMARK   11  A    between atoms: C_11  and  C_12
REMARK   12  A    between atoms: C_12  and  C_13
REMARK   13  A    between atoms: C_13  and  C_14
REMARK   14  A    between atoms: C_14  and  C_15
REMARK   15  A    between atoms: C_15  and  C_16
REMARK   16  A    between atoms: C_16  and  S_17
REMARK   17  A    between atoms: S_17  and  C_18
REMARK   18  A    between atoms: C_18  and  C_19
REMARK   19  A    between atoms: C_19  and  C_20
REMARK   20  A    between atoms: C_20  and  N_21
REMARK   21  A    between atoms: N_21  and  C_22
REMARK   22  A    between atoms: C_25  and  O_26
REMARK                            x       y       z     vdW  Elec       q    Type
REMARK                         _______ _______ _______ _____ _____    ______ ____
ROOT
ATOM      1  C   UNL     1       1.384   4.975  20.382  0.00  0.00    +0.000 C 
ENDROOT
BRANCH   1   2
ATOM      2  C   UNL     1       2.316   4.127  21.249  0.00  0.00    +0.000 C 
BRANCH   2   3
ATOM      3  C   UNL     1       3.123   3.110  20.436  0.00  0.00    +0.000 C 
BRANCH   3   4
ATOM      4  S   UNL     1       1.993   2.326  19.222  0.00  0.00    +0.000 S 
BRANCH   4   5
ATOM      5  C   UNL     1       2.944   2.517  17.687  0.00  0.00    +0.000 C 
BRANCH   5   6
ATOM      6  C   UNL     1       4.020   3.596  17.895  0.00  0.00    +0.000 C 
BRANCH   6   7
ATOM      7  C   UNL     1       4.744   3.869  16.572  0.00  0.00    +0.000 C 
BRANCH   7   8
ATOM      8  N   UNL     1       5.957   4.739  16.639  0.00  0.00    +0.000 NA
ATOM      9  C   UNL     1       6.744   4.439  15.366  0.00  0.00    +0.000 C 
ATOM     10  C   UNL     1       6.813   4.544  17.655  0.00  0.00    +0.000 C 
ATOM     11  C   UNL     1       7.491   5.726  17.925  0.00  0.00    +0.000 C 
ATOM     12  C   UNL     1       6.775   6.706  17.258  0.00  0.00    +0.000 C 
ATOM     13  C   UNL     1       5.723   6.084  16.629  0.00  0.00    +0.000 C 
BRANCH  12  14
ATOM     14  O   UNL     1       7.093   8.030  17.189  0.00  0.00    +0.000 OA
ATOM     15  H   UNL     1       6.781   8.378  18.034  0.00  0.00    +0.000 HD
ENDBRANCH  12  14
ENDBRANCH   7   8
ENDBRANCH   6   7
ENDBRANCH   5   6
ENDBRANCH   4   5
ENDBRANCH   3   4
ENDBRANCH   2   3
ENDBRANCH   1   2
BRANCH   1  16
ATOM     16  C   UNL     1       2.033   6.324  20.069  0.00  0.00    +0.000 C 
BRANCH  16  17
ATOM     17  C   UNL     1       2.281   6.481  18.574  0.00  0.00    +0.000 C 
BRANCH  17  18
ATOM     18  C   UNL     1       2.804   7.877  18.258  0.00  0.00    +0.000 C 
BRANCH  18  19
ATOM     19  C   UNL     1       1.697   8.733  17.664  0.00  0.00    +0.000 C 
BRANCH  19  20
ATOM     20  C   UNL     1       1.532  10.016  18.463  0.00  0.00    +0.000 C 
BRANCH  20  21
ATOM     21  C   UNL     1       0.385   9.872  19.451  0.00  0.00    +0.000 C 
BRANCH  21  22
ATOM     22  C   UNL     1       0.776  10.472  20.787  0.00  0.00    +0.000 C 
BRANCH  22  23
ATOM     23  C   UNL     1      -0.362  11.308  21.346  0.00  0.00    +0.000 C 
BRANCH  23  24
ATOM     24  C   UNL     1      -0.902  12.206  20.253  0.00  0.00    +0.000 C 
BRANCH  24  25
ATOM     25  C   UNL     1      -0.016  13.425  20.046  0.00  0.00    +0.000 C 
BRANCH  25  26
ATOM     26  C   UNL     1       0.344  13.564  18.572  0.00  0.00    +0.000 C 
BRANCH  26  28
ATOM     27  C   UNL     1       2.577  13.567  19.704  0.00  0.00    +0.000 C 
ATOM     28  C   UNL     1       1.854  13.705  18.383  0.00  0.00    +0.000 C 
ENDBRANCH  26  28
ENDBRANCH  25  26
ENDBRANCH  24  25
ENDBRANCH  23  24
ENDBRANCH  22  23
ENDBRANCH  21  22
ENDBRANCH  20  21
ENDBRANCH  19  20
ENDBRANCH  18  19
ENDBRANCH  17  18
ENDBRANCH  16  17
ENDBRANCH   1  16
TORSDOF 20
ENDMDL
MODEL 3
REMARK VINA RESULT:      -5.6      7.115     10.052
REMARK  Name = 
REMARK  22 active torsions:
REMARK  status: ('A' for Active; 'I' for Inactive)
REMARK    1  A    between atoms: C_1  and  C_2
REMARK    2  A    between atoms: C_2  and  C_3
REMARK    3  A    between atoms: C_3  and  C_4
REMARK    4  A    between atoms: C_4  and  C_5
REMARK    5  A    between atoms: C_5  and  C_6
REMARK    6  A    between atoms: C_6  and  C_7
REMARK    7  A    between atoms: C_7  and  C_8
REMARK    8  A    between atoms: C_8  and  C_9
REMARK    9  A    between atoms: C_9  and  C_10
REMARK   10  A    between atoms: C_10  and  C_11
REMARK   11  A    between atoms: C_11  and  C_12
REMARK   12  A    between atoms: C_12  and  C_13
REMARK   13  A    between atoms: C_13  and  C_14
REMARK   14  A    between atoms: C_14  and  C_15
REMARK   15  A    between atoms: C_15  and  C_16
REMARK   16  A    between atoms: C_16  and  S_17
REMARK   17  A    between atoms: S_17  and  C_18
REMARK   18  A    between atoms: C_18  and  C_19
REMARK   19  A    between atoms: C_19  and  C_20
REMARK   20  A    between atoms: C_20  and  N_21
REMARK   21  A    between atoms: N_21  and  C_22
REMARK   22  A    between atoms: C_25  and  O_26
REMARK                            x       y       z     vdW  Elec       q    Type
REMARK                         _______ _______ _______ _____ _____    ______ ____
ROOT
ATOM      1  C   UNL     1       1.309   4.423  20.536  0.00  0.00    +0.000 C 
ENDROOT
BRANCH   1   2
ATOM      2  C   UNL     1       1.648   5.900  20.743  0.00  0.00    +0.000 C 
BRANCH   2   3
ATOM      3  C   UNL     1       2.396   6.511  19.554  0.00  0.00    +0.000 C 
BRANCH   3   4
ATOM      4  S   UNL     1       1.874   8.262  19.393  0.00  0.00    +0.000 S 
BRANCH   4   5
ATOM      5  C   UNL     1       0.899   8.476  20.910  0.00  0.00    +0.000 C 
BRANCH   5   6
ATOM      6  C   UNL     1       0.837   9.974  21.259  0.00  0.00    +0.000 C 
BRANCH   6   7
ATOM      7  C   UNL     1       1.031  10.810  19.989  0.00  0.00    +0.000 C 
BRANCH   7   8
ATOM      8  N   UNL     1      -0.109  11.685  19.582  0.00  0.00    +0.000 NA
ATOM      9  C   UNL     1       0.516  13.033  19.233  0.00  0.00    +0.000 C 
ATOM     10  C   UNL     1      -1.057  11.945  20.496  0.00  0.00    +0.000 C 
ATOM     11  C   UNL     1      -2.260  12.214  19.856  0.00  0.00    +0.000 C 
ATOM     12  C   UNL     1      -2.072  11.784  18.553  0.00  0.00    +0.000 C 
ATOM     13  C   UNL     1      -0.793  11.288  18.469  0.00  0.00    +0.000 C 
BRANCH  12  14
ATOM     14  O   UNL     1      -2.969  11.892  17.531  0.00  0.00    +0.000 OA
ATOM     15  H   UNL     1      -2.697  11.193  16.923  0.00  0.00    +0.000 HD
ENDBRANCH  12  14
ENDBRANCH   7   8
ENDBRANCH   6   7
ENDBRANCH   5   6
ENDBRANCH   4   5
ENDBRANCH   3   4
ENDBRANCH   2   3
ENDBRANCH   1   2
BRANCH   1  16
ATOM     16  C   UNL     1       1.940   3.574  21.642  0.00  0.00    +0.000 C 
BRANCH  16  17
ATOM     17  C   UNL     1       2.700   2.390  21.059  0.00  0.00    +0.000 C 
BRANCH  17  18
ATOM     18  C   UNL     1       3.564   2.830  19.883  0.00  0.00    +0.000 C 
BRANCH  18  19
ATOM     19  C   UNL     1       3.394   1.870  18.716  0.00  0.00    +0.000 C 
BRANCH  19  20
ATOM     20  C   UNL     1       2.437   2.450  17.687  0.00  0.00    +0.000 C 
BRANCH  20  21
ATOM     21  C   UNL     1       2.924   3.817  17.233  0.00  0.00    +0.000 C 
BRANCH  21  22
ATOM     22  C   UNL     1       4.299   3.694  16.607  0.00  0.00    +0.000 C 
BRANCH  22  23
ATOM     23  C   UNL     1       4.871   5.069  16.309  0.00  0.00    +0.000 C 
BRANCH  23  24
ATOM     24  C   UNL     1       6.272   4.917  15.758  0.00  0.00    +0.000 C 
BRANCH  24  25
ATOM     25  C   UNL     1       6.342   3.816  14.711  0.00  0.00    +0.000 C 
BRANCH  25  26
ATOM     26  C   UNL     1       6.641   4.415  13.343  0.00  0.00    +0.000 C 
BRANCH  26  28
ATOM     27  C   UNL     1       4.845   3.329  11.978  0.00  0.00    +0.000 C 
ATOM     28  C   UNL     1       6.333   3.419  12.224  0.00  0.00    +0.000 C 
ENDBRANCH  26  28
ENDBRANCH  25  26
ENDBRANCH  24  25
ENDBRANCH  23  24
ENDBRANCH  22  23
ENDBRANCH  21  22
ENDBRANCH  20  21
ENDBRANCH  19  20
ENDBRANCH  18  19
ENDBRANCH  17  18
ENDBRANCH  16  17
ENDBRANCH   1  16
TORSDOF 20
ENDMDL
MODEL 4
REMARK VINA RESULT:      -5.6      4.911     12.374
REMARK  Name = 
REMARK  22 active torsions:
REMARK  status: ('A' for Active; 'I' for Inactive)
REMARK    1  A    between atoms: C_1  and  C_2
REMARK    2  A    between atoms: C_2  and  C_3
REMARK    3  A    between atoms: C_3  and  C_4
REMARK    4  A    between atoms: C_4  and  C_5
REMARK    5  A    between atoms: C_5  and  C_6
REMARK    6  A    between atoms: C_6  and  C_7
REMARK    7  A    between atoms: C_7  and  C_8
REMARK    8  A    between atoms: C_8  and  C_9
REMARK    9  A    between atoms: C_9  and  C_10
REMARK   10  A    between atoms: C_10  and  C_11
REMARK   11  A    between atoms: C_11  and  C_12
REMARK   12  A    between atoms: C_12  and  C_13
REMARK   13  A    between atoms: C_13  and  C_14
REMARK   14  A    between atoms: C_14  and  C_15
REMARK   15  A    between atoms: C_15  and  C_16
REMARK   16  A    between atoms: C_16  and  S_17
REMARK   17  A    between atoms: S_17  and  C_18
REMARK   18  A    between atoms: C_18  and  C_19
REMARK   19  A    between atoms: C_19  and  C_20
REMARK   20  A    between atoms: C_20  and  N_21
REMARK   21  A    between atoms: N_21  and  C_22
REMARK   22  A    between atoms: C_25  and  O_26
REMARK                            x       y       z     vdW  Elec       q    Type
REMARK                         _______ _______ _______ _____ _____    ______ ____
ROOT
ATOM      1  C   UNL     1       8.977   9.578  19.061  0.00  0.00    +0.000 C 
ENDROOT
BRANCH   1   2
ATOM      2  C   UNL     1       9.944  10.758  18.951  0.00  0.00    +0.000 C 
BRANCH   2   3
ATOM      3  C   UNL     1       9.365  12.056  19.523  0.00  0.00    +0.000 C 
BRANCH   3   4
ATOM      4  S   UNL     1       9.121  11.825  21.327  0.00  0.00    +0.000 S 
BRANCH   4   5
ATOM      5  C   UNL     1       9.266  13.535  21.920  0.00  0.00    +0.000 C 
BRANCH   5   6
ATOM      6  C   UNL     1      10.453  14.212  21.213  0.00  0.00    +0.000 C 
BRANCH   6   7
ATOM      7  C   UNL     1       9.953  15.397  20.380  0.00  0.00    +0.000 C 
BRANCH   7   8
ATOM      8  N   UNL     1      10.754  15.750  19.169  0.00  0.00    +0.000 NA
ATOM      9  C   UNL     1      12.060  14.971  19.304  0.00  0.00    +0.000 C 
ATOM     10  C   UNL     1      11.108  17.035  19.005  0.00  0.00    +0.000 C 
ATOM     11  C   UNL     1      11.279  17.301  17.652  0.00  0.00    +0.000 C 
ATOM     12  C   UNL     1      10.697  16.225  17.003  0.00  0.00    +0.000 C 
ATOM     13  C   UNL     1      10.215  15.378  17.972  0.00  0.00    +0.000 C 
BRANCH  12  14
ATOM     14  O   UNL     1      10.666  16.016  15.656  0.00  0.00    +0.000 OA
ATOM     15  H   UNL     1      10.039  16.681  15.342  0.00  0.00    +0.000 HD
ENDBRANCH  12  14
ENDBRANCH   7   8
ENDBRANCH   6   7
ENDBRANCH   5   6
ENDBRANCH   4   5
ENDBRANCH   3   4
ENDBRANCH   2   3
ENDBRANCH   1   2
BRANCH   1  16
ATOM     16  C   UNL     1       8.219   9.390  17.745  0.00  0.00    +0.000 C 
BRANCH  16  17
ATOM     17  C   UNL     1       7.789   7.940  17.561  0.00  0.00    +0.000 C 
BRANCH  17  18
ATOM     18  C   UNL     1       8.223   7.095  18.753  0.00  0.00    +0.000 C 
BRANCH  18  19
ATOM     19  C   UNL     1       7.495   5.760  18.745  0.00  0.00    +0.000 C 
BRANCH  19  20
ATOM     20  C   UNL     1       6.244   5.844  17.887  0.00  0.00    +0.000 C 
BRANCH  20  21
ATOM     21  C   UNL     1       6.047   4.545  17.121  0.00  0.00    +0.000 C 
BRANCH  21  22
ATOM     22  C   UNL     1       4.662   4.512  16.507  0.00  0.00    +0.000 C 
BRANCH  22  23
ATOM     23  C   UNL     1       3.620   4.192  17.566  0.00  0.00    +0.000 C 
BRANCH  23  24
ATOM     24  C   UNL     1       3.964   2.870  18.218  0.00  0.00    +0.000 C 
BRANCH  24  25
ATOM     25  C   UNL     1       4.119   3.014  19.724  0.00  0.00    +0.000 C 
BRANCH  25  26
ATOM     26  C   UNL     1       3.046   3.947  20.272  0.00  0.00    +0.000 C 
BRANCH  26  28
ATOM     27  C   UNL     1       0.706   3.135  19.910  0.00  0.00    +0.000 C 
ATOM     28  C   UNL     1       1.878   3.158  20.864  0.00  0.00    +0.000 C 
ENDBRANCH  26  28
ENDBRANCH  25  26
ENDBRANCH  24  25
ENDBRANCH  23  24
ENDBRANCH  22  23
ENDBRANCH  21  22
ENDBRANCH  20  21
ENDBRANCH  19  20
ENDBRANCH  18  19
ENDBRANCH  17  18
ENDBRANCH  16  17
ENDBRANCH   1  16
TORSDOF 20
ENDMDL
MODEL 5
REMARK VINA RESULT:      -5.5      6.608     10.517
REMARK  Name = 
REMARK  22 active torsions:
REMARK  status: ('A' for Active; 'I' for Inactive)
REMARK    1  A    between atoms: C_1  and  C_2
REMARK    2  A    between atoms: C_2  and  C_3
REMARK    3  A    between atoms: C_3  and  C_4
REMARK    4  A    between atoms: C_4  and  C_5
REMARK    5  A    between atoms: C_5  and  C_6
REMARK    6  A    between atoms: C_6  and  C_7
REMARK    7  A    between atoms: C_7  and  C_8
REMARK    8  A    between atoms: C_8  and  C_9
REMARK    9  A    between atoms: C_9  and  C_10
REMARK   10  A    between atoms: C_10  and  C_11
REMARK   11  A    between atoms: C_11  and  C_12
REMARK   12  A    between atoms: C_12  and  C_13
REMARK   13  A    between atoms: C_13  and  C_14
REMARK   14  A    between atoms: C_14  and  C_15
REMARK   15  A    between atoms: C_15  and  C_16
REMARK   16  A    between atoms: C_16  and  S_17
REMARK   17  A    between atoms: S_17  and  C_18
REMARK   18  A    between atoms: C_18  and  C_19
REMARK   19  A    between atoms: C_19  and  C_20
REMARK   20  A    between atoms: C_20  and  N_21
REMARK   21  A    between atoms: N_21  and  C_22
REMARK   22  A    between atoms: C_25  and  O_26
REMARK                            x       y       z     vdW  Elec       q    Type
REMARK                         _______ _______ _______ _____ _____    ______ ____
ROOT
ATOM      1  C   UNL     1       1.723   8.018  17.961  0.00  0.00    +0.000 C 
ENDROOT
BRANCH   1   2
ATOM      2  C   UNL     1       1.514   9.066  19.055  0.00  0.00    +0.000 C 
BRANCH   2   3
ATOM      3  C   UNL     1       1.006  10.404  18.508  0.00  0.00    +0.000 C 
BRANCH   3   4
ATOM      4  S   UNL     1      -0.542  10.831  19.395  0.00  0.00    +0.000 S 
BRANCH   4   5
ATOM      5  C   UNL     1      -1.529  11.548  18.050  0.00  0.00    +0.000 C 
BRANCH   5   6
ATOM      6  C   UNL     1      -2.960  10.987  18.125  0.00  0.00    +0.000 C 
BRANCH   6   7
ATOM      7  C   UNL     1      -3.882  12.008  18.803  0.00  0.00    +0.000 C 
BRANCH   7   8
ATOM      8  N   UNL     1      -5.338  11.678  18.833  0.00  0.00    +0.000 NA
ATOM      9  C   UNL     1      -5.948  12.419  17.646  0.00  0.00    +0.000 C 
ATOM     10  C   UNL     1      -6.046  12.061  19.908  0.00  0.00    +0.000 C 
ATOM     11  C   UNL     1      -7.133  11.213  20.076  0.00  0.00    +0.000 C 
ATOM     12  C   UNL     1      -6.862  10.124  19.264  0.00  0.00    +0.000 C 
ATOM     13  C   UNL     1      -5.653  10.361  18.656  0.00  0.00    +0.000 C 
BRANCH  12  14
ATOM     14  O   UNL     1      -7.675   9.048  19.059  0.00  0.00    +0.000 OA
ATOM     15  H   UNL     1      -7.235   8.341  19.548  0.00  0.00    +0.000 HD
ENDBRANCH  12  14
ENDBRANCH   7   8
ENDBRANCH   6   7
ENDBRANCH   5   6
ENDBRANCH   4   5
ENDBRANCH   3   4
ENDBRANCH   2   3
ENDBRANCH   1   2
BRANCH   1  16
ATOM     16  C   UNL     1       3.058   7.298  18.165  0.00  0.00    +0.000 C 
BRANCH  16  17
ATOM     17  C   UNL     1       2.998   6.357  19.361  0.00  0.00    +0.000 C 
BRANCH  17  18
ATOM     18  C   UNL     1       1.854   5.362  19.205  0.00  0.00    +0.000 C 
BRANCH  18  19
ATOM     19  C   UNL     1       1.351   4.920  20.571  0.00  0.00    +0.000 C 
BRANCH  19  20
ATOM     20  C   UNL     1       2.289   3.886  21.172  0.00  0.00    +0.000 C 
BRANCH  20  21
ATOM     21  C   UNL     1       2.549   2.772  20.171  0.00  0.00    +0.000 C 
BRANCH  21  22
ATOM     22  C   UNL     1       4.020   2.404  20.178  0.00  0.00    +0.000 C 
BRANCH  22  23
ATOM     23  C   UNL     1       4.750   3.121  19.054  0.00  0.00    +0.000 C 
BRANCH  23  24
ATOM     24  C   UNL     1       3.993   2.918  17.760  0.00  0.00    +0.000 C 
BRANCH  24  25
ATOM     25  C   UNL     1       4.340   3.989  16.738  0.00  0.00    +0.000 C 
BRANCH  25  26
ATOM     26  C   UNL     1       5.797   4.404  16.891  0.00  0.00    +0.000 C 
BRANCH  26  28
ATOM     27  C   UNL     1       6.876   6.551  17.594  0.00  0.00    +0.000 C 
ATOM     28  C   UNL     1       5.986   5.886  16.568  0.00  0.00    +0.000 C 
ENDBRANCH  26  28
ENDBRANCH  25  26
ENDBRANCH  24  25
ENDBRANCH  23  24
ENDBRANCH  22  23
ENDBRANCH  21  22
ENDBRANCH  20  21
ENDBRANCH  19  20
ENDBRANCH  18  19
ENDBRANCH  17  18
ENDBRANCH  16  17
ENDBRANCH   1  16
TORSDOF 20
ENDMDL
MODEL 6
REMARK VINA RESULT:      -5.5      4.724     11.252
REMARK  Name = 
REMARK  22 active torsions:
REMARK  status: ('A' for Active; 'I' for Inactive)
REMARK    1  A    between atoms: C_1  and  C_2
REMARK    2  A    between atoms: C_2  and  C_3
REMARK    3  A    between atoms: C_3  and  C_4
REMARK    4  A    between atoms: C_4  and  C_5
REMARK    5  A    between atoms: C_5  and  C_6
REMARK    6  A    between atoms: C_6  and  C_7
REMARK    7  A    between atoms: C_7  and  C_8
REMARK    8  A    between atoms: C_8  and  C_9
REMARK    9  A    between atoms: C_9  and  C_10
REMARK   10  A    between atoms: C_10  and  C_11
REMARK   11  A    between atoms: C_11  and  C_12
REMARK   12  A    between atoms: C_12  and  C_13
REMARK   13  A    between atoms: C_13  and  C_14
REMARK   14  A    between atoms: C_14  and  C_15
REMARK   15  A    between atoms: C_15  and  C_16
REMARK   16  A    between atoms: C_16  and  S_17
REMARK   17  A    between atoms: S_17  and  C_18
REMARK   18  A    between atoms: C_18  and  C_19
REMARK   19  A    between atoms: C_19  and  C_20
REMARK   20  A    between atoms: C_20  and  N_21
REMARK   21  A    between atoms: N_21  and  C_22
REMARK   22  A    between atoms: C_25  and  O_26
REMARK                            x       y       z     vdW  Elec       q    Type
REMARK                         _______ _______ _______ _____ _____    ______ ____
ROOT
ATOM      1  C   UNL     1       7.962   9.181  17.976  0.00  0.00    +0.000 C 
ENDROOT
BRANCH   1   2
ATOM      2  C   UNL     1       8.969   9.964  18.820  0.00  0.00    +0.000 C 
BRANCH   2   3
ATOM      3  C   UNL     1       9.805  10.944  17.991  0.00  0.00    +0.000 C 
BRANCH   3   4
ATOM      4  S   UNL     1       9.648  12.608  18.749  0.00  0.00    +0.000 S 
BRANCH   4   5
ATOM      5  C   UNL     1      10.203  12.271  20.446  0.00  0.00    +0.000 C 
BRANCH   5   6
ATOM      6  C   UNL     1       9.328  13.071  21.427  0.00  0.00    +0.000 C 
BRANCH   6   7
ATOM      7  C   UNL     1       8.729  12.127  22.476  0.00  0.00    +0.000 C 
BRANCH   7   8
ATOM      8  N   UNL     1       8.111  12.766  23.676  0.00  0.00    +0.000 NA
ATOM      9  C   UNL     1       8.649  14.194  23.700  0.00  0.00    +0.000 C 
ATOM     10  C   UNL     1       8.397  12.246  24.881  0.00  0.00    +0.000 C 
ATOM     11  C   UNL     1       7.354  12.508  25.760  0.00  0.00    +0.000 C 
ATOM     12  C   UNL     1       6.303  12.911  24.954  0.00  0.00    +0.000 C 
ATOM     13  C   UNL     1       6.750  12.876  23.655  0.00  0.00    +0.000 C 
BRANCH  12  14
ATOM     14  O   UNL     1       5.075  13.325  25.378  0.00  0.00    +0.000 OA
ATOM     15  H   UNL     1       5.221  14.251  25.610  0.00  0.00    +0.000 HD
ENDBRANCH  12  14
ENDBRANCH   7   8
ENDBRANCH   6   7
ENDBRANCH   5   6
ENDBRANCH   4   5
ENDBRANCH   3   4
ENDBRANCH   2   3
ENDBRANCH   1   2
BRANCH   1  16
ATOM     16  C   UNL     1       8.144   7.677  18.195  0.00  0.00    +0.000 C 
BRANCH  16  17
ATOM     17  C   UNL     1       7.343   6.873  17.177  0.00  0.00    +0.000 C 
BRANCH  17  18
ATOM     18  C   UNL     1       6.163   6.180  17.848  0.00  0.00    +0.000 C 
BRANCH  18  19
ATOM     19  C   UNL     1       4.857   6.636  17.218  0.00  0.00    +0.000 C 
BRANCH  19  20
ATOM     20  C   UNL     1       3.750   5.636  17.509  0.00  0.00    +0.000 C 
BRANCH  20  21
ATOM     21  C   UNL     1       2.733   6.245  18.461  0.00  0.00    +0.000 C 
BRANCH  21  22
ATOM     22  C   UNL     1       2.992   5.758  19.873  0.00  0.00    +0.000 C 
BRANCH  22  23
ATOM     23  C   UNL     1       1.687   5.650  20.644  0.00  0.00    +0.000 C 
BRANCH  23  24
ATOM     24  C   UNL     1       0.949   4.406  20.199  0.00  0.00    +0.000 C 
BRANCH  24  25
ATOM     25  C   UNL     1       1.321   3.203  21.052  0.00  0.00    +0.000 C 
BRANCH  25  26
ATOM     26  C   UNL     1       2.197   2.247  20.253  0.00  0.00    +0.000 C 
BRANCH  26  28
ATOM     27  C   UNL     1       2.904   1.955  17.869  0.00  0.00    +0.000 C 
ATOM     28  C   UNL     1       1.730   2.152  18.801  0.00  0.00    +0.000 C 
ENDBRANCH  26  28
ENDBRANCH  25  26
ENDBRANCH  24  25
ENDBRANCH  23  24
ENDBRANCH  22  23
ENDBRANCH  21  22
ENDBRANCH  20  21
ENDBRANCH  19  20
ENDBRANCH  18  19
ENDBRANCH  17  18
ENDBRANCH  16  17
ENDBRANCH   1  16
TORSDOF 20
ENDMDL
MODEL 7
REMARK VINA RESULT:      -5.4      4.279     11.224
REMARK  Name = 
REMARK  22 active torsions:
REMARK  status: ('A' for Active; 'I' for Inactive)
REMARK    1  A    between atoms: C_1  and  C_2
REMARK    2  A    between atoms: C_2  and  C_3
REMARK    3  A    between atoms: C_3  and  C_4
REMARK    4  A    between atoms: C_4  and  C_5
REMARK    5  A    between atoms: C_5  and  C_6
REMARK    6  A    between atoms: C_6  and  C_7
REMARK    7  A    between atoms: C_7  and  C_8
REMARK    8  A    between atoms: C_8  and  C_9
REMARK    9  A    between atoms: C_9  and  C_10
REMARK   10  A    between atoms: C_10  and  C_11
REMARK   11  A    between atoms: C_11  and  C_12
REMARK   12  A    between atoms: C_12  and  C_13
REMARK   13  A    between atoms: C_13  and  C_14
REMARK   14  A    between atoms: C_14  and  C_15
REMARK   15  A    between atoms: C_15  and  C_16
REMARK   16  A    between atoms: C_16  and  S_17
REMARK   17  A    between atoms: S_17  and  C_18
REMARK   18  A    between atoms: C_18  and  C_19
REMARK   19  A    between atoms: C_19  and  C_20
REMARK   20  A    between atoms: C_20  and  N_21
REMARK   21  A    between atoms: N_21  and  C_22
REMARK   22  A    between atoms: C_25  and  O_26
REMARK                            x       y       z     vdW  Elec       q    Type
REMARK                         _______ _______ _______ _____ _____    ______ ____
ROOT
ATOM      1  C   UNL     1       6.153   7.092  16.752  0.00  0.00    +0.000 C 
ENDROOT
BRANCH   1   2
ATOM      2  C   UNL     1       7.605   6.838  17.156  0.00  0.00    +0.000 C 
BRANCH   2   3
ATOM      3  C   UNL     1       8.028   7.642  18.390  0.00  0.00    +0.000 C 
BRANCH   3   4
ATOM      4  S   UNL     1       8.240   9.392  17.883  0.00  0.00    +0.000 S 
BRANCH   4   5
ATOM      5  C   UNL     1       9.167  10.055  19.298  0.00  0.00    +0.000 C 
BRANCH   5   6
ATOM      6  C   UNL     1      10.229  11.042  18.782  0.00  0.00    +0.000 C 
BRANCH   6   7
ATOM      7  C   UNL     1      10.473  12.135  19.828  0.00  0.00    +0.000 C 
BRANCH   7   8
ATOM      8  N   UNL     1       9.851  13.467  19.561  0.00  0.00    +0.000 NA
ATOM      9  C   UNL     1      10.957  14.490  19.810  0.00  0.00    +0.000 C 
ATOM     10  C   UNL     1       8.821  13.844  20.336  0.00  0.00    +0.000 C 
ATOM     11  C   UNL     1       8.011  14.729  19.635  0.00  0.00    +0.000 C 
ATOM     12  C   UNL     1       8.412  14.607  18.316  0.00  0.00    +0.000 C 
ATOM     13  C   UNL     1       9.424  13.678  18.282  0.00  0.00    +0.000 C 
BRANCH  12  14
ATOM     14  O   UNL     1       7.934  15.323  17.258  0.00  0.00    +0.000 OA
ATOM     15  H   UNL     1       8.137  16.237  17.499  0.00  0.00    +0.000 HD
ENDBRANCH  12  14
ENDBRANCH   7   8
ENDBRANCH   6   7
ENDBRANCH   5   6
ENDBRANCH   4   5
ENDBRANCH   3   4
ENDBRANCH   2   3
ENDBRANCH   1   2
BRANCH   1  16
ATOM     16  C   UNL     1       5.201   6.422  17.745  0.00  0.00    +0.000 C 
BRANCH  16  17
ATOM     17  C   UNL     1       5.168   4.912  17.543  0.00  0.00    +0.000 C 
BRANCH  17  18
ATOM     18  C   UNL     1       5.522   4.188  18.836  0.00  0.00    +0.000 C 
BRANCH  18  19
ATOM     19  C   UNL     1       4.527   3.069  19.102  0.00  0.00    +0.000 C 
BRANCH  19  20
ATOM     20  C   UNL     1       3.654   2.835  17.880  0.00  0.00    +0.000 C 
BRANCH  20  21
ATOM     21  C   UNL     1       2.535   1.862  18.217  0.00  0.00    +0.000 C 
BRANCH  21  22
ATOM     22  C   UNL     1       1.278   2.626  18.582  0.00  0.00    +0.000 C 
BRANCH  22  23
ATOM     23  C   UNL     1       1.175   2.787  20.089  0.00  0.00    +0.000 C 
BRANCH  23  24
ATOM     24  C   UNL     1       0.805   4.218  20.412  0.00  0.00    +0.000 C 
BRANCH  24  25
ATOM     25  C   UNL     1       2.039   5.096  20.552  0.00  0.00    +0.000 C 
BRANCH  25  26
ATOM     26  C   UNL     1       2.172   6.008  19.339  0.00  0.00    +0.000 C 
BRANCH  26  28
ATOM     27  C   UNL     1       2.127   8.378  18.533  0.00  0.00    +0.000 C 
ATOM     28  C   UNL     1       2.136   7.480  19.749  0.00  0.00    +0.000 C 
ENDBRANCH  26  28
ENDBRANCH  25  26
ENDBRANCH  24  25
ENDBRANCH  23  24
ENDBRANCH  22  23
ENDBRANCH  21  22
ENDBRANCH  20  21
ENDBRANCH  19  20
ENDBRANCH  18  19
ENDBRANCH  17  18
ENDBRANCH  16  17
ENDBRANCH   1  16
TORSDOF 20
ENDMDL
MODEL 8
REMARK VINA RESULT:      -5.4      4.411      7.095
REMARK  Name = 
REMARK  22 active torsions:
REMARK  status: ('A' for Active; 'I' for Inactive)
REMARK    1  A    between atoms: C_1  and  C_2
REMARK    2  A    between atoms: C_2  and  C_3
REMARK    3  A    between atoms: C_3  and  C_4
REMARK    4  A    between atoms: C_4  and  C_5
REMARK    5  A    between atoms: C_5  and  C_6
REMARK    6  A    between atoms: C_6  and  C_7
REMARK    7  A    between atoms: C_7  and  C_8
REMARK    8  A    between atoms: C_8  and  C_9
REMARK    9  A    between atoms: C_9  and  C_10
REMARK   10  A    between atoms: C_10  and  C_11
REMARK   11  A    between atoms: C_11  and  C_12
REMARK   12  A    between atoms: C_12  and  C_13
REMARK   13  A    between atoms: C_13  and  C_14
REMARK   14  A    between atoms: C_14  and  C_15
REMARK   15  A    between atoms: C_15  and  C_16
REMARK   16  A    between atoms: C_16  and  S_17
REMARK   17  A    between atoms: S_17  and  C_18
REMARK   18  A    between atoms: C_18  and  C_19
REMARK   19  A    between atoms: C_19  and  C_20
REMARK   20  A    between atoms: C_20  and  N_21
REMARK   21  A    between atoms: N_21  and  C_22
REMARK   22  A    between atoms: C_25  and  O_26
REMARK                            x       y       z     vdW  Elec       q    Type
REMARK                         _______ _______ _______ _____ _____    ______ ____
ROOT
ATOM      1  C   UNL     1       1.480   3.285  21.194  0.00  0.00    +0.000 C 
ENDROOT
BRANCH   1   2
ATOM      2  C   UNL     1       1.408   2.761  19.759  0.00  0.00    +0.000 C 
BRANCH   2   3
ATOM      3  C   UNL     1       2.446   1.672  19.470  0.00  0.00    +0.000 C 
BRANCH   3   4
ATOM      4  S   UNL     1       3.338   2.131  17.934  0.00  0.00    +0.000 S 
BRANCH   4   5
ATOM      5  C   UNL     1       2.294   3.482  17.315  0.00  0.00    +0.000 C 
BRANCH   5   6
ATOM      6  C   UNL     1       3.032   4.817  17.516  0.00  0.00    +0.000 C 
BRANCH   6   7
ATOM      7  C   UNL     1       4.440   4.726  16.917  0.00  0.00    +0.000 C 
BRANCH   7   8
ATOM      8  N   UNL     1       5.510   5.517  17.598  0.00  0.00    +0.000 NA
ATOM      9  C   UNL     1       4.968   6.941  17.689  0.00  0.00    +0.000 C 
ATOM     10  C   UNL     1       6.702   5.615  16.988  0.00  0.00    +0.000 C 
ATOM     11  C   UNL     1       7.696   5.816  17.937  0.00  0.00    +0.000 C 
ATOM     12  C   UNL     1       7.098   5.506  19.147  0.00  0.00    +0.000 C 
ATOM     13  C   UNL     1       5.800   5.142  18.878  0.00  0.00    +0.000 C 
BRANCH  12  14
ATOM     14  O   UNL     1       7.674   5.605  20.379  0.00  0.00    +0.000 OA
ATOM     15  H   UNL     1       7.251   6.386  20.760  0.00  0.00    +0.000 HD
ENDBRANCH  12  14
ENDBRANCH   7   8
ENDBRANCH   6   7
ENDBRANCH   5   6
ENDBRANCH   4   5
ENDBRANCH   3   4
ENDBRANCH   2   3
ENDBRANCH   1   2
BRANCH   1  16
ATOM     16  C   UNL     1       2.137   4.666  21.221  0.00  0.00    +0.000 C 
BRANCH  16  17
ATOM     17  C   UNL     1       1.253   5.709  20.549  0.00  0.00    +0.000 C 
BRANCH  17  18
ATOM     18  C   UNL     1       2.008   7.021  20.373  0.00  0.00    +0.000 C 
BRANCH  18  19
ATOM     19  C   UNL     1       1.269   8.152  21.071  0.00  0.00    +0.000 C 
BRANCH  19  20
ATOM     20  C   UNL     1       0.981   9.280  20.093  0.00  0.00    +0.000 C 
BRANCH  20  21
ATOM     21  C   UNL     1       1.499   8.918  18.711  0.00  0.00    +0.000 C 
BRANCH  21  22
ATOM     22  C   UNL     1       2.012  10.160  18.010  0.00  0.00    +0.000 C 
BRANCH  22  23
ATOM     23  C   UNL     1       1.408  11.407  18.633  0.00  0.00    +0.000 C 
BRANCH  23  24
ATOM     24  C   UNL     1       2.383  12.556  18.491  0.00  0.00    +0.000 C 
BRANCH  24  25
ATOM     25  C   UNL     1       2.359  13.461  19.713  0.00  0.00    +0.000 C 
BRANCH  25  26
ATOM     26  C   UNL     1       3.109  14.755  19.419  0.00  0.00    +0.000 C 
BRANCH  26  28
ATOM     27  C   UNL     1       4.985  14.992  17.778  0.00  0.00    +0.000 C 
ATOM     28  C   UNL     1       3.489  14.850  17.942  0.00  0.00    +0.000 C 
ENDBRANCH  26  28
ENDBRANCH  25  26
ENDBRANCH  24  25
ENDBRANCH  23  24
ENDBRANCH  22  23
ENDBRANCH  21  22
ENDBRANCH  20  21
ENDBRANCH  19  20
ENDBRANCH  18  19
ENDBRANCH  17  18
ENDBRANCH  16  17
ENDBRANCH   1  16
TORSDOF 20
ENDMDL
MODEL 9
REMARK VINA RESULT:      -5.4      6.118      9.111
REMARK  Name = 
REMARK  22 active torsions:
REMARK  status: ('A' for Active; 'I' for Inactive)
REMARK    1  A    between atoms: C_1  and  C_2
REMARK    2  A    between atoms: C_2  and  C_3
REMARK    3  A    between atoms: C_3  and  C_4
REMARK    4  A    between atoms: C_4  and  C_5
REMARK    5  A    between atoms: C_5  and  C_6
REMARK    6  A    between atoms: C_6  and  C_7
REMARK    7  A    between atoms: C_7  and  C_8
REMARK    8  A    between atoms: C_8  and  C_9
REMARK    9  A    between atoms: C_9  and  C_10
REMARK   10  A    between atoms: C_10  and  C_11
REMARK   11  A    between atoms: C_11  and  C_12
REMARK   12  A    between atoms: C_12  and  C_13
REMARK   13  A    between atoms: C_13  and  C_14
REMARK   14  A    between atoms: C_14  and  C_15
REMARK   15  A    between atoms: C_15  and  C_16
REMARK   16  A    between atoms: C_16  and  S_17
REMARK   17  A    between atoms: S_17  and  C_18
REMARK   18  A    between atoms: C_18  and  C_19
REMARK   19  A    between atoms: C_19  and  C_20
REMARK   20  A    between atoms: C_20  and  N_21
REMARK   21  A    between atoms: N_21  and  C_22
REMARK   22  A    between atoms: C_25  and  O_26
REMARK                            x       y       z     vdW  Elec       q    Type
REMARK                         _______ _______ _______ _____ _____    ______ ____
ROOT
ATOM      1  C   UNL     1       1.845   5.366  19.821  0.00  0.00    +0.000 C 
ENDROOT
BRANCH   1   2
ATOM      2  C   UNL     1       1.172   4.029  19.508  0.00  0.00    +0.000 C 
BRANCH   2   3
ATOM      3  C   UNL     1       1.507   3.507  18.107  0.00  0.00    +0.000 C 
BRANCH   3   4
ATOM      4  S   UNL     1       2.759   2.177  18.281  0.00  0.00    +0.000 S 
BRANCH   4   5
ATOM      5  C   UNL     1       3.591   2.680  19.815  0.00  0.00    +0.000 C 
BRANCH   5   6
ATOM      6  C   UNL     1       4.884   3.435  19.460  0.00  0.00    +0.000 C 
BRANCH   6   7
ATOM      7  C   UNL     1       5.089   3.424  17.941  0.00  0.00    +0.000 C 
BRANCH   7   8
ATOM      8  N   UNL     1       5.650   4.668  17.332  0.00  0.00    +0.000 NA
ATOM      9  C   UNL     1       7.088   4.324  16.953  0.00  0.00    +0.000 C 
ATOM     10  C   UNL     1       5.725   5.764  18.104  0.00  0.00    +0.000 C 
ATOM     11  C   UNL     1       5.672   6.900  17.305  0.00  0.00    +0.000 C 
ATOM     12  C   UNL     1       5.232   6.446  16.073  0.00  0.00    +0.000 C 
ATOM     13  C   UNL     1       5.048   5.089  16.182  0.00  0.00    +0.000 C 
BRANCH  12  14
ATOM     14  O   UNL     1       5.075   7.198  14.946  0.00  0.00    +0.000 OA
ATOM     15  H   UNL     1       5.958   7.202  14.556  0.00  0.00    +0.000 HD
ENDBRANCH  12  14
ENDBRANCH   7   8
ENDBRANCH   6   7
ENDBRANCH   5   6
ENDBRANCH   4   5
ENDBRANCH   3   4
ENDBRANCH   2   3
ENDBRANCH   1   2
BRANCH   1  16
ATOM     16  C   UNL     1       2.164   6.115  18.526  0.00  0.00    +0.000 C 
BRANCH  16  17
ATOM     17  C   UNL     1       2.584   7.551  18.811  0.00  0.00    +0.000 C 
BRANCH  17  18
ATOM     18  C   UNL     1       2.264   8.451  17.623  0.00  0.00    +0.000 C 
BRANCH  18  19
ATOM     19  C   UNL     1       1.061   9.327  17.934  0.00  0.00    +0.000 C 
BRANCH  19  20
ATOM     20  C   UNL     1       1.375  10.270  19.085  0.00  0.00    +0.000 C 
BRANCH  20  21
ATOM     21  C   UNL     1       0.523   9.919  20.294  0.00  0.00    +0.000 C 
BRANCH  21  22
ATOM     22  C   UNL     1      -0.878  10.469  20.115  0.00  0.00    +0.000 C 
BRANCH  22  23
ATOM     23  C   UNL     1      -0.845  11.986  20.030  0.00  0.00    +0.000 C 
BRANCH  23  24
ATOM     24  C   UNL     1      -1.951  12.456  19.111  0.00  0.00    +0.000 C 
BRANCH  24  25
ATOM     25  C   UNL     1      -1.849  11.808  17.739  0.00  0.00    +0.000 C 
BRANCH  25  26
ATOM     26  C   UNL     1      -3.179  11.169  17.363  0.00  0.00    +0.000 C 
BRANCH  26  28
ATOM     27  C   UNL     1      -3.027  10.154  15.079  0.00  0.00    +0.000 C 
ATOM     28  C   UNL     1      -2.968   9.882  16.565  0.00  0.00    +0.000 C 
ENDBRANCH  26  28
ENDBRANCH  25  26
ENDBRANCH  24  25
ENDBRANCH  23  24
ENDBRANCH  22  23
ENDBRANCH  21  22
ENDBRANCH  20  21
ENDBRANCH  19  20
ENDBRANCH  18  19
ENDBRANCH  17  18
ENDBRANCH  16  17
ENDBRANCH   1  16
TORSDOF 20
ENDMDL
