MODEL 1
REMARK VINA RESULT:      -7.4      0.000      0.000
REMARK  Name = 
REMARK  9 active torsions:
REMARK  status: ('A' for Active; 'I' for Inactive)
REMARK    1  A    between atoms: C_1  and  C_2
REMARK    2  A    between atoms: C_2  and  N_3
REMARK    3  A    between atoms: C_5  and  C_6
REMARK    4  A    between atoms: N_8  and  CA_9
REMARK    5  A    between atoms: CA_9  and  C_10
REMARK    6  A    between atoms: CA_9  and  CB_13
REMARK    7  A    between atoms: C_10  and  OXT_12
REMARK    8  A    between atoms: CB_13  and  CG1_14
REMARK    9  A    between atoms: CB_13  and  CG2_15
REMARK                            x       y       z     vdW  Elec       q    Type
REMARK                         _______ _______ _______ _____ _____    ______ ____
ROOT
ATOM      1  N   UNK A   0       2.751   5.923  19.674  0.00  0.00    +0.000 N 
ATOM      2  C   UNK A   0       1.961   7.042  19.908  0.00  0.00    +0.000 A 
ATOM      3  C   UNK A   0       1.909   8.164  19.173  0.00  0.00    +0.000 A 
ATOM      4  C   UNK A   0       2.760   8.200  17.958  0.00  0.00    +0.000 A 
ATOM      5  O   UNK A   0       2.747   9.175  17.210  0.00  0.00    +0.000 OA
ATOM      6  C   UNK A   0       3.649   7.031  17.683  0.00  0.00    +0.000 A 
ATOM      7  C   UNK A   0       4.481   7.060  16.548  0.00  0.00    +0.000 A 
ATOM      8  C   UNK A   0       5.337   5.998  16.353  0.00  0.00    +0.000 A 
ATOM      9  C   UNK A   0       5.388   4.951  17.235  0.00  0.00    +0.000 A 
ATOM     10  C   UNK A   0       4.567   4.886  18.343  0.00  0.00    +0.000 A 
ATOM     11  C   UNK A   0       3.653   5.928  18.585  0.00  0.00    +0.000 A 
ATOM     12  O   UNK A   0       6.315   4.016  16.891  0.00  0.00    +0.000 OA
ATOM     13  C   UNK A   0       6.834   4.587  15.672  0.00  0.00    +0.000 C 
ATOM     14  O   UNK A   0       6.215   5.846  15.326  0.00  0.00    +0.000 OA
ENDROOT
BRANCH   3  15
ATOM     15  C   UNK A   0       1.035   9.280  19.648  0.00  0.00    +0.000 C 
ATOM     16  O   UNK A   0       0.459   9.249  20.737  0.00  0.00    +0.000 OA
ATOM     17  N   VAL A   1       0.859  10.350  18.811  0.00  0.00    +0.000 N 
ATOM     18  H   VAL A   1       1.229  10.274  17.862  0.00  0.00    +0.000 HD
BRANCH  17  19
ATOM     19  CA  VAL A   1       0.127  11.573  19.202  0.00  0.00    +0.000 C 
BRANCH  19  20
ATOM     20  CB  VAL A   1       1.034  12.829  19.152  0.00  0.00    +0.000 C 
ATOM     21  CG1 VAL A   1       1.437  13.374  20.525  0.00  0.00    +0.000 C 
ATOM     22  CG2 VAL A   1       2.285  12.611  18.288  0.00  0.00    +0.000 C 
ENDBRANCH  19  20
BRANCH  19  23
ATOM     23  C   VAL A   1      -1.218  11.704  18.441  0.00  0.00    +0.000 C 
ATOM     24  O   VAL A   1      -2.186  10.970  18.570  0.00  0.00    +0.000 OA
BRANCH  23  25
ATOM     25  OXT VAL A   1      -1.200  12.676  17.490  0.00  0.00    +0.000 OA
ATOM     26  HXT VAL A   1      -1.498  13.551  17.838  0.00  0.00    +0.000 HD
ENDBRANCH  23  25
ENDBRANCH  19  23
ENDBRANCH  17  19
ENDBRANCH   3  15
BRANCH   1  28
ATOM     27  C   UNK A   0       1.330   4.149  20.635  0.00  0.00    +0.000 C 
ATOM     28  C   UNK A   0       2.721   4.767  20.589  0.00  0.00    +0.000 C 
ENDBRANCH   1  28
TORSDOF 6
ENDMDL
MODEL 2
REMARK VINA RESULT:      -7.4      2.842      8.216
REMARK  Name = 
REMARK  9 active torsions:
REMARK  status: ('A' for Active; 'I' for Inactive)
REMARK    1  A    between atoms: C_1  and  C_2
REMARK    2  A    between atoms: C_2  and  N_3
REMARK    3  A    between atoms: C_5  and  C_6
REMARK    4  A    between atoms: N_8  and  CA_9
REMARK    5  A    between atoms: CA_9  and  C_10
REMARK    6  A    between atoms: CA_9  and  CB_13
REMARK    7  A    between atoms: C_10  and  OXT_12
REMARK    8  A    between atoms: CB_13  and  CG1_14
REMARK    9  A    between atoms: CB_13  and  CG2_15
REMARK                            x       y       z     vdW  Elec       q    Type
REMARK                         _______ _______ _______ _____ _____    ______ ____
ROOT
ATOM      1  N   UNK A   0       4.485   4.375  18.679  0.00  0.00    +0.000 N 
ATOM      2  C   UNK A   0       5.312   4.145  17.586  0.00  0.00    +0.000 A 
ATOM      3  C   UNK A   0       5.536   4.972  16.553  0.00  0.00    +0.000 A 
ATOM      4  C   UNK A   0       4.857   6.291  16.600  0.00  0.00    +0.000 A 
ATOM      5  O   UNK A   0       5.034   7.121  15.712  0.00  0.00    +0.000 OA
ATOM      6  C   UNK A   0       3.934   6.570  17.742  0.00  0.00    +0.000 A 
ATOM      7  C   UNK A   0       3.263   7.806  17.789  0.00  0.00    +0.000 A 
ATOM      8  C   UNK A   0       2.370   8.012  18.818  0.00  0.00    +0.000 A 
ATOM      9  C   UNK A   0       2.132   7.048  19.761  0.00  0.00    +0.000 A 
ATOM     10  C   UNK A   0       2.794   5.836  19.752  0.00  0.00    +0.000 A 
ATOM     11  C   UNK A   0       3.737   5.574  18.741  0.00  0.00    +0.000 A 
ATOM     12  O   UNK A   0       1.197   7.423  20.675  0.00  0.00    +0.000 OA
ATOM     13  C   UNK A   0       0.884   8.752  20.211  0.00  0.00    +0.000 C 
ATOM     14  O   UNK A   0       1.627   9.131  19.030  0.00  0.00    +0.000 OA
ENDROOT
BRANCH   3  15
ATOM     15  C   UNK A   0       6.413   4.492  15.442  0.00  0.00    +0.000 C 
ATOM     16  O   UNK A   0       7.619   4.287  15.594  0.00  0.00    +0.000 OA
ATOM     17  N   VAL A   1       5.839   4.312  14.211  0.00  0.00    +0.000 N 
ATOM     18  H   VAL A   1       4.877   4.633  14.087  0.00  0.00    +0.000 HD
BRANCH  17  19
ATOM     19  CA  VAL A   1       6.557   3.725  13.060  0.00  0.00    +0.000 C 
BRANCH  19  20
ATOM     20  CB  VAL A   1       5.649   2.772  12.241  0.00  0.00    +0.000 C 
ATOM     21  CG1 VAL A   1       4.484   3.465  11.528  0.00  0.00    +0.000 C 
ATOM     22  CG2 VAL A   1       6.447   1.925  11.238  0.00  0.00    +0.000 C 
ENDBRANCH  19  20
BRANCH  19  23
ATOM     23  C   VAL A   1       7.290   4.809  12.228  0.00  0.00    +0.000 C 
ATOM     24  O   VAL A   1       7.286   4.899  11.010  0.00  0.00    +0.000 OA
BRANCH  23  25
ATOM     25  OXT VAL A   1       8.068   5.627  12.987  0.00  0.00    +0.000 OA
ATOM     26  HXT VAL A   1       7.709   6.544  13.046  0.00  0.00    +0.000 HD
ENDBRANCH  23  25
ENDBRANCH  19  23
ENDBRANCH  17  19
ENDBRANCH   3  15
BRANCH   1  28
ATOM     27  C   UNK A   0       3.714   2.081  19.159  0.00  0.00    +0.000 C 
ATOM     28  C   UNK A   0       4.316   3.357  19.732  0.00  0.00    +0.000 C 
ENDBRANCH   1  28
TORSDOF 6
ENDMDL
MODEL 3
REMARK VINA RESULT:      -7.3      0.939      1.193
REMARK  Name = 
REMARK  9 active torsions:
REMARK  status: ('A' for Active; 'I' for Inactive)
REMARK    1  A    between atoms: C_1  and  C_2
REMARK    2  A    between atoms: C_2  and  N_3
REMARK    3  A    between atoms: C_5  and  C_6
REMARK    4  A    between atoms: N_8  and  CA_9
REMARK    5  A    between atoms: CA_9  and  C_10
REMARK    6  A    between atoms: CA_9  and  CB_13
REMARK    7  A    between atoms: C_10  and  OXT_12
REMARK    8  A    between atoms: CB_13  and  CG1_14
REMARK    9  A    between atoms: CB_13  and  CG2_15
REMARK                            x       y       z     vdW  Elec       q    Type
REMARK                         _______ _______ _______ _____ _____    ______ ____
ROOT
ATOM      1  N   UNK A   0       2.976   5.140  19.328  0.00  0.00    +0.000 N 
ATOM      2  C   UNK A   0       2.257   6.226  19.811  0.00  0.00    +0.000 A 
ATOM      3  C   UNK A   0       2.208   7.462  19.289  0.00  0.00    +0.000 A 
ATOM      4  C   UNK A   0       2.976   7.682  18.037  0.00  0.00    +0.000 A 
ATOM      5  O   UNK A   0       2.958   8.774  17.474  0.00  0.00    +0.000 OA
ATOM      6  C   UNK A   0       3.788   6.550  17.498  0.00  0.00    +0.000 A 
ATOM      7  C   UNK A   0       4.541   6.749  16.326  0.00  0.00    +0.000 A 
ATOM      8  C   UNK A   0       5.330   5.709  15.886  0.00  0.00    +0.000 A 
ATOM      9  C   UNK A   0       5.392   4.522  16.566  0.00  0.00    +0.000 A 
ATOM     10  C   UNK A   0       4.646   4.291  17.705  0.00  0.00    +0.000 A 
ATOM     11  C   UNK A   0       3.800   5.305  18.192  0.00  0.00    +0.000 A 
ATOM     12  O   UNK A   0       6.247   3.631  15.997  0.00  0.00    +0.000 OA
ATOM     13  C   UNK A   0       6.708   4.389  14.859  0.00  0.00    +0.000 C 
ATOM     14  O   UNK A   0       6.128   5.711  14.785  0.00  0.00    +0.000 OA
ENDROOT
BRANCH   3  15
ATOM     15  C   UNK A   0       1.423   8.506  20.015  0.00  0.00    +0.000 C 
ATOM     16  O   UNK A   0       1.300   8.506  21.240  0.00  0.00    +0.000 OA
ATOM     17  N   VAL A   1       0.801   9.469  19.265  0.00  0.00    +0.000 N 
ATOM     18  H   VAL A   1       0.801   9.352  18.250  0.00  0.00    +0.000 HD
BRANCH  17  19
ATOM     19  CA  VAL A   1       0.098  10.628  19.855  0.00  0.00    +0.000 C 
BRANCH  19  20
ATOM     20  CB  VAL A   1       1.084  11.755  20.256  0.00  0.00    +0.000 C 
ATOM     21  CG1 VAL A   1       1.742  12.471  19.073  0.00  0.00    +0.000 C 
ATOM     22  CG2 VAL A   1       0.442  12.784  21.199  0.00  0.00    +0.000 C 
ENDBRANCH  19  20
BRANCH  19  23
ATOM     23  C   VAL A   1      -1.097  11.082  18.977  0.00  0.00    +0.000 C 
ATOM     24  O   VAL A   1      -2.130  11.589  19.386  0.00  0.00    +0.000 OA
BRANCH  23  25
ATOM     25  OXT VAL A   1      -0.949  10.756  17.666  0.00  0.00    +0.000 OA
ATOM     26  HXT VAL A   1      -1.487   9.969  17.409  0.00  0.00    +0.000 HD
ENDBRANCH  23  25
ENDBRANCH  19  23
ENDBRANCH  17  19
ENDBRANCH   3  15
BRANCH   1  28
ATOM     27  C   UNK A   0       1.981   3.875  21.199  0.00  0.00    +0.000 C 
ATOM     28  C   UNK A   0       2.953   3.842  20.028  0.00  0.00    +0.000 C 
ENDBRANCH   1  28
TORSDOF 6
ENDMDL
MODEL 4
REMARK VINA RESULT:      -7.2      2.231      2.666
REMARK  Name = 
REMARK  9 active torsions:
REMARK  status: ('A' for Active; 'I' for Inactive)
REMARK    1  A    between atoms: C_1  and  C_2
REMARK    2  A    between atoms: C_2  and  N_3
REMARK    3  A    between atoms: C_5  and  C_6
REMARK    4  A    between atoms: N_8  and  CA_9
REMARK    5  A    between atoms: CA_9  and  C_10
REMARK    6  A    between atoms: CA_9  and  CB_13
REMARK    7  A    between atoms: C_10  and  OXT_12
REMARK    8  A    between atoms: CB_13  and  CG1_14
REMARK    9  A    between atoms: CB_13  and  CG2_15
REMARK                            x       y       z     vdW  Elec       q    Type
REMARK                         _______ _______ _______ _____ _____    ______ ____
ROOT
ATOM      1  N   UNK A   0       3.168   4.603  19.394  0.00  0.00    +0.000 N 
ATOM      2  C   UNK A   0       2.398   5.577  20.019  0.00  0.00    +0.000 A 
ATOM      3  C   UNK A   0       2.257   6.859  19.647  0.00  0.00    +0.000 A 
ATOM      4  C   UNK A   0       2.970   7.273  18.412  0.00  0.00    +0.000 A 
ATOM      5  O   UNK A   0       2.867   8.418  17.981  0.00  0.00    +0.000 OA
ATOM      6  C   UNK A   0       3.833   6.266  17.724  0.00  0.00    +0.000 A 
ATOM      7  C   UNK A   0       4.535   6.648  16.566  0.00  0.00    +0.000 A 
ATOM      8  C   UNK A   0       5.374   5.720  15.988  0.00  0.00    +0.000 A 
ATOM      9  C   UNK A   0       5.530   4.468  16.522  0.00  0.00    +0.000 A 
ATOM     10  C   UNK A   0       4.836   4.059  17.643  0.00  0.00    +0.000 A 
ATOM     11  C   UNK A   0       3.944   4.953  18.266  0.00  0.00    +0.000 A 
ATOM     12  O   UNK A   0       6.421   3.708  15.831  0.00  0.00    +0.000 OA
ATOM     13  C   UNK A   0       6.798   4.621  14.780  0.00  0.00    +0.000 C 
ATOM     14  O   UNK A   0       6.135   5.901  14.876  0.00  0.00    +0.000 OA
ENDROOT
BRANCH   3  15
ATOM     15  C   UNK A   0       1.431   7.758  20.509  0.00  0.00    +0.000 C 
ATOM     16  O   UNK A   0       0.644   7.325  21.352  0.00  0.00    +0.000 OA
ATOM     17  N   VAL A   1       1.549   9.109  20.314  0.00  0.00    +0.000 N 
ATOM     18  H   VAL A   1       2.095   9.425  19.511  0.00  0.00    +0.000 HD
BRANCH  17  19
ATOM     19  CA  VAL A   1       0.890  10.113  21.176  0.00  0.00    +0.000 C 
BRANCH  19  20
ATOM     20  CB  VAL A   1      -0.545  10.438  20.688  0.00  0.00    +0.000 C 
ATOM     21  CG1 VAL A   1      -1.047  11.831  21.079  0.00  0.00    +0.000 C 
ATOM     22  CG2 VAL A   1      -0.709  10.228  19.175  0.00  0.00    +0.000 C 
ENDBRANCH  19  20
BRANCH  19  23
ATOM     23  C   VAL A   1       1.004   9.744  22.678  0.00  0.00    +0.000 C 
ATOM     24  O   VAL A   1       0.115   9.849  23.509  0.00  0.00    +0.000 OA
BRANCH  23  25
ATOM     25  OXT VAL A   1       2.263   9.382  23.043  0.00  0.00    +0.000 OA
ATOM     26  HXT VAL A   1       2.559   8.547  22.607  0.00  0.00    +0.000 HD
ENDBRANCH  23  25
ENDBRANCH  19  23
ENDBRANCH  17  19
ENDBRANCH   3  15
BRANCH   1  28
ATOM     27  C   UNK A   0       2.254   3.044  21.075  0.00  0.00    +0.000 C 
ATOM     28  C   UNK A   0       3.247   3.234  19.937  0.00  0.00    +0.000 C 
ENDBRANCH   1  28
TORSDOF 6
ENDMDL
MODEL 5
REMARK VINA RESULT:      -7.1      1.847      2.310
REMARK  Name = 
REMARK  9 active torsions:
REMARK  status: ('A' for Active; 'I' for Inactive)
REMARK    1  A    between atoms: C_1  and  C_2
REMARK    2  A    between atoms: C_2  and  N_3
REMARK    3  A    between atoms: C_5  and  C_6
REMARK    4  A    between atoms: N_8  and  CA_9
REMARK    5  A    between atoms: CA_9  and  C_10
REMARK    6  A    between atoms: CA_9  and  CB_13
REMARK    7  A    between atoms: C_10  and  OXT_12
REMARK    8  A    between atoms: CB_13  and  CG1_14
REMARK    9  A    between atoms: CB_13  and  CG2_15
REMARK                            x       y       z     vdW  Elec       q    Type
REMARK                         _______ _______ _______ _____ _____    ______ ____
ROOT
ATOM      1  N   UNK A   0       2.397   6.294  19.877  0.00  0.00    +0.000 N 
ATOM      2  C   UNK A   0       1.576   7.411  19.978  0.00  0.00    +0.000 A 
ATOM      3  C   UNK A   0       1.562   8.481  19.167  0.00  0.00    +0.000 A 
ATOM      4  C   UNK A   0       2.499   8.453  18.016  0.00  0.00    +0.000 A 
ATOM      5  O   UNK A   0       2.526   9.375  17.206  0.00  0.00    +0.000 OA
ATOM      6  C   UNK A   0       3.422   7.285  17.886  0.00  0.00    +0.000 A 
ATOM      7  C   UNK A   0       4.334   7.254  16.814  0.00  0.00    +0.000 A 
ATOM      8  C   UNK A   0       5.217   6.198  16.753  0.00  0.00    +0.000 A 
ATOM      9  C   UNK A   0       5.219   5.213  17.705  0.00  0.00    +0.000 A 
ATOM     10  C   UNK A   0       4.320   5.206  18.753  0.00  0.00    +0.000 A 
ATOM     11  C   UNK A   0       3.376   6.244  18.858  0.00  0.00    +0.000 A 
ATOM     12  O   UNK A   0       6.181   4.276  17.492  0.00  0.00    +0.000 OA
ATOM     13  C   UNK A   0       6.779   4.774  16.278  0.00  0.00    +0.000 C 
ATOM     14  O   UNK A   0       6.170   5.995  15.804  0.00  0.00    +0.000 OA
ENDROOT
BRANCH   3  15
ATOM     15  C   UNK A   0       0.640   9.608  19.502  0.00  0.00    +0.000 C 
ATOM     16  O   UNK A   0      -0.258   9.975  18.742  0.00  0.00    +0.000 OA
ATOM     17  N   VAL A   1       0.841  10.263  20.689  0.00  0.00    +0.000 N 
ATOM     18  H   VAL A   1       1.682  10.030  21.220  0.00  0.00    +0.000 HD
BRANCH  17  19
ATOM     19  CA  VAL A   1      -0.068  11.309  21.202  0.00  0.00    +0.000 C 
BRANCH  19  20
ATOM     20  CB  VAL A   1      -0.491  11.037  22.668  0.00  0.00    +0.000 C 
ATOM     21  CG1 VAL A   1      -1.866  11.596  23.045  0.00  0.00    +0.000 C 
ATOM     22  CG2 VAL A   1      -0.414   9.546  23.031  0.00  0.00    +0.000 C 
ENDBRANCH  19  20
BRANCH  19  23
ATOM     23  C   VAL A   1       0.485  12.732  20.931  0.00  0.00    +0.000 C 
ATOM     24  O   VAL A   1       1.219  13.366  21.674  0.00  0.00    +0.000 OA
BRANCH  23  25
ATOM     25  OXT VAL A   1      -0.023  13.296  19.803  0.00  0.00    +0.000 OA
ATOM     26  HXT VAL A   1       0.101  12.727  19.007  0.00  0.00    +0.000 HD
ENDBRANCH  23  25
ENDBRANCH  19  23
ENDBRANCH  17  19
ENDBRANCH   3  15
BRANCH   1  28
ATOM     27  C   UNK A   0       1.180   4.247  20.522  0.00  0.00    +0.000 C 
ATOM     28  C   UNK A   0       2.317   5.200  20.863  0.00  0.00    +0.000 C 
ENDBRANCH   1  28
TORSDOF 6
ENDMDL
MODEL 6
REMARK VINA RESULT:      -7.1      3.187      8.192
REMARK  Name = 
REMARK  9 active torsions:
REMARK  status: ('A' for Active; 'I' for Inactive)
REMARK    1  A    between atoms: C_1  and  C_2
REMARK    2  A    between atoms: C_2  and  N_3
REMARK    3  A    between atoms: C_5  and  C_6
REMARK    4  A    between atoms: N_8  and  CA_9
REMARK    5  A    between atoms: CA_9  and  C_10
REMARK    6  A    between atoms: CA_9  and  CB_13
REMARK    7  A    between atoms: C_10  and  OXT_12
REMARK    8  A    between atoms: CB_13  and  CG1_14
REMARK    9  A    between atoms: CB_13  and  CG2_15
REMARK                            x       y       z     vdW  Elec       q    Type
REMARK                         _______ _______ _______ _____ _____    ______ ____
ROOT
ATOM      1  N   UNK A   0       4.426   3.868  18.514  0.00  0.00    +0.000 N 
ATOM      2  C   UNK A   0       5.320   3.812  17.451  0.00  0.00    +0.000 A 
ATOM      3  C   UNK A   0       5.642   4.808  16.611  0.00  0.00    +0.000 A 
ATOM      4  C   UNK A   0       5.004   6.124  16.867  0.00  0.00    +0.000 A 
ATOM      5  O   UNK A   0       5.269   7.098  16.168  0.00  0.00    +0.000 OA
ATOM      6  C   UNK A   0       4.013   6.223  17.981  0.00  0.00    +0.000 A 
ATOM      7  C   UNK A   0       3.380   7.457  18.223  0.00  0.00    +0.000 A 
ATOM      8  C   UNK A   0       2.424   7.505  19.214  0.00  0.00    +0.000 A 
ATOM      9  C   UNK A   0       2.090   6.391  19.938  0.00  0.00    +0.000 A 
ATOM     10  C   UNK A   0       2.712   5.175  19.739  0.00  0.00    +0.000 A 
ATOM     11  C   UNK A   0       3.715   5.066  18.757  0.00  0.00    +0.000 A 
ATOM     12  O   UNK A   0       1.107   6.628  20.847  0.00  0.00    +0.000 OA
ATOM     13  C   UNK A   0       0.869   8.034  20.627  0.00  0.00    +0.000 C 
ATOM     14  O   UNK A   0       1.704   8.595  19.590  0.00  0.00    +0.000 OA
ENDROOT
BRANCH   3  15
ATOM     15  C   UNK A   0       6.579   4.509  15.486  0.00  0.00    +0.000 C 
ATOM     16  O   UNK A   0       7.787   4.339  15.660  0.00  0.00    +0.000 OA
ATOM     17  N   VAL A   1       6.057   4.456  14.221  0.00  0.00    +0.000 N 
ATOM     18  H   VAL A   1       5.085   4.748  14.098  0.00  0.00    +0.000 HD
BRANCH  17  19
ATOM     19  CA  VAL A   1       6.841   4.048  13.036  0.00  0.00    +0.000 C 
BRANCH  19  20
ATOM     20  CB  VAL A   1       5.952   3.369  11.963  0.00  0.00    +0.000 C 
ATOM     21  CG1 VAL A   1       6.336   1.921  11.647  0.00  0.00    +0.000 C 
ATOM     22  CG2 VAL A   1       4.457   3.451  12.306  0.00  0.00    +0.000 C 
ENDBRANCH  19  20
BRANCH  19  23
ATOM     23  C   VAL A   1       7.734   5.204  12.513  0.00  0.00    +0.000 C 
ATOM     24  O   VAL A   1       8.556   5.823  13.171  0.00  0.00    +0.000 OA
BRANCH  23  25
ATOM     25  OXT VAL A   1       7.440   5.569  11.237  0.00  0.00    +0.000 OA
ATOM     26  HXT VAL A   1       6.574   6.037  11.167  0.00  0.00    +0.000 HD
ENDBRANCH  23  25
ENDBRANCH  19  23
ENDBRANCH  17  19
ENDBRANCH   3  15
BRANCH   1  28
ATOM     27  C   UNK A   0       3.362   1.642  18.551  0.00  0.00    +0.000 C 
ATOM     28  C   UNK A   0       4.152   2.678  19.340  0.00  0.00    +0.000 C 
ENDBRANCH   1  28
TORSDOF 6
ENDMDL
MODEL 7
REMARK VINA RESULT:      -7.1      1.442      1.995
REMARK  Name = 
REMARK  9 active torsions:
REMARK  status: ('A' for Active; 'I' for Inactive)
REMARK    1  A    between atoms: C_1  and  C_2
REMARK    2  A    between atoms: C_2  and  N_3
REMARK    3  A    between atoms: C_5  and  C_6
REMARK    4  A    between atoms: N_8  and  CA_9
REMARK    5  A    between atoms: CA_9  and  C_10
REMARK    6  A    between atoms: CA_9  and  CB_13
REMARK    7  A    between atoms: C_10  and  OXT_12
REMARK    8  A    between atoms: CB_13  and  CG1_14
REMARK    9  A    between atoms: CB_13  and  CG2_15
REMARK                            x       y       z     vdW  Elec       q    Type
REMARK                         _______ _______ _______ _____ _____    ______ ____
ROOT
ATOM      1  N   UNK A   0       2.751   5.789  19.702  0.00  0.00    +0.000 N 
ATOM      2  C   UNK A   0       1.985   6.904  20.020  0.00  0.00    +0.000 A 
ATOM      3  C   UNK A   0       1.917   8.060  19.340  0.00  0.00    +0.000 A 
ATOM      4  C   UNK A   0       2.717   8.143  18.092  0.00  0.00    +0.000 A 
ATOM      5  O   UNK A   0       2.685   9.151  17.391  0.00  0.00    +0.000 OA
ATOM      6  C   UNK A   0       3.580   6.978  17.728  0.00  0.00    +0.000 A 
ATOM      7  C   UNK A   0       4.364   7.050  16.561  0.00  0.00    +0.000 A 
ATOM      8  C   UNK A   0       5.198   5.989  16.282  0.00  0.00    +0.000 A 
ATOM      9  C   UNK A   0       5.272   4.902  17.113  0.00  0.00    +0.000 A 
ATOM     10  C   UNK A   0       4.497   4.795  18.250  0.00  0.00    +0.000 A 
ATOM     11  C   UNK A   0       3.606   5.835  18.578  0.00  0.00    +0.000 A 
ATOM     12  O   UNK A   0       6.172   3.974  16.688  0.00  0.00    +0.000 OA
ATOM     13  C   UNK A   0       6.647   4.594  15.476  0.00  0.00    +0.000 C 
ATOM     14  O   UNK A   0       6.030   5.875  15.214  0.00  0.00    +0.000 OA
ENDROOT
BRANCH   3  15
ATOM     15  C   UNK A   0       1.077   9.162  19.901  0.00  0.00    +0.000 C 
ATOM     16  O   UNK A   0       0.527   9.078  21.000  0.00  0.00    +0.000 OA
ATOM     17  N   VAL A   1       0.904  10.283  19.134  0.00  0.00    +0.000 N 
ATOM     18  H   VAL A   1       1.250  10.256  18.173  0.00  0.00    +0.000 HD
BRANCH  17  19
ATOM     19  CA  VAL A   1       0.206  11.495  19.614  0.00  0.00    +0.000 C 
BRANCH  19  20
ATOM     20  CB  VAL A   1      -1.333  11.310  19.616  0.00  0.00    +0.000 C 
ATOM     21  CG1 VAL A   1      -2.126  12.611  19.767  0.00  0.00    +0.000 C 
ATOM     22  CG2 VAL A   1      -1.829  10.534  18.387  0.00  0.00    +0.000 C 
ENDBRANCH  19  20
BRANCH  19  23
ATOM     23  C   VAL A   1       0.807  12.012  20.946  0.00  0.00    +0.000 C 
ATOM     24  O   VAL A   1       1.867  12.608  21.067  0.00  0.00    +0.000 OA
BRANCH  23  25
ATOM     25  OXT VAL A   1       0.087  11.639  22.037  0.00  0.00    +0.000 OA
ATOM     26  HXT VAL A   1      -0.619  10.985  21.818  0.00  0.00    +0.000 HD
ENDBRANCH  23  25
ENDBRANCH  19  23
ENDBRANCH  17  19
ENDBRANCH   3  15
BRANCH   1  28
ATOM     27  C   UNK A   0       1.366   3.944  20.579  0.00  0.00    +0.000 C 
ATOM     28  C   UNK A   0       2.744   4.592  20.564  0.00  0.00    +0.000 C 
ENDBRANCH   1  28
TORSDOF 6
ENDMDL
MODEL 8
REMARK VINA RESULT:      -6.9      2.206      4.130
REMARK  Name = 
REMARK  9 active torsions:
REMARK  status: ('A' for Active; 'I' for Inactive)
REMARK    1  A    between atoms: C_1  and  C_2
REMARK    2  A    between atoms: C_2  and  N_3
REMARK    3  A    between atoms: C_5  and  C_6
REMARK    4  A    between atoms: N_8  and  CA_9
REMARK    5  A    between atoms: CA_9  and  C_10
REMARK    6  A    between atoms: CA_9  and  CB_13
REMARK    7  A    between atoms: C_10  and  OXT_12
REMARK    8  A    between atoms: CB_13  and  CG1_14
REMARK    9  A    between atoms: CB_13  and  CG2_15
REMARK                            x       y       z     vdW  Elec       q    Type
REMARK                         _______ _______ _______ _____ _____    ______ ____
ROOT
ATOM      1  N   UNK A   0       3.573   6.779  17.829  0.00  0.00    +0.000 N 
ATOM      2  C   UNK A   0       3.036   8.057  17.738  0.00  0.00    +0.000 A 
ATOM      3  C   UNK A   0       2.160   8.629  18.580  0.00  0.00    +0.000 A 
ATOM      4  C   UNK A   0       1.750   7.823  19.757  0.00  0.00    +0.000 A 
ATOM      5  O   UNK A   0       0.980   8.283  20.596  0.00  0.00    +0.000 OA
ATOM      6  C   UNK A   0       2.280   6.431  19.880  0.00  0.00    +0.000 A 
ATOM      7  C   UNK A   0       1.882   5.645  20.977  0.00  0.00    +0.000 A 
ATOM      8  C   UNK A   0       2.334   4.345  21.033  0.00  0.00    +0.000 A 
ATOM      9  C   UNK A   0       3.138   3.826  20.052  0.00  0.00    +0.000 A 
ATOM     10  C   UNK A   0       3.562   4.581  18.978  0.00  0.00    +0.000 A 
ATOM     11  C   UNK A   0       3.155   5.925  18.876  0.00  0.00    +0.000 A 
ATOM     12  O   UNK A   0       3.454   2.520  20.265  0.00  0.00    +0.000 OA
ATOM     13  C   UNK A   0       2.770   2.277  21.512  0.00  0.00    +0.000 C 
ATOM     14  O   UNK A   0       2.057   3.434  22.004  0.00  0.00    +0.000 OA
ENDROOT
BRANCH   3  15
ATOM     15  C   UNK A   0       1.655   9.996  18.252  0.00  0.00    +0.000 C 
ATOM     16  O   UNK A   0       2.313  10.803  17.593  0.00  0.00    +0.000 OA
ATOM     17  N   VAL A   1       0.426  10.354  18.740  0.00  0.00    +0.000 N 
ATOM     18  H   VAL A   1      -0.023   9.719  19.403  0.00  0.00    +0.000 HD
BRANCH  17  19
ATOM     19  CA  VAL A   1      -0.248  11.623  18.390  0.00  0.00    +0.000 C 
BRANCH  19  20
ATOM     20  CB  VAL A   1      -1.678  11.383  17.842  0.00  0.00    +0.000 C 
ATOM     21  CG1 VAL A   1      -1.919   9.972  17.300  0.00  0.00    +0.000 C 
ATOM     22  CG2 VAL A   1      -2.764  11.744  18.866  0.00  0.00    +0.000 C 
ENDBRANCH  19  20
BRANCH  19  23
ATOM     23  C   VAL A   1      -0.150  12.659  19.540  0.00  0.00    +0.000 C 
ATOM     24  O   VAL A   1      -0.143  13.873  19.407  0.00  0.00    +0.000 OA
BRANCH  23  25
ATOM     25  OXT VAL A   1       0.050  12.088  20.757  0.00  0.00    +0.000 OA
ATOM     26  HXT VAL A   1      -0.792  11.949  21.253  0.00  0.00    +0.000 HD
ENDBRANCH  23  25
ENDBRANCH  19  23
ENDBRANCH  17  19
ENDBRANCH   3  15
BRANCH   1  28
ATOM     27  C   UNK A   0       5.904   6.846  17.023  0.00  0.00    +0.000 C 
ATOM     28  C   UNK A   0       4.510   6.273  16.808  0.00  0.00    +0.000 C 
ENDBRANCH   1  28
TORSDOF 6
ENDMDL
MODEL 9
REMARK VINA RESULT:      -6.8      2.154      2.586
REMARK  Name = 
REMARK  9 active torsions:
REMARK  status: ('A' for Active; 'I' for Inactive)
REMARK    1  A    between atoms: C_1  and  C_2
REMARK    2  A    between atoms: C_2  and  N_3
REMARK    3  A    between atoms: C_5  and  C_6
REMARK    4  A    between atoms: N_8  and  CA_9
REMARK    5  A    between atoms: CA_9  and  C_10
REMARK    6  A    between atoms: CA_9  and  CB_13
REMARK    7  A    between atoms: C_10  and  OXT_12
REMARK    8  A    between atoms: CB_13  and  CG1_14
REMARK    9  A    between atoms: CB_13  and  CG2_15
REMARK                            x       y       z     vdW  Elec       q    Type
REMARK                         _______ _______ _______ _____ _____    ______ ____
ROOT
ATOM      1  N   UNK A   0       2.867   4.506  18.837  0.00  0.00    +0.000 N 
ATOM      2  C   UNK A   0       2.297   5.532  19.581  0.00  0.00    +0.000 A 
ATOM      3  C   UNK A   0       2.449   6.852  19.389  0.00  0.00    +0.000 A 
ATOM      4  C   UNK A   0       3.287   7.261  18.233  0.00  0.00    +0.000 A 
ATOM      5  O   UNK A   0       3.449   8.448  17.964  0.00  0.00    +0.000 OA
ATOM      6  C   UNK A   0       3.944   6.191  17.423  0.00  0.00    +0.000 A 
ATOM      7  C   UNK A   0       4.760   6.562  16.338  0.00  0.00    +0.000 A 
ATOM      8  C   UNK A   0       5.405   5.559  15.648  0.00  0.00    +0.000 A 
ATOM      9  C   UNK A   0       5.267   4.243  16.005  0.00  0.00    +0.000 A 
ATOM     10  C   UNK A   0       4.454   3.850  17.048  0.00  0.00    +0.000 A 
ATOM     11  C   UNK A   0       3.748   4.825  17.778  0.00  0.00    +0.000 A 
ATOM     12  O   UNK A   0       6.003   3.406  15.227  0.00  0.00    +0.000 OA
ATOM     13  C   UNK A   0       6.612   4.346  14.318  0.00  0.00    +0.000 C 
ATOM     14  O   UNK A   0       6.234   5.716  14.582  0.00  0.00    +0.000 OA
ENDROOT
BRANCH   3  15
ATOM     15  C   UNK A   0       1.799   7.786  20.356  0.00  0.00    +0.000 C 
ATOM     16  O   UNK A   0       1.817   7.594  21.573  0.00  0.00    +0.000 OA
ATOM     17  N   VAL A   1       1.139   8.873  19.845  0.00  0.00    +0.000 N 
ATOM     18  H   VAL A   1       1.018   8.919  18.832  0.00  0.00    +0.000 HD
BRANCH  17  19
ATOM     19  CA  VAL A   1       0.561   9.941  20.688  0.00  0.00    +0.000 C 
BRANCH  19  20
ATOM     20  CB  VAL A   1      -0.354  10.888  19.871  0.00  0.00    +0.000 C 
ATOM     21  CG1 VAL A   1      -1.232  10.180  18.834  0.00  0.00    +0.000 C 
ATOM     22  CG2 VAL A   1      -1.222  11.781  20.769  0.00  0.00    +0.000 C 
ENDBRANCH  19  20
BRANCH  19  23
ATOM     23  C   VAL A   1      -0.075   9.369  21.982  0.00  0.00    +0.000 C 
ATOM     24  O   VAL A   1      -1.015   8.590  22.032  0.00  0.00    +0.000 OA
BRANCH  23  25
ATOM     25  OXT VAL A   1       0.444   9.912  23.116  0.00  0.00    +0.000 OA
ATOM     26  HXT VAL A   1       1.422  10.030  23.065  0.00  0.00    +0.000 HD
ENDBRANCH  23  25
ENDBRANCH  19  23
ENDBRANCH  17  19
ENDBRANCH   3  15
BRANCH   1  28
ATOM     27  C   UNK A   0       1.389   2.951  20.057  0.00  0.00    +0.000 C 
ATOM     28  C   UNK A   0       2.629   3.093  19.185  0.00  0.00    +0.000 C 
ENDBRANCH   1  28
TORSDOF 6
ENDMDL
