MODEL 1
REMARK VINA RESULT:      -9.4      0.000      0.000
REMARK  Name = 
REMARK  4 active torsions:
REMARK  status: ('A' for Active; 'I' for Inactive)
REMARK    1  A    between atoms: C_1  and  O_2
REMARK    2  A    between atoms: O_2  and  C_3
REMARK    3  A    between atoms: C_25  and  N_26
REMARK    4  A    between atoms: C_27  and  C_29
REMARK                            x       y       z     vdW  Elec       q    Type
REMARK                         _______ _______ _______ _____ _____    ______ ____
ROOT
ATOM      1  C   UNL     1       3.182   4.082  19.369  0.00  0.00    +0.000 A 
ATOM      2  C   UNL     1       2.411   4.048  20.532  0.00  0.00    +0.000 A 
ATOM      3  C   UNL     1       1.776   5.204  20.994  0.00  0.00    +0.000 A 
ATOM      4  C   UNL     1       1.890   6.440  20.322  0.00  0.00    +0.000 A 
ATOM      5  C   UNL     1       2.694   6.462  19.155  0.00  0.00    +0.000 A 
ATOM      6  C   UNL     1       2.844   7.699  18.554  0.00  0.00    +0.000 A 
ATOM      7  N   UNL     1       2.006   8.717  18.774  0.00  0.00    +0.000 N 
ATOM      8  C   UNL     1       1.216   8.745  19.873  0.00  0.00    +0.000 A 
ATOM      9  C   UNL     1       1.250   7.650  20.766  0.00  0.00    +0.000 A 
ATOM     10  C   UNL     1       0.657   7.860  22.035  0.00  0.00    +0.000 A 
ATOM     11  C   UNL     1       0.074   9.089  22.380  0.00  0.00    +0.000 A 
ATOM     12  C   UNL     1      -0.054  10.113  21.427  0.00  0.00    +0.000 A 
ATOM     13  C   UNL     1      -0.640  11.358  21.668  0.00  0.00    +0.000 A 
ATOM     14  C   UNL     1      -0.820  12.290  20.668  0.00  0.00    +0.000 A 
ATOM     15  C   UNL     1      -0.440  12.058  19.368  0.00  0.00    +0.000 A 
ATOM     16  C   UNL     1       0.237  10.865  19.112  0.00  0.00    +0.000 A 
ATOM     17  C   UNL     1       0.459   9.907  20.136  0.00  0.00    +0.000 A 
ATOM     18  C   UNL     1       0.703  10.526  17.723  0.00  0.00    +0.000 C 
ATOM     19  C   UNL     1       2.064   9.866  17.835  0.00  0.00    +0.000 C 
ATOM     20  O   UNL     1      -1.394  13.436  21.114  0.00  0.00    +0.000 OA
ATOM     21  C   UNL     1      -1.416  13.187  22.533  0.00  0.00    +0.000 C 
ATOM     22  O   UNL     1      -1.079  11.823  22.871  0.00  0.00    +0.000 OA
ATOM     23  C   UNL     1       3.341   5.290  18.665  0.00  0.00    +0.000 A 
ENDROOT
BRANCH  23  24
ATOM     24  N   UNL     1       4.148   5.223  17.485  0.00  0.00    +0.000 N 
ATOM     25  C   UNL     1       5.481   5.562  17.312  0.00  0.00    +0.000 C 
ATOM     26  O   UNL     1       6.178   6.114  18.161  0.00  0.00    +0.000 OA
ATOM     27  H   UNL     1       3.619   5.087  16.620  0.00  0.00    +0.000 HD
BRANCH  25  28
ATOM     28  C   UNL     1       6.046   5.174  16.023  0.00  0.00    +0.000 A 
ATOM     29  C   UNL     1       5.444   4.273  15.156  0.00  0.00    +0.000 A 
ATOM     30  S   UNL     1       6.434   4.161  13.761  0.00  0.00    +0.000 S 
ATOM     31  N   UNL     1       7.539   5.272  14.347  0.00  0.00    +0.000 NA
ATOM     32  N   UNL     1       7.225   5.736  15.545  0.00  0.00    +0.000 NA
ENDBRANCH  25  28
ENDBRANCH  23  24
BRANCH   1  34
ATOM     33  C   UNL     1       2.998   1.797  18.769  0.00  0.00    +0.000 C 
ATOM     34  O   UNL     1       3.801   2.978  18.834  0.00  0.00    +0.000 OA
ENDBRANCH   1  34
TORSDOF 3
ENDMDL
MODEL 2
REMARK VINA RESULT:      -7.9      3.479      8.504
REMARK  Name = 
REMARK  4 active torsions:
REMARK  status: ('A' for Active; 'I' for Inactive)
REMARK    1  A    between atoms: C_1  and  O_2
REMARK    2  A    between atoms: O_2  and  C_3
REMARK    3  A    between atoms: C_25  and  N_26
REMARK    4  A    between atoms: C_27  and  C_29
REMARK                            x       y       z     vdW  Elec       q    Type
REMARK                         _______ _______ _______ _____ _____    ______ ____
ROOT
ATOM      1  C   UNL     1       0.012  10.950  22.245  0.00  0.00    +0.000 A 
ATOM      2  C   UNL     1      -0.124   9.781  22.994  0.00  0.00    +0.000 A 
ATOM      3  C   UNL     1       0.300   8.555  22.473  0.00  0.00    +0.000 A 
ATOM      4  C   UNL     1       0.866   8.444  21.185  0.00  0.00    +0.000 A 
ATOM      5  C   UNL     1       0.977   9.638  20.430  0.00  0.00    +0.000 A 
ATOM      6  C   UNL     1       1.471   9.492  19.146  0.00  0.00    +0.000 A 
ATOM      7  N   UNL     1       2.172   8.421  18.758  0.00  0.00    +0.000 N 
ATOM      8  C   UNL     1       2.102   7.256  19.444  0.00  0.00    +0.000 A 
ATOM      9  C   UNL     1       1.314   7.200  20.616  0.00  0.00    +0.000 A 
ATOM     10  C   UNL     1       1.024   5.906  21.113  0.00  0.00    +0.000 A 
ATOM     11  C   UNL     1       1.494   4.750  20.470  0.00  0.00    +0.000 A 
ATOM     12  C   UNL     1       2.377   4.844  19.382  0.00  0.00    +0.000 A 
ATOM     13  C   UNL     1       2.916   3.753  18.696  0.00  0.00    +0.000 A 
ATOM     14  C   UNL     1       3.850   3.906  17.694  0.00  0.00    +0.000 A 
ATOM     15  C   UNL     1       4.317   5.138  17.304  0.00  0.00    +0.000 A 
ATOM     16  C   UNL     1       3.728   6.254  17.900  0.00  0.00    +0.000 A 
ATOM     17  C   UNL     1       2.742   6.116  18.913  0.00  0.00    +0.000 A 
ATOM     18  C   UNL     1       4.164   7.645  17.532  0.00  0.00    +0.000 C 
ATOM     19  C   UNL     1       2.929   8.524  17.484  0.00  0.00    +0.000 C 
ATOM     20  O   UNL     1       4.234   2.724  17.148  0.00  0.00    +0.000 OA
ATOM     21  C   UNL     1       3.327   1.819  17.808  0.00  0.00    +0.000 C 
ATOM     22  O   UNL     1       2.598   2.442  18.889  0.00  0.00    +0.000 OA
ATOM     23  C   UNL     1       0.558  10.898  20.950  0.00  0.00    +0.000 A 
ENDROOT
BRANCH  23  24
ATOM     24  N   UNL     1       0.658  12.150  20.263  0.00  0.00    +0.000 N 
ATOM     25  C   UNL     1      -0.293  12.812  19.503  0.00  0.00    +0.000 C 
ATOM     26  O   UNL     1      -1.385  12.344  19.185  0.00  0.00    +0.000 OA
ATOM     27  H   UNL     1       1.613  12.504  20.168  0.00  0.00    +0.000 HD
BRANCH  25  28
ATOM     28  C   UNL     1       0.074  14.171  19.115  0.00  0.00    +0.000 A 
ATOM     29  C   UNL     1      -0.781  15.259  19.215  0.00  0.00    +0.000 A 
ATOM     30  S   UNL     1       0.085  16.644  18.695  0.00  0.00    +0.000 S 
ATOM     31  N   UNL     1       1.481  15.770  18.400  0.00  0.00    +0.000 NA
ATOM     32  N   UNL     1       1.352  14.480  18.662  0.00  0.00    +0.000 NA
ENDBRANCH  25  28
ENDBRANCH  23  24
BRANCH   1  34
ATOM     33  C   UNL     1      -1.708  12.331  23.111  0.00  0.00    +0.000 C 
ATOM     34  O   UNL     1      -0.344  12.194  22.708  0.00  0.00    +0.000 OA
ENDBRANCH   1  34
TORSDOF 3
ENDMDL
MODEL 3
REMARK VINA RESULT:      -7.9      3.541      8.714
REMARK  Name = 
REMARK  4 active torsions:
REMARK  status: ('A' for Active; 'I' for Inactive)
REMARK    1  A    between atoms: C_1  and  O_2
REMARK    2  A    between atoms: O_2  and  C_3
REMARK    3  A    between atoms: C_25  and  N_26
REMARK    4  A    between atoms: C_27  and  C_29
REMARK                            x       y       z     vdW  Elec       q    Type
REMARK                         _______ _______ _______ _____ _____    ______ ____
ROOT
ATOM      1  C   UNL     1      -0.359  10.931  22.583  0.00  0.00    +0.000 A 
ATOM      2  C   UNL     1      -0.307   9.728  23.287  0.00  0.00    +0.000 A 
ATOM      3  C   UNL     1       0.218   8.580  22.687  0.00  0.00    +0.000 A 
ATOM      4  C   UNL     1       0.704   8.584  21.361  0.00  0.00    +0.000 A 
ATOM      5  C   UNL     1       0.624   9.809  20.654  0.00  0.00    +0.000 A 
ATOM      6  C   UNL     1       1.043   9.769  19.336  0.00  0.00    +0.000 A 
ATOM      7  N   UNL     1       1.835   8.804  18.858  0.00  0.00    +0.000 N 
ATOM      8  C   UNL     1       1.947   7.615  19.495  0.00  0.00    +0.000 A 
ATOM      9  C   UNL     1       1.253   7.424  20.711  0.00  0.00    +0.000 A 
ATOM     10  C   UNL     1       1.149   6.087  21.168  0.00  0.00    +0.000 A 
ATOM     11  C   UNL     1       1.704   5.018  20.446  0.00  0.00    +0.000 A 
ATOM     12  C   UNL     1       2.495   5.256  19.309  0.00  0.00    +0.000 A 
ATOM     13  C   UNL     1       3.108   4.262  18.543  0.00  0.00    +0.000 A 
ATOM     14  C   UNL     1       3.947   4.560  17.491  0.00  0.00    +0.000 A 
ATOM     15  C   UNL     1       4.241   5.852  17.127  0.00  0.00    +0.000 A 
ATOM     16  C   UNL     1       3.569   6.868  17.808  0.00  0.00    +0.000 A 
ATOM     17  C   UNL     1       2.676   6.578  18.874  0.00  0.00    +0.000 A 
ATOM     18  C   UNL     1       3.814   8.313  17.473  0.00  0.00    +0.000 C 
ATOM     19  C   UNL     1       2.486   9.042  17.544  0.00  0.00    +0.000 C 
ATOM     20  O   UNL     1       4.427   3.453  16.870  0.00  0.00    +0.000 OA
ATOM     21  C   UNL     1       3.678   2.424  17.546  0.00  0.00    +0.000 C 
ATOM     22  O   UNL     1       2.958   2.916  18.698  0.00  0.00    +0.000 OA
ATOM     23  C   UNL     1       0.099  10.991  21.254  0.00  0.00    +0.000 A 
ENDROOT
BRANCH  23  24
ATOM     24  N   UNL     1       0.006  12.270  20.619  0.00  0.00    +0.000 N 
ATOM     25  C   UNL     1      -1.068  12.847  19.959  0.00  0.00    +0.000 C 
ATOM     26  O   UNL     1      -2.123  12.269  19.702  0.00  0.00    +0.000 OA
ATOM     27  H   UNL     1       0.906  12.733  20.470  0.00  0.00    +0.000 HD
BRANCH  25  28
ATOM     28  C   UNL     1      -0.885  14.252  19.607  0.00  0.00    +0.000 A 
ATOM     29  C   UNL     1      -0.057  14.688  18.582  0.00  0.00    +0.000 A 
ATOM     30  S   UNL     1      -0.190  16.395  18.505  0.00  0.00    +0.000 S 
ATOM     31  N   UNL     1      -1.297  16.455  19.758  0.00  0.00    +0.000 NA
ATOM     32  N   UNL     1      -1.585  15.263  20.254  0.00  0.00    +0.000 NA
ENDBRANCH  25  28
ENDBRANCH  23  24
BRANCH   1  34
ATOM     33  C   UNL     1      -2.235  12.162  23.348  0.00  0.00    +0.000 C 
ATOM     34  O   UNL     1      -0.824  12.108  23.122  0.00  0.00    +0.000 OA
ENDBRANCH   1  34
TORSDOF 3
ENDMDL
MODEL 4
REMARK VINA RESULT:      -7.7      2.655      4.585
REMARK  Name = 
REMARK  4 active torsions:
REMARK  status: ('A' for Active; 'I' for Inactive)
REMARK    1  A    between atoms: C_1  and  O_2
REMARK    2  A    between atoms: O_2  and  C_3
REMARK    3  A    between atoms: C_25  and  N_26
REMARK    4  A    between atoms: C_27  and  C_29
REMARK                            x       y       z     vdW  Elec       q    Type
REMARK                         _______ _______ _______ _____ _____    ______ ____
ROOT
ATOM      1  C   UNL     1       3.273   7.404  17.974  0.00  0.00    +0.000 A 
ATOM      2  C   UNL     1       3.102   8.596  17.270  0.00  0.00    +0.000 A 
ATOM      3  C   UNL     1       2.192   9.558  17.717  0.00  0.00    +0.000 A 
ATOM      4  C   UNL     1       1.411   9.365  18.877  0.00  0.00    +0.000 A 
ATOM      5  C   UNL     1       1.581   8.140  19.569  0.00  0.00    +0.000 A 
ATOM      6  C   UNL     1       0.756   7.948  20.662  0.00  0.00    +0.000 A 
ATOM      7  N   UNL     1       0.137   8.956  21.287  0.00  0.00    +0.000 N 
ATOM      8  C   UNL     1      -0.051  10.146  20.672  0.00  0.00    +0.000 A 
ATOM      9  C   UNL     1       0.465  10.332  19.370  0.00  0.00    +0.000 A 
ATOM     10  C   UNL     1      -0.020  11.458  18.660  0.00  0.00    +0.000 A 
ATOM     11  C   UNL     1      -0.962  12.333  19.224  0.00  0.00    +0.000 A 
ATOM     12  C   UNL     1      -1.358  12.191  20.564  0.00  0.00    +0.000 A 
ATOM     13  C   UNL     1      -2.268  13.025  21.219  0.00  0.00    +0.000 A 
ATOM     14  C   UNL     1      -2.549  12.892  22.562  0.00  0.00    +0.000 A 
ATOM     15  C   UNL     1      -1.954  11.935  23.348  0.00  0.00    +0.000 A 
ATOM     16  C   UNL     1      -1.115  11.023  22.706  0.00  0.00    +0.000 A 
ATOM     17  C   UNL     1      -0.838  11.126  21.316  0.00  0.00    +0.000 A 
ATOM     18  C   UNL     1      -0.426   9.933  23.478  0.00  0.00    +0.000 C 
ATOM     19  C   UNL     1      -0.438   8.677  22.628  0.00  0.00    +0.000 C 
ATOM     20  O   UNL     1      -3.468  13.790  22.998  0.00  0.00    +0.000 OA
ATOM     21  C   UNL     1      -3.852  14.405  21.753  0.00  0.00    +0.000 C 
ATOM     22  O   UNL     1      -2.994  14.029  20.652  0.00  0.00    +0.000 OA
ATOM     23  C   UNL     1       2.512   7.153  19.130  0.00  0.00    +0.000 A 
ENDROOT
BRANCH  23  24
ATOM     24  N   UNL     1       2.762   5.904  19.782  0.00  0.00    +0.000 N 
ATOM     25  C   UNL     1       2.235   4.651  19.511  0.00  0.00    +0.000 C 
ATOM     26  O   UNL     1       1.335   4.431  18.702  0.00  0.00    +0.000 OA
ATOM     27  H   UNL     1       3.243   5.987  20.681  0.00  0.00    +0.000 HD
BRANCH  25  28
ATOM     28  C   UNL     1       2.862   3.554  20.241  0.00  0.00    +0.000 A 
ATOM     29  C   UNL     1       4.012   2.903  19.817  0.00  0.00    +0.000 A 
ATOM     30  S   UNL     1       4.404   1.727  21.001  0.00  0.00    +0.000 S 
ATOM     31  N   UNL     1       3.104   2.139  21.970  0.00  0.00    +0.000 NA
ATOM     32  N   UNL     1       2.369   3.116  21.465  0.00  0.00    +0.000 NA
ENDBRANCH  25  28
ENDBRANCH  23  24
BRANCH   1  34
ATOM     33  C   UNL     1       4.906   6.689  16.413  0.00  0.00    +0.000 C 
ATOM     34  O   UNL     1       4.178   6.433  17.616  0.00  0.00    +0.000 OA
ENDBRANCH   1  34
TORSDOF 3
ENDMDL
MODEL 5
REMARK VINA RESULT:      -7.2      3.653      8.690
REMARK  Name = 
REMARK  4 active torsions:
REMARK  status: ('A' for Active; 'I' for Inactive)
REMARK    1  A    between atoms: C_1  and  O_2
REMARK    2  A    between atoms: O_2  and  C_3
REMARK    3  A    between atoms: C_25  and  N_26
REMARK    4  A    between atoms: C_27  and  C_29
REMARK                            x       y       z     vdW  Elec       q    Type
REMARK                         _______ _______ _______ _____ _____    ______ ____
ROOT
ATOM      1  C   UNL     1      -0.835  11.254  22.706  0.00  0.00    +0.000 A 
ATOM      2  C   UNL     1      -0.739  10.029  23.366  0.00  0.00    +0.000 A 
ATOM      3  C   UNL     1      -0.141   8.933  22.738  0.00  0.00    +0.000 A 
ATOM      4  C   UNL     1       0.375   9.012  21.426  0.00  0.00    +0.000 A 
ATOM      5  C   UNL     1       0.249  10.257  20.763  0.00  0.00    +0.000 A 
ATOM      6  C   UNL     1       0.701  10.289  19.456  0.00  0.00    +0.000 A 
ATOM      7  N   UNL     1       1.552   9.383  18.962  0.00  0.00    +0.000 N 
ATOM      8  C   UNL     1       1.709   8.178  19.558  0.00  0.00    +0.000 A 
ATOM      9  C   UNL     1       0.998   7.906  20.748  0.00  0.00    +0.000 A 
ATOM     10  C   UNL     1       0.952   6.549  21.152  0.00  0.00    +0.000 A 
ATOM     11  C   UNL     1       1.578   5.538  20.406  0.00  0.00    +0.000 A 
ATOM     12  C   UNL     1       2.381   5.858  19.299  0.00  0.00    +0.000 A 
ATOM     13  C   UNL     1       3.062   4.926  18.513  0.00  0.00    +0.000 A 
ATOM     14  C   UNL     1       3.911   5.306  17.495  0.00  0.00    +0.000 A 
ATOM     15  C   UNL     1       4.146   6.624  17.186  0.00  0.00    +0.000 A 
ATOM     16  C   UNL     1       3.407   7.578  17.886  0.00  0.00    +0.000 A 
ATOM     17  C   UNL     1       2.506   7.203  18.918  0.00  0.00    +0.000 A 
ATOM     18  C   UNL     1       3.586   9.045  17.612  0.00  0.00    +0.000 C 
ATOM     19  C   UNL     1       2.221   9.703  17.675  0.00  0.00    +0.000 C 
ATOM     20  O   UNL     1       4.460   4.248  16.846  0.00  0.00    +0.000 OA
ATOM     21  C   UNL     1       3.750   3.158  17.464  0.00  0.00    +0.000 C 
ATOM     22  O   UNL     1       2.978   3.570  18.614  0.00  0.00    +0.000 OA
ATOM     23  C   UNL     1      -0.349  11.388  21.393  0.00  0.00    +0.000 A 
ENDROOT
BRANCH  23  24
ATOM     24  N   UNL     1      -0.493  12.684  20.802  0.00  0.00    +0.000 N 
ATOM     25  C   UNL     1       0.244  13.836  21.024  0.00  0.00    +0.000 C 
ATOM     26  O   UNL     1       1.104  13.960  21.894  0.00  0.00    +0.000 OA
ATOM     27  H   UNL     1      -1.372  12.821  20.297  0.00  0.00    +0.000 HD
BRANCH  25  28
ATOM     28  C   UNL     1      -0.040  14.929  20.099  0.00  0.00    +0.000 A 
ATOM     29  C   UNL     1       0.641  15.128  18.906  0.00  0.00    +0.000 A 
ATOM     30  S   UNL     1      -0.057  16.491  18.136  0.00  0.00    +0.000 S 
ATOM     31  N   UNL     1      -1.179  16.718  19.356  0.00  0.00    +0.000 NA
ATOM     32  N   UNL     1      -1.072  15.832  20.332  0.00  0.00    +0.000 NA
ENDBRANCH  25  28
ENDBRANCH  23  24
BRANCH   1  34
ATOM     33  C   UNL     1      -2.790  12.365  23.455  0.00  0.00    +0.000 C 
ATOM     34  O   UNL     1      -1.372  12.384  23.276  0.00  0.00    +0.000 OA
ENDBRANCH   1  34
TORSDOF 3
ENDMDL
MODEL 6
REMARK VINA RESULT:      -7.1      4.811     10.152
REMARK  Name = 
REMARK  4 active torsions:
REMARK  status: ('A' for Active; 'I' for Inactive)
REMARK    1  A    between atoms: C_1  and  O_2
REMARK    2  A    between atoms: O_2  and  C_3
REMARK    3  A    between atoms: C_25  and  N_26
REMARK    4  A    between atoms: C_27  and  C_29
REMARK                            x       y       z     vdW  Elec       q    Type
REMARK                         _______ _______ _______ _____ _____    ______ ____
ROOT
ATOM      1  C   UNL     1      -0.607  14.692  19.557  0.00  0.00    +0.000 A 
ATOM      2  C   UNL     1      -0.194  14.288  18.288  0.00  0.00    +0.000 A 
ATOM      3  C   UNL     1       0.374  13.025  18.097  0.00  0.00    +0.000 A 
ATOM      4  C   UNL     1       0.559  12.120  19.164  0.00  0.00    +0.000 A 
ATOM      5  C   UNL     1       0.153  12.554  20.450  0.00  0.00    +0.000 A 
ATOM      6  C   UNL     1       0.408  11.676  21.488  0.00  0.00    +0.000 A 
ATOM      7  N   UNL     1       0.634  10.372  21.293  0.00  0.00    +0.000 N 
ATOM      8  C   UNL     1       1.023   9.905  20.084  0.00  0.00    +0.000 A 
ATOM      9  C   UNL     1       1.138  10.811  19.006  0.00  0.00    +0.000 A 
ATOM     10  C   UNL     1       1.837  10.343  17.867  0.00  0.00    +0.000 A 
ATOM     11  C   UNL     1       2.385   9.051  17.821  0.00  0.00    +0.000 A 
ATOM     12  C   UNL     1       2.144   8.133  18.856  0.00  0.00    +0.000 A 
ATOM     13  C   UNL     1       2.623   6.822  18.887  0.00  0.00    +0.000 A 
ATOM     14  C   UNL     1       2.278   5.938  19.887  0.00  0.00    +0.000 A 
ATOM     15  C   UNL     1       1.438   6.284  20.918  0.00  0.00    +0.000 A 
ATOM     16  C   UNL     1       1.020   7.614  20.972  0.00  0.00    +0.000 A 
ATOM     17  C   UNL     1       1.391   8.547  19.967  0.00  0.00    +0.000 A 
ATOM     18  C   UNL     1       0.108   8.092  22.068  0.00  0.00    +0.000 C 
ATOM     19  C   UNL     1       0.559   9.481  22.479  0.00  0.00    +0.000 C 
ATOM     20  O   UNL     1       2.861   4.722  19.739  0.00  0.00    +0.000 OA
ATOM     21  C   UNL     1       3.734   4.980  18.622  0.00  0.00    +0.000 C 
ATOM     22  O   UNL     1       3.479   6.255  17.991  0.00  0.00    +0.000 OA
ATOM     23  C   UNL     1      -0.435  13.836  20.660  0.00  0.00    +0.000 A 
ENDROOT
BRANCH  23  24
ATOM     24  N   UNL     1      -0.893  14.339  21.920  0.00  0.00    +0.000 N 
ATOM     25  C   UNL     1      -0.207  15.076  22.872  0.00  0.00    +0.000 C 
ATOM     26  O   UNL     1       0.998  15.321  22.833  0.00  0.00    +0.000 OA
ATOM     27  H   UNL     1      -1.779  13.939  22.236  0.00  0.00    +0.000 HD
BRANCH  25  28
ATOM     28  C   UNL     1      -1.038  15.603  23.951  0.00  0.00    +0.000 A 
ATOM     29  C   UNL     1      -2.119  16.450  23.749  0.00  0.00    +0.000 A 
ATOM     30  S   UNL     1      -2.815  16.769  25.282  0.00  0.00    +0.000 S 
ATOM     31  N   UNL     1      -1.712  15.800  26.085  0.00  0.00    +0.000 NA
ATOM     32  N   UNL     1      -0.829  15.239  25.276  0.00  0.00    +0.000 NA
ENDBRANCH  25  28
ENDBRANCH  23  24
BRANCH   1  34
ATOM     33  C   UNL     1      -0.775  16.987  18.990  0.00  0.00    +0.000 C 
ATOM     34  O   UNL     1      -1.210  15.901  19.812  0.00  0.00    +0.000 OA
ENDBRANCH   1  34
TORSDOF 3
ENDMDL
MODEL 7
REMARK VINA RESULT:      -7.0      6.008     11.178
REMARK  Name = 
REMARK  4 active torsions:
REMARK  status: ('A' for Active; 'I' for Inactive)
REMARK    1  A    between atoms: C_1  and  O_2
REMARK    2  A    between atoms: O_2  and  C_3
REMARK    3  A    between atoms: C_25  and  N_26
REMARK    4  A    between atoms: C_27  and  C_29
REMARK                            x       y       z     vdW  Elec       q    Type
REMARK                         _______ _______ _______ _____ _____    ______ ____
ROOT
ATOM      1  C   UNL     1      -4.364  14.720  23.466  0.00  0.00    +0.000 A 
ATOM      2  C   UNL     1      -3.671  13.981  24.423  0.00  0.00    +0.000 A 
ATOM      3  C   UNL     1      -2.787  12.970  24.033  0.00  0.00    +0.000 A 
ATOM      4  C   UNL     1      -2.568  12.652  22.676  0.00  0.00    +0.000 A 
ATOM      5  C   UNL     1      -3.296  13.398  21.717  0.00  0.00    +0.000 A 
ATOM      6  C   UNL     1      -3.114  13.021  20.399  0.00  0.00    +0.000 A 
ATOM      7  N   UNL     1      -2.059  12.309  19.989  0.00  0.00    +0.000 N 
ATOM      8  C   UNL     1      -1.329  11.578  20.864  0.00  0.00    +0.000 A 
ATOM      9  C   UNL     1      -1.665  11.620  22.236  0.00  0.00    +0.000 A 
ATOM     10  C   UNL     1      -1.087  10.617  23.052  0.00  0.00    +0.000 A 
ATOM     11  C   UNL     1      -0.233   9.639  22.520  0.00  0.00    +0.000 A 
ATOM     12  C   UNL     1       0.181   9.701  21.179  0.00  0.00    +0.000 A 
ATOM     13  C   UNL     1       1.046   8.791  20.568  0.00  0.00    +0.000 A 
ATOM     14  C   UNL     1       1.489   8.956  19.272  0.00  0.00    +0.000 A 
ATOM     15  C   UNL     1       1.112  10.025  18.496  0.00  0.00    +0.000 A 
ATOM     16  C   UNL     1       0.171  10.901  19.041  0.00  0.00    +0.000 A 
ATOM     17  C   UNL     1      -0.319  10.729  20.363  0.00  0.00    +0.000 A 
ATOM     18  C   UNL     1      -0.311  12.094  18.264  0.00  0.00    +0.000 C 
ATOM     19  C   UNL     1      -1.796  12.255  18.528  0.00  0.00    +0.000 C 
ATOM     20  O   UNL     1       2.310   7.955  18.866  0.00  0.00    +0.000 OA
ATOM     21  C   UNL     1       2.216   7.061  19.991  0.00  0.00    +0.000 C 
ATOM     22  O   UNL     1       1.540   7.650  21.125  0.00  0.00    +0.000 OA
ATOM     23  C   UNL     1      -4.194  14.438  22.098  0.00  0.00    +0.000 A 
ENDROOT
BRANCH  23  24
ATOM     24  N   UNL     1      -4.947  15.253  21.194  0.00  0.00    +0.000 N 
ATOM     25  C   UNL     1      -6.123  14.961  20.520  0.00  0.00    +0.000 C 
ATOM     26  O   UNL     1      -6.663  13.856  20.502  0.00  0.00    +0.000 OA
ATOM     27  H   UNL     1      -4.450  16.082  20.859  0.00  0.00    +0.000 HD
BRANCH  25  28
ATOM     28  C   UNL     1      -6.732  16.097  19.836  0.00  0.00    +0.000 A 
ATOM     29  C   UNL     1      -7.118  16.079  18.503  0.00  0.00    +0.000 A 
ATOM     30  S   UNL     1      -7.819  17.602  18.149  0.00  0.00    +0.000 S 
ATOM     31  N   UNL     1      -7.601  18.165  19.709  0.00  0.00    +0.000 NA
ATOM     32  N   UNL     1      -7.022  17.281  20.504  0.00  0.00    +0.000 NA
ENDBRANCH  25  28
ENDBRANCH  23  24
BRANCH   1  34
ATOM     33  C   UNL     1      -4.708  16.708  24.710  0.00  0.00    +0.000 C 
ATOM     34  O   UNL     1      -5.216  15.754  23.774  0.00  0.00    +0.000 OA
ENDBRANCH   1  34
TORSDOF 3
ENDMDL
MODEL 8
REMARK VINA RESULT:      -7.0      5.728     10.934
REMARK  Name = 
REMARK  4 active torsions:
REMARK  status: ('A' for Active; 'I' for Inactive)
REMARK    1  A    between atoms: C_1  and  O_2
REMARK    2  A    between atoms: O_2  and  C_3
REMARK    3  A    between atoms: C_25  and  N_26
REMARK    4  A    between atoms: C_27  and  C_29
REMARK                            x       y       z     vdW  Elec       q    Type
REMARK                         _______ _______ _______ _____ _____    ______ ____
ROOT
ATOM      1  C   UNL     1      -4.103  14.908  23.388  0.00  0.00    +0.000 A 
ATOM      2  C   UNL     1      -3.447  14.152  24.360  0.00  0.00    +0.000 A 
ATOM      3  C   UNL     1      -2.607  13.098  23.989  0.00  0.00    +0.000 A 
ATOM      4  C   UNL     1      -2.393  12.752  22.638  0.00  0.00    +0.000 A 
ATOM      5  C   UNL     1      -3.083  13.517  21.664  0.00  0.00    +0.000 A 
ATOM      6  C   UNL     1      -2.910  13.114  20.352  0.00  0.00    +0.000 A 
ATOM      7  N   UNL     1      -1.884  12.351  19.959  0.00  0.00    +0.000 N 
ATOM      8  C   UNL     1      -1.192  11.601  20.849  0.00  0.00    +0.000 A 
ATOM      9  C   UNL     1      -1.534  11.676  22.217  0.00  0.00    +0.000 A 
ATOM     10  C   UNL     1      -1.005  10.660  23.051  0.00  0.00    +0.000 A 
ATOM     11  C   UNL     1      -0.191   9.638  22.537  0.00  0.00    +0.000 A 
ATOM     12  C   UNL     1       0.232   9.665  21.198  0.00  0.00    +0.000 A 
ATOM     13  C   UNL     1       1.060   8.709  20.605  0.00  0.00    +0.000 A 
ATOM     14  C   UNL     1       1.517   8.837  19.311  0.00  0.00    +0.000 A 
ATOM     15  C   UNL     1       1.192   9.911  18.518  0.00  0.00    +0.000 A 
ATOM     16  C   UNL     1       0.288  10.834  19.044  0.00  0.00    +0.000 A 
ATOM     17  C   UNL     1      -0.217  10.702  20.365  0.00  0.00    +0.000 A 
ATOM     18  C   UNL     1      -0.138  12.036  18.249  0.00  0.00    +0.000 C 
ATOM     19  C   UNL     1      -1.616  12.265  18.501  0.00  0.00    +0.000 C 
ATOM     20  O   UNL     1       2.296   7.796  18.923  0.00  0.00    +0.000 OA
ATOM     21  C   UNL     1       2.157   6.922  20.060  0.00  0.00    +0.000 C 
ATOM     22  O   UNL     1       1.501   7.555  21.180  0.00  0.00    +0.000 OA
ATOM     23  C   UNL     1      -3.937  14.600  22.026  0.00  0.00    +0.000 A 
ENDROOT
BRANCH  23  24
ATOM     24  N   UNL     1      -4.649  15.434  21.106  0.00  0.00    +0.000 N 
ATOM     25  C   UNL     1      -4.256  16.624  20.514  0.00  0.00    +0.000 C 
ATOM     26  O   UNL     1      -3.229  17.240  20.796  0.00  0.00    +0.000 OA
ATOM     27  H   UNL     1      -5.646  15.219  21.027  0.00  0.00    +0.000 HD
BRANCH  25  28
ATOM     28  C   UNL     1      -5.147  17.107  19.464  0.00  0.00    +0.000 A 
ATOM     29  C   UNL     1      -5.058  18.370  18.897  0.00  0.00    +0.000 A 
ATOM     30  S   UNL     1      -6.267  18.478  17.687  0.00  0.00    +0.000 S 
ATOM     31  N   UNL     1      -6.802  16.915  17.956  0.00  0.00    +0.000 NA
ATOM     32  N   UNL     1      -6.132  16.295  18.913  0.00  0.00    +0.000 NA
ENDBRANCH  25  28
ENDBRANCH  23  24
BRANCH   1  34
ATOM     33  C   UNL     1      -4.618  16.656  24.903  0.00  0.00    +0.000 C 
ATOM     34  O   UNL     1      -4.910  15.982  23.677  0.00  0.00    +0.000 OA
ENDBRANCH   1  34
TORSDOF 3
ENDMDL
MODEL 9
REMARK VINA RESULT:      -6.9      4.628     10.094
REMARK  Name = 
REMARK  4 active torsions:
REMARK  status: ('A' for Active; 'I' for Inactive)
REMARK    1  A    between atoms: C_1  and  O_2
REMARK    2  A    between atoms: O_2  and  C_3
REMARK    3  A    between atoms: C_25  and  N_26
REMARK    4  A    between atoms: C_27  and  C_29
REMARK                            x       y       z     vdW  Elec       q    Type
REMARK                         _______ _______ _______ _____ _____    ______ ____
ROOT
ATOM      1  C   UNL     1      -0.504  14.619  19.487  0.00  0.00    +0.000 A 
ATOM      2  C   UNL     1      -0.112  14.202  18.215  0.00  0.00    +0.000 A 
ATOM      3  C   UNL     1       0.443  12.932  18.027  0.00  0.00    +0.000 A 
ATOM      4  C   UNL     1       0.635  12.034  19.099  0.00  0.00    +0.000 A 
ATOM      5  C   UNL     1       0.250  12.482  20.387  0.00  0.00    +0.000 A 
ATOM      6  C   UNL     1       0.512  11.609  21.428  0.00  0.00    +0.000 A 
ATOM      7  N   UNL     1       0.724  10.302  21.241  0.00  0.00    +0.000 N 
ATOM      8  C   UNL     1       1.093   9.823  20.030  0.00  0.00    +0.000 A 
ATOM      9  C   UNL     1       1.201  10.719  18.944  0.00  0.00    +0.000 A 
ATOM     10  C   UNL     1       1.881  10.236  17.799  0.00  0.00    +0.000 A 
ATOM     11  C   UNL     1       2.416   8.939  17.756  0.00  0.00    +0.000 A 
ATOM     12  C   UNL     1       2.182   8.032  18.802  0.00  0.00    +0.000 A 
ATOM     13  C   UNL     1       2.651   6.717  18.837  0.00  0.00    +0.000 A 
ATOM     14  C   UNL     1       2.312   5.844  19.849  0.00  0.00    +0.000 A 
ATOM     15  C   UNL     1       1.489   6.205  20.888  0.00  0.00    +0.000 A 
ATOM     16  C   UNL     1       1.083   7.539  20.937  0.00  0.00    +0.000 A 
ATOM     17  C   UNL     1       1.448   8.461  19.919  0.00  0.00    +0.000 A 
ATOM     18  C   UNL     1       0.190   8.033  22.041  0.00  0.00    +0.000 C 
ATOM     19  C   UNL     1       0.658   9.421  22.435  0.00  0.00    +0.000 C 
ATOM     20  O   UNL     1       2.883   4.622  19.702  0.00  0.00    +0.000 OA
ATOM     21  C   UNL     1       3.743   4.863  18.571  0.00  0.00    +0.000 C 
ATOM     22  O   UNL     1       3.490   6.136  17.934  0.00  0.00    +0.000 OA
ATOM     23  C   UNL     1      -0.325  13.770  20.594  0.00  0.00    +0.000 A 
ENDROOT
BRANCH  23  24
ATOM     24  N   UNL     1      -0.761  14.287  21.856  0.00  0.00    +0.000 N 
ATOM     25  C   UNL     1      -1.936  14.040  22.547  0.00  0.00    +0.000 C 
ATOM     26  O   UNL     1      -2.886  13.398  22.105  0.00  0.00    +0.000 OA
ATOM     27  H   UNL     1      -0.218  15.087  22.193  0.00  0.00    +0.000 HD
BRANCH  25  28
ATOM     28  C   UNL     1      -1.968  14.575  23.906  0.00  0.00    +0.000 A 
ATOM     29  C   UNL     1      -0.971  15.377  24.443  0.00  0.00    +0.000 A 
ATOM     30  S   UNL     1      -1.452  15.800  26.032  0.00  0.00    +0.000 S 
ATOM     31  N   UNL     1      -2.890  14.954  25.919  0.00  0.00    +0.000 NA
ATOM     32  N   UNL     1      -3.049  14.354  24.751  0.00  0.00    +0.000 NA
ENDBRANCH  25  28
ENDBRANCH  23  24
BRANCH   1  34
ATOM     33  C   UNL     1      -0.432  16.966  19.168  0.00  0.00    +0.000 C 
ATOM     34  O   UNL     1      -1.093  15.835  19.740  0.00  0.00    +0.000 OA
ENDBRANCH   1  34
TORSDOF 3
ENDMDL
