MODEL 1
REMARK VINA RESULT:      -7.6      0.000      0.000
REMARK  Name = 
REMARK  6 active torsions:
REMARK  status: ('A' for Active; 'I' for Inactive)
REMARK    1  A    between atoms: C_7  and  C_8
REMARK    2  A    between atoms: C_10  and  C_11
REMARK    3  A    between atoms: C_11  and  O_12
REMARK    4  A    between atoms: C_13  and  O_14
REMARK    5  A    between atoms: C_15  and  O_16
REMARK    6  A    between atoms: C_18  and  C_19
REMARK                            x       y       z     vdW  Elec       q    Type
REMARK                         _______ _______ _______ _____ _____    ______ ____
ROOT
ATOM      1  N   UNL     1       5.101   3.304  18.979  0.00  0.00    +0.000 N 
ATOM      2  C   UNL     1       4.054   4.100  19.346  0.00  0.00    +0.000 A 
ATOM      3  N   UNL     1       3.286   3.638  20.285  0.00  0.00    +0.000 NA
ATOM      4  C   UNL     1       2.233   4.400  20.716  0.00  0.00    +0.000 A 
ATOM      5  N   UNL     1       1.891   5.572  20.284  0.00  0.00    +0.000 NA
ATOM      6  N   UNL     1       2.687   6.056  19.312  0.00  0.00    +0.000 N 
ATOM      7  C   UNL     1       2.541   7.273  18.687  0.00  0.00    +0.000 A 
ATOM      8  C   UNL     1       3.571   7.380  17.768  0.00  0.00    +0.000 A 
ATOM      9  C   UNL     1       4.327   6.181  17.810  0.00  0.00    +0.000 A 
ATOM     10  C   UNL     1       3.764   5.389  18.794  0.00  0.00    +0.000 A 
ATOM     11  H   UNL     1       5.249   2.542  19.632  0.00  0.00    +0.000 HD
ATOM     12  H   UNL     1       5.959   3.797  18.756  0.00  0.00    +0.000 HD
ENDROOT
BRANCH   7  13
ATOM     13  C   UNL     1       1.428   8.230  18.940  0.00  0.00    +0.000 C 
ATOM     14  O   UNL     1       1.431   9.252  17.925  0.00  0.00    +0.000 OA
ATOM     15  C   UNL     1       1.058  10.510  18.552  0.00  0.00    +0.000 C 
ATOM     16  C   UNL     1       0.669  10.192  19.994  0.00  0.00    +0.000 C 
ATOM     17  C   UNL     1       1.466   8.932  20.296  0.00  0.00    +0.000 C 
BRANCH  16  18
ATOM     18  O   UNL     1      -0.734   9.875  20.106  0.00  0.00    +0.000 OA
ATOM     19  H   UNL     1      -0.834   8.905  20.111  0.00  0.00    +0.000 HD
ENDBRANCH  16  18
BRANCH  17  20
ATOM     20  O   UNL     1       0.857   8.167  21.336  0.00  0.00    +0.000 OA
ATOM     21  H   UNL     1       1.539   7.530  21.633  0.00  0.00    +0.000 HD
ENDBRANCH  17  20
BRANCH  15  22
ATOM     22  C   UNL     1       2.235  11.482  18.457  0.00  0.00    +0.000 C 
BRANCH  22  23
ATOM     23  O   UNL     1       2.677  11.571  17.103  0.00  0.00    +0.000 OA
ATOM     24  H   UNL     1       2.420  12.468  16.808  0.00  0.00    +0.000 HD
ENDBRANCH  22  23
ENDBRANCH  15  22
ENDBRANCH   7  13
BRANCH   9  25
ATOM     25  C   UNL     1       5.458   5.934  16.925  0.00  0.00    +0.000 A 
ATOM     26  C   UNL     1       5.429   5.104  15.775  0.00  0.00    +0.000 A 
ATOM     27  C   UNL     1       6.691   5.159  15.229  0.00  0.00    +0.000 A 
ATOM     28  O   UNL     1       7.501   5.946  15.983  0.00  0.00    +0.000 OA
ATOM     29  C   UNL     1       6.753   6.391  17.027  0.00  0.00    +0.000 A 
ENDBRANCH   9  25
TORSDOF 6
ENDMDL
MODEL 2
REMARK VINA RESULT:      -6.9      3.962      5.692
REMARK  Name = 
REMARK  6 active torsions:
REMARK  status: ('A' for Active; 'I' for Inactive)
REMARK    1  A    between atoms: C_7  and  C_8
REMARK    2  A    between atoms: C_10  and  C_11
REMARK    3  A    between atoms: C_11  and  O_12
REMARK    4  A    between atoms: C_13  and  O_14
REMARK    5  A    between atoms: C_15  and  O_16
REMARK    6  A    between atoms: C_18  and  C_19
REMARK                            x       y       z     vdW  Elec       q    Type
REMARK                         _______ _______ _______ _____ _____    ______ ____
ROOT
ATOM      1  N   UNL     1       8.092   5.873  14.720  0.00  0.00    +0.000 N 
ATOM      2  C   UNL     1       6.991   5.101  14.956  0.00  0.00    +0.000 A 
ATOM      3  N   UNL     1       6.642   4.296  13.999  0.00  0.00    +0.000 NA
ATOM      4  C   UNL     1       5.561   3.476  14.184  0.00  0.00    +0.000 A 
ATOM      5  N   UNL     1       4.810   3.401  15.236  0.00  0.00    +0.000 NA
ATOM      6  N   UNL     1       5.172   4.232  16.233  0.00  0.00    +0.000 N 
ATOM      7  C   UNL     1       4.542   4.345  17.450  0.00  0.00    +0.000 A 
ATOM      8  C   UNL     1       5.238   5.297  18.176  0.00  0.00    +0.000 A 
ATOM      9  C   UNL     1       6.283   5.798  17.360  0.00  0.00    +0.000 A 
ATOM     10  C   UNL     1       6.227   5.100  16.167  0.00  0.00    +0.000 A 
ATOM     11  H   UNL     1       8.603   5.569  13.899  0.00  0.00    +0.000 HD
ATOM     12  H   UNL     1       8.695   6.019  15.522  0.00  0.00    +0.000 HD
ENDROOT
BRANCH   7  13
ATOM     13  C   UNL     1       3.306   3.610  17.841  0.00  0.00    +0.000 C 
ATOM     14  O   UNL     1       2.373   4.523  18.448  0.00  0.00    +0.000 OA
ATOM     15  C   UNL     1       1.692   3.821  19.525  0.00  0.00    +0.000 C 
ATOM     16  C   UNL     1       2.140   2.363  19.460  0.00  0.00    +0.000 C 
ATOM     17  C   UNL     1       3.516   2.454  18.817  0.00  0.00    +0.000 C 
BRANCH  16  18
ATOM     18  O   UNL     1       1.289   1.585  18.594  0.00  0.00    +0.000 OA
ATOM     19  H   UNL     1       0.519   1.279  19.109  0.00  0.00    +0.000 HD
ENDBRANCH  16  18
BRANCH  17  20
ATOM     20  O   UNL     1       3.868   1.233  18.167  0.00  0.00    +0.000 OA
ATOM     21  H   UNL     1       3.118   1.019  17.575  0.00  0.00    +0.000 HD
ENDBRANCH  17  20
BRANCH  15  22
ATOM     22  C   UNL     1       2.041   4.490  20.854  0.00  0.00    +0.000 C 
BRANCH  22  23
ATOM     23  O   UNL     1       2.604   5.779  20.611  0.00  0.00    +0.000 OA
ATOM     24  H   UNL     1       3.446   5.789  21.109  0.00  0.00    +0.000 HD
ENDBRANCH  22  23
ENDBRANCH  15  22
ENDBRANCH   7  13
BRANCH   9  25
ATOM     25  C   UNL     1       7.181   6.861  17.796  0.00  0.00    +0.000 A 
ATOM     26  C   UNL     1       7.210   8.174  17.261  0.00  0.00    +0.000 A 
ATOM     27  C   UNL     1       8.185   8.851  17.958  0.00  0.00    +0.000 A 
ATOM     28  O   UNL     1       8.774   8.032  18.867  0.00  0.00    +0.000 OA
ATOM     29  C   UNL     1       8.178   6.816  18.744  0.00  0.00    +0.000 A 
ENDBRANCH   9  25
TORSDOF 6
ENDMDL
MODEL 3
REMARK VINA RESULT:      -6.7      1.915      6.319
REMARK  Name = 
REMARK  6 active torsions:
REMARK  status: ('A' for Active; 'I' for Inactive)
REMARK    1  A    between atoms: C_7  and  C_8
REMARK    2  A    between atoms: C_10  and  C_11
REMARK    3  A    between atoms: C_11  and  O_12
REMARK    4  A    between atoms: C_13  and  O_14
REMARK    5  A    between atoms: C_15  and  O_16
REMARK    6  A    between atoms: C_18  and  C_19
REMARK                            x       y       z     vdW  Elec       q    Type
REMARK                         _______ _______ _______ _____ _____    ______ ____
ROOT
ATOM      1  N   UNL     1       0.154   4.459  20.475  0.00  0.00    +0.000 N 
ATOM      2  C   UNL     1       1.229   4.025  19.755  0.00  0.00    +0.000 A 
ATOM      3  N   UNL     1       1.295   2.746  19.540  0.00  0.00    +0.000 NA
ATOM      4  C   UNL     1       2.337   2.251  18.801  0.00  0.00    +0.000 A 
ATOM      5  N   UNL     1       3.306   2.925  18.271  0.00  0.00    +0.000 NA
ATOM      6  N   UNL     1       3.240   4.252  18.489  0.00  0.00    +0.000 N 
ATOM      7  C   UNL     1       4.142   5.186  18.035  0.00  0.00    +0.000 A 
ATOM      8  C   UNL     1       3.695   6.422  18.469  0.00  0.00    +0.000 A 
ATOM      9  C   UNL     1       2.521   6.222  19.238  0.00  0.00    +0.000 A 
ATOM     10  C   UNL     1       2.254   4.865  19.213  0.00  0.00    +0.000 A 
ATOM     11  H   UNL     1      -0.553   3.739  20.577  0.00  0.00    +0.000 HD
ATOM     12  H   UNL     1      -0.235   5.346  20.176  0.00  0.00    +0.000 HD
ENDROOT
BRANCH   7  13
ATOM     13  C   UNL     1       5.387   4.869  17.280  0.00  0.00    +0.000 C 
ATOM     14  O   UNL     1       6.347   4.262  18.165  0.00  0.00    +0.000 OA
ATOM     15  C   UNL     1       7.669   4.738  17.789  0.00  0.00    +0.000 C 
ATOM     16  C   UNL     1       7.501   5.560  16.513  0.00  0.00    +0.000 C 
ATOM     17  C   UNL     1       6.068   6.062  16.614  0.00  0.00    +0.000 C 
BRANCH  16  18
ATOM     18  O   UNL     1       7.609   4.737  15.334  0.00  0.00    +0.000 OA
ATOM     19  H   UNL     1       7.010   3.973  15.432  0.00  0.00    +0.000 HD
ENDBRANCH  16  18
BRANCH  17  20
ATOM     20  O   UNL     1       5.531   6.363  15.326  0.00  0.00    +0.000 OA
ATOM     21  H   UNL     1       6.044   7.129  14.994  0.00  0.00    +0.000 HD
ENDBRANCH  17  20
BRANCH  15  22
ATOM     22  C   UNL     1       8.253   5.550  18.945  0.00  0.00    +0.000 C 
BRANCH  22  23
ATOM     23  O   UNL     1       7.425   5.410  20.099  0.00  0.00    +0.000 OA
ATOM     24  H   UNL     1       7.785   4.640  20.582  0.00  0.00    +0.000 HD
ENDBRANCH  22  23
ENDBRANCH  15  22
ENDBRANCH   7  13
BRANCH   9  25
ATOM     25  C   UNL     1       1.818   7.316  19.898  0.00  0.00    +0.000 A 
ATOM     26  C   UNL     1       1.343   7.292  21.234  0.00  0.00    +0.000 A 
ATOM     27  C   UNL     1       0.757   8.517  21.455  0.00  0.00    +0.000 A 
ATOM     28  O   UNL     1       0.817   9.282  20.334  0.00  0.00    +0.000 OA
ATOM     29  C   UNL     1       1.439   8.535  19.383  0.00  0.00    +0.000 A 
ENDBRANCH   9  25
TORSDOF 6
ENDMDL
MODEL 4
REMARK VINA RESULT:      -6.6      3.623      4.847
REMARK  Name = 
REMARK  6 active torsions:
REMARK  status: ('A' for Active; 'I' for Inactive)
REMARK    1  A    between atoms: C_7  and  C_8
REMARK    2  A    between atoms: C_10  and  C_11
REMARK    3  A    between atoms: C_11  and  O_12
REMARK    4  A    between atoms: C_13  and  O_14
REMARK    5  A    between atoms: C_15  and  O_16
REMARK    6  A    between atoms: C_18  and  C_19
REMARK                            x       y       z     vdW  Elec       q    Type
REMARK                         _______ _______ _______ _____ _____    ______ ____
ROOT
ATOM      1  N   UNL     1       8.184   4.906  16.699  0.00  0.00    +0.000 N 
ATOM      2  C   UNL     1       7.070   4.711  17.463  0.00  0.00    +0.000 A 
ATOM      3  N   UNL     1       7.222   4.853  18.745  0.00  0.00    +0.000 NA
ATOM      4  C   UNL     1       6.136   4.696  19.564  0.00  0.00    +0.000 A 
ATOM      5  N   UNL     1       4.926   4.408  19.207  0.00  0.00    +0.000 NA
ATOM      6  N   UNL     1       4.762   4.263  17.878  0.00  0.00    +0.000 N 
ATOM      7  C   UNL     1       3.579   3.959  17.244  0.00  0.00    +0.000 A 
ATOM      8  C   UNL     1       3.850   3.918  15.886  0.00  0.00    +0.000 A 
ATOM      9  C   UNL     1       5.235   4.158  15.704  0.00  0.00    +0.000 A 
ATOM     10  C   UNL     1       5.768   4.390  16.959  0.00  0.00    +0.000 A 
ATOM     11  H   UNL     1       8.939   5.329  17.227  0.00  0.00    +0.000 HD
ATOM     12  H   UNL     1       8.022   5.369  15.812  0.00  0.00    +0.000 HD
ENDROOT
BRANCH   7  13
ATOM     13  C   UNL     1       2.292   3.672  17.936  0.00  0.00    +0.000 C 
ATOM     14  O   UNL     1       1.783   4.882  18.528  0.00  0.00    +0.000 OA
ATOM     15  C   UNL     1       1.161   4.535  19.797  0.00  0.00    +0.000 C 
ATOM     16  C   UNL     1       1.172   3.012  19.897  0.00  0.00    +0.000 C 
ATOM     17  C   UNL     1       2.366   2.619  19.040  0.00  0.00    +0.000 C 
BRANCH  16  18
ATOM     18  O   UNL     1      -0.013   2.434  19.312  0.00  0.00    +0.000 OA
ATOM     19  H   UNL     1      -0.722   3.104  19.321  0.00  0.00    +0.000 HD
ENDBRANCH  16  18
BRANCH  17  20
ATOM     20  O   UNL     1       2.236   1.285  18.547  0.00  0.00    +0.000 OA
ATOM     21  H   UNL     1       1.277   1.087  18.563  0.00  0.00    +0.000 HD
ENDBRANCH  17  20
BRANCH  15  22
ATOM     22  C   UNL     1       1.935   5.210  20.931  0.00  0.00    +0.000 C 
BRANCH  22  23
ATOM     23  O   UNL     1       2.903   6.105  20.386  0.00  0.00    +0.000 OA
ATOM     24  H   UNL     1       2.388   6.858  20.035  0.00  0.00    +0.000 HD
ENDBRANCH  22  23
ENDBRANCH  15  22
ENDBRANCH   7  13
BRANCH   9  25
ATOM     25  C   UNL     1       5.872   4.129  14.393  0.00  0.00    +0.000 A 
ATOM     26  C   UNL     1       5.490   3.285  13.319  0.00  0.00    +0.000 A 
ATOM     27  C   UNL     1       6.335   3.585  12.276  0.00  0.00    +0.000 A 
ATOM     28  O   UNL     1       7.228   4.538  12.647  0.00  0.00    +0.000 OA
ATOM     29  C   UNL     1       6.959   4.844  13.944  0.00  0.00    +0.000 A 
ENDBRANCH   9  25
TORSDOF 6
ENDMDL
MODEL 5
REMARK VINA RESULT:      -6.6      2.683      4.556
REMARK  Name = 
REMARK  6 active torsions:
REMARK  status: ('A' for Active; 'I' for Inactive)
REMARK    1  A    between atoms: C_7  and  C_8
REMARK    2  A    between atoms: C_10  and  C_11
REMARK    3  A    between atoms: C_11  and  O_12
REMARK    4  A    between atoms: C_13  and  O_14
REMARK    5  A    between atoms: C_15  and  O_16
REMARK    6  A    between atoms: C_18  and  C_19
REMARK                            x       y       z     vdW  Elec       q    Type
REMARK                         _______ _______ _______ _____ _____    ______ ____
ROOT
ATOM      1  N   UNL     1       3.917   4.140  18.126  0.00  0.00    +0.000 N 
ATOM      2  C   UNL     1       3.646   5.477  18.102  0.00  0.00    +0.000 A 
ATOM      3  N   UNL     1       4.223   6.161  17.162  0.00  0.00    +0.000 NA
ATOM      4  C   UNL     1       3.970   7.504  17.068  0.00  0.00    +0.000 A 
ATOM      5  N   UNL     1       3.199   8.208  17.833  0.00  0.00    +0.000 NA
ATOM      6  N   UNL     1       2.596   7.501  18.809  0.00  0.00    +0.000 N 
ATOM      7  C   UNL     1       1.732   8.010  19.751  0.00  0.00    +0.000 A 
ATOM      8  C   UNL     1       1.337   6.949  20.548  0.00  0.00    +0.000 A 
ATOM      9  C   UNL     1       2.013   5.785  20.103  0.00  0.00    +0.000 A 
ATOM     10  C   UNL     1       2.772   6.159  19.009  0.00  0.00    +0.000 A 
ATOM     11  H   UNL     1       4.382   3.829  17.280  0.00  0.00    +0.000 HD
ATOM     12  H   UNL     1       3.136   3.546  18.381  0.00  0.00    +0.000 HD
ENDROOT
BRANCH   7  13
ATOM     13  C   UNL     1       1.373   9.449  19.886  0.00  0.00    +0.000 C 
ATOM     14  O   UNL     1       1.438   9.834  21.272  0.00  0.00    +0.000 OA
ATOM     15  C   UNL     1       0.361  10.777  21.529  0.00  0.00    +0.000 C 
ATOM     16  C   UNL     1      -0.294  11.083  20.184  0.00  0.00    +0.000 C 
ATOM     17  C   UNL     1      -0.014   9.827  19.371  0.00  0.00    +0.000 C 
BRANCH  16  18
ATOM     18  O   UNL     1       0.344  12.197  19.526  0.00  0.00    +0.000 OA
ATOM     19  H   UNL     1       0.017  12.244  18.608  0.00  0.00    +0.000 HD
ENDBRANCH  16  18
BRANCH  17  20
ATOM     20  O   UNL     1      -0.033  10.099  17.970  0.00  0.00    +0.000 OA
ATOM     21  H   UNL     1       0.471   9.373  17.550  0.00  0.00    +0.000 HD
ENDBRANCH  17  20
BRANCH  15  22
ATOM     22  C   UNL     1      -0.611  10.159  22.535  0.00  0.00    +0.000 C 
BRANCH  22  23
ATOM     23  O   UNL     1       0.089   9.805  23.727  0.00  0.00    +0.000 OA
ATOM     24  H   UNL     1       0.154   8.829  23.707  0.00  0.00    +0.000 HD
ENDBRANCH  22  23
ENDBRANCH  15  22
ENDBRANCH   7  13
BRANCH   9  25
ATOM     25  C   UNL     1       1.870   4.493  20.762  0.00  0.00    +0.000 A 
ATOM     26  C   UNL     1       0.931   3.493  20.403  0.00  0.00    +0.000 A 
ATOM     27  C   UNL     1       1.142   2.441  21.264  0.00  0.00    +0.000 A 
ATOM     28  O   UNL     1       2.131   2.739  22.145  0.00  0.00    +0.000 OA
ATOM     29  C   UNL     1       2.550   3.999  21.852  0.00  0.00    +0.000 A 
ENDBRANCH   9  25
TORSDOF 6
ENDMDL
MODEL 6
REMARK VINA RESULT:      -6.4      3.963      5.737
REMARK  Name = 
REMARK  6 active torsions:
REMARK  status: ('A' for Active; 'I' for Inactive)
REMARK    1  A    between atoms: C_7  and  C_8
REMARK    2  A    between atoms: C_10  and  C_11
REMARK    3  A    between atoms: C_11  and  O_12
REMARK    4  A    between atoms: C_13  and  O_14
REMARK    5  A    between atoms: C_15  and  O_16
REMARK    6  A    between atoms: C_18  and  C_19
REMARK                            x       y       z     vdW  Elec       q    Type
REMARK                         _______ _______ _______ _____ _____    ______ ____
ROOT
ATOM      1  N   UNL     1       7.934   5.688  14.813  0.00  0.00    +0.000 N 
ATOM      2  C   UNL     1       6.805   4.972  15.087  0.00  0.00    +0.000 A 
ATOM      3  N   UNL     1       6.453   4.096  14.196  0.00  0.00    +0.000 NA
ATOM      4  C   UNL     1       5.343   3.326  14.424  0.00  0.00    +0.000 A 
ATOM      5  N   UNL     1       4.566   3.366  15.458  0.00  0.00    +0.000 NA
ATOM      6  N   UNL     1       4.930   4.271  16.387  0.00  0.00    +0.000 N 
ATOM      7  C   UNL     1       4.275   4.511  17.573  0.00  0.00    +0.000 A 
ATOM      8  C   UNL     1       4.983   5.502  18.231  0.00  0.00    +0.000 A 
ATOM      9  C   UNL     1       6.062   5.899  17.401  0.00  0.00    +0.000 A 
ATOM     10  C   UNL     1       6.012   5.100  16.273  0.00  0.00    +0.000 A 
ATOM     11  H   UNL     1       8.455   5.298  14.036  0.00  0.00    +0.000 HD
ATOM     12  H   UNL     1       8.522   5.888  15.614  0.00  0.00    +0.000 HD
ENDROOT
BRANCH   7  13
ATOM     13  C   UNL     1       3.009   3.848  17.995  0.00  0.00    +0.000 C 
ATOM     14  O   UNL     1       2.274   4.725  18.869  0.00  0.00    +0.000 OA
ATOM     15  C   UNL     1       1.636   3.910  19.891  0.00  0.00    +0.000 C 
ATOM     16  C   UNL     1       1.886   2.451  19.518  0.00  0.00    +0.000 C 
ATOM     17  C   UNL     1       3.180   2.516  18.722  0.00  0.00    +0.000 C 
BRANCH  16  18
ATOM     18  O   UNL     1       0.850   1.940  18.655  0.00  0.00    +0.000 OA
ATOM     19  H   UNL     1       0.443   2.689  18.181  0.00  0.00    +0.000 HD
ENDBRANCH  16  18
BRANCH  17  20
ATOM     20  O   UNL     1       3.299   1.407  17.831  0.00  0.00    +0.000 OA
ATOM     21  H   UNL     1       3.477   1.791  16.948  0.00  0.00    +0.000 HD
ENDBRANCH  17  20
BRANCH  15  22
ATOM     22  C   UNL     1       2.216   4.281  21.257  0.00  0.00    +0.000 C 
BRANCH  22  23
ATOM     23  O   UNL     1       2.244   3.128  22.097  0.00  0.00    +0.000 OA
ATOM     24  H   UNL     1       2.087   3.464  23.001  0.00  0.00    +0.000 HD
ENDBRANCH  22  23
ENDBRANCH  15  22
ENDBRANCH   7  13
BRANCH   9  25
ATOM     25  C   UNL     1       6.981   6.971  17.765  0.00  0.00    +0.000 A 
ATOM     26  C   UNL     1       8.039   6.855  18.703  0.00  0.00    +0.000 A 
ATOM     27  C   UNL     1       8.658   8.083  18.737  0.00  0.00    +0.000 A 
ATOM     28  O   UNL     1       8.034   8.953  17.902  0.00  0.00    +0.000 OA
ATOM     29  C   UNL     1       6.999   8.278  17.335  0.00  0.00    +0.000 A 
ENDBRANCH   9  25
TORSDOF 6
ENDMDL
MODEL 7
REMARK VINA RESULT:      -6.4      2.987      6.826
REMARK  Name = 
REMARK  6 active torsions:
REMARK  status: ('A' for Active; 'I' for Inactive)
REMARK    1  A    between atoms: C_7  and  C_8
REMARK    2  A    between atoms: C_10  and  C_11
REMARK    3  A    between atoms: C_11  and  O_12
REMARK    4  A    between atoms: C_13  and  O_14
REMARK    5  A    between atoms: C_15  and  O_16
REMARK    6  A    between atoms: C_18  and  C_19
REMARK                            x       y       z     vdW  Elec       q    Type
REMARK                         _______ _______ _______ _____ _____    ______ ____
ROOT
ATOM      1  N   UNL     1       1.560  10.364  19.061  0.00  0.00    +0.000 N 
ATOM      2  C   UNL     1       1.977   9.131  18.650  0.00  0.00    +0.000 A 
ATOM      3  N   UNL     1       2.468   9.064  17.450  0.00  0.00    +0.000 NA
ATOM      4  C   UNL     1       2.928   7.860  16.987  0.00  0.00    +0.000 A 
ATOM      5  N   UNL     1       2.933   6.732  17.622  0.00  0.00    +0.000 NA
ATOM      6  N   UNL     1       2.427   6.797  18.869  0.00  0.00    +0.000 N 
ATOM      7  C   UNL     1       2.320   5.744  19.747  0.00  0.00    +0.000 A 
ATOM      8  C   UNL     1       1.763   6.246  20.911  0.00  0.00    +0.000 A 
ATOM      9  C   UNL     1       1.488   7.623  20.712  0.00  0.00    +0.000 A 
ATOM     10  C   UNL     1       1.933   7.938  19.440  0.00  0.00    +0.000 A 
ATOM     11  H   UNL     1       1.873  11.100  18.438  0.00  0.00    +0.000 HD
ATOM     12  H   UNL     1       1.739  10.576  20.036  0.00  0.00    +0.000 HD
ENDROOT
BRANCH   7  13
ATOM     13  C   UNL     1       2.685   4.334  19.434  0.00  0.00    +0.000 C 
ATOM     14  O   UNL     1       4.117   4.219  19.330  0.00  0.00    +0.000 OA
ATOM     15  C   UNL     1       4.417   3.271  18.269  0.00  0.00    +0.000 C 
ATOM     16  C   UNL     1       3.086   2.678  17.812  0.00  0.00    +0.000 C 
ATOM     17  C   UNL     1       2.087   3.776  18.144  0.00  0.00    +0.000 C 
BRANCH  16  18
ATOM     18  O   UNL     1       2.739   1.505  18.577  0.00  0.00    +0.000 OA
ATOM     19  H   UNL     1       1.982   1.723  19.152  0.00  0.00    +0.000 HD
ENDBRANCH  16  18
BRANCH  17  20
ATOM     20  O   UNL     1       0.773   3.247  18.323  0.00  0.00    +0.000 OA
ATOM     21  H   UNL     1       0.415   3.685  19.122  0.00  0.00    +0.000 HD
ENDBRANCH  17  20
BRANCH  15  22
ATOM     22  C   UNL     1       5.158   4.000  17.147  0.00  0.00    +0.000 C 
BRANCH  22  23
ATOM     23  O   UNL     1       5.560   5.293  17.596  0.00  0.00    +0.000 OA
ATOM     24  H   UNL     1       6.506   5.365  17.358  0.00  0.00    +0.000 HD
ENDBRANCH  22  23
ENDBRANCH  15  22
ENDBRANCH   7  13
BRANCH   9  25
ATOM     25  C   UNL     1       0.843   8.450  21.723  0.00  0.00    +0.000 A 
ATOM     26  C   UNL     1      -0.556   8.647  21.846  0.00  0.00    +0.000 A 
ATOM     27  C   UNL     1      -0.734   9.479  22.927  0.00  0.00    +0.000 A 
ATOM     28  O   UNL     1       0.465   9.828  23.461  0.00  0.00    +0.000 OA
ATOM     29  C   UNL     1       1.421   9.221  22.707  0.00  0.00    +0.000 A 
ENDBRANCH   9  25
TORSDOF 6
ENDMDL
MODEL 8
REMARK VINA RESULT:      -6.3      4.056      5.499
REMARK  Name = 
REMARK  6 active torsions:
REMARK  status: ('A' for Active; 'I' for Inactive)
REMARK    1  A    between atoms: C_7  and  C_8
REMARK    2  A    between atoms: C_10  and  C_11
REMARK    3  A    between atoms: C_11  and  O_12
REMARK    4  A    between atoms: C_13  and  O_14
REMARK    5  A    between atoms: C_15  and  O_16
REMARK    6  A    between atoms: C_18  and  C_19
REMARK                            x       y       z     vdW  Elec       q    Type
REMARK                         _______ _______ _______ _____ _____    ______ ____
ROOT
ATOM      1  N   UNL     1       7.902   6.165  15.912  0.00  0.00    +0.000 N 
ATOM      2  C   UNL     1       7.262   5.846  17.075  0.00  0.00    +0.000 A 
ATOM      3  N   UNL     1       7.732   6.392  18.155  0.00  0.00    +0.000 NA
ATOM      4  C   UNL     1       7.118   6.132  19.351  0.00  0.00    +0.000 A 
ATOM      5  N   UNL     1       6.086   5.376  19.549  0.00  0.00    +0.000 NA
ATOM      6  N   UNL     1       5.593   4.810  18.431  0.00  0.00    +0.000 N 
ATOM      7  C   UNL     1       4.506   3.969  18.369  0.00  0.00    +0.000 A 
ATOM      8  C   UNL     1       4.335   3.629  17.038  0.00  0.00    +0.000 A 
ATOM      9  C   UNL     1       5.369   4.245  16.288  0.00  0.00    +0.000 A 
ATOM     10  C   UNL     1       6.121   4.988  17.181  0.00  0.00    +0.000 A 
ATOM     11  H   UNL     1       8.541   6.944  16.029  0.00  0.00    +0.000 HD
ATOM     12  H   UNL     1       7.299   6.274  15.104  0.00  0.00    +0.000 HD
ENDROOT
BRANCH   7  13
ATOM     13  C   UNL     1       3.734   3.490  19.550  0.00  0.00    +0.000 C 
ATOM     14  O   UNL     1       3.172   2.195  19.266  0.00  0.00    +0.000 OA
ATOM     15  C   UNL     1       1.858   2.128  19.885  0.00  0.00    +0.000 C 
ATOM     16  C   UNL     1       1.688   3.403  20.708  0.00  0.00    +0.000 C 
ATOM     17  C   UNL     1       2.588   4.398  19.992  0.00  0.00    +0.000 C 
BRANCH  16  18
ATOM     18  O   UNL     1       2.182   3.234  22.053  0.00  0.00    +0.000 OA
ATOM     19  H   UNL     1       1.492   2.797  22.585  0.00  0.00    +0.000 HD
ENDBRANCH  16  18
BRANCH  17  20
ATOM     20  O   UNL     1       3.011   5.442  20.869  0.00  0.00    +0.000 OA
ATOM     21  H   UNL     1       3.283   6.184  20.290  0.00  0.00    +0.000 HD
ENDBRANCH  17  20
BRANCH  15  22
ATOM     22  C   UNL     1       0.799   1.983  18.791  0.00  0.00    +0.000 C 
BRANCH  22  23
ATOM     23  O   UNL     1       1.436   1.804  17.526  0.00  0.00    +0.000 OA
ATOM     24  H   UNL     1       0.736   1.961  16.862  0.00  0.00    +0.000 HD
ENDBRANCH  22  23
ENDBRANCH  15  22
ENDBRANCH   7  13
BRANCH   9  25
ATOM     25  C   UNL     1       5.522   4.049  14.852  0.00  0.00    +0.000 A 
ATOM     26  C   UNL     1       6.761   3.961  14.167  0.00  0.00    +0.000 A 
ATOM     27  C   UNL     1       6.454   3.766  12.841  0.00  0.00    +0.000 A 
ATOM     28  O   UNL     1       5.108   3.756  12.661  0.00  0.00    +0.000 OA
ATOM     29  C   UNL     1       4.548   3.956  13.884  0.00  0.00    +0.000 A 
ENDBRANCH   9  25
TORSDOF 6
ENDMDL
MODEL 9
REMARK VINA RESULT:      -6.3      1.307      1.466
REMARK  Name = 
REMARK  6 active torsions:
REMARK  status: ('A' for Active; 'I' for Inactive)
REMARK    1  A    between atoms: C_7  and  C_8
REMARK    2  A    between atoms: C_10  and  C_11
REMARK    3  A    between atoms: C_11  and  O_12
REMARK    4  A    between atoms: C_13  and  O_14
REMARK    5  A    between atoms: C_15  and  O_16
REMARK    6  A    between atoms: C_18  and  C_19
REMARK                            x       y       z     vdW  Elec       q    Type
REMARK                         _______ _______ _______ _____ _____    ______ ____
ROOT
ATOM      1  N   UNL     1       4.206   1.936  17.849  0.00  0.00    +0.000 N 
ATOM      2  C   UNL     1       3.291   2.817  18.348  0.00  0.00    +0.000 A 
ATOM      3  N   UNL     1       2.359   2.311  19.097  0.00  0.00    +0.000 NA
ATOM      4  C   UNL     1       1.425   3.147  19.649  0.00  0.00    +0.000 A 
ATOM      5  N   UNL     1       1.350   4.431  19.511  0.00  0.00    +0.000 NA
ATOM      6  N   UNL     1       2.317   4.961  18.737  0.00  0.00    +0.000 N 
ATOM      7  C   UNL     1       2.461   6.295  18.434  0.00  0.00    +0.000 A 
ATOM      8  C   UNL     1       3.582   6.406  17.630  0.00  0.00    +0.000 A 
ATOM      9  C   UNL     1       4.098   5.104  17.408  0.00  0.00    +0.000 A 
ATOM     10  C   UNL     1       3.301   4.232  18.127  0.00  0.00    +0.000 A 
ATOM     11  H   UNL     1       4.143   1.027  18.294  0.00  0.00    +0.000 HD
ATOM     12  H   UNL     1       5.158   2.283  17.805  0.00  0.00    +0.000 HD
ENDROOT
BRANCH   7  13
ATOM     13  C   UNL     1       1.523   7.371  18.861  0.00  0.00    +0.000 C 
ATOM     14  O   UNL     1       1.335   8.304  17.781  0.00  0.00    +0.000 OA
ATOM     15  C   UNL     1       1.228   9.638  18.351  0.00  0.00    +0.000 C 
ATOM     16  C   UNL     1       1.204   9.472  19.869  0.00  0.00    +0.000 C 
ATOM     17  C   UNL     1       1.961   8.171  20.086  0.00  0.00    +0.000 C 
BRANCH  16  18
ATOM     18  O   UNL     1      -0.141   9.300  20.362  0.00  0.00    +0.000 OA
ATOM     19  H   UNL     1      -0.118   9.311  21.337  0.00  0.00    +0.000 HD
ENDBRANCH  16  18
BRANCH  17  20
ATOM     20  O   UNL     1       1.590   7.553  21.318  0.00  0.00    +0.000 OA
ATOM     21  H   UNL     1       1.554   6.591  21.134  0.00  0.00    +0.000 HD
ENDBRANCH  17  20
BRANCH  15  22
ATOM     22  C   UNL     1       2.406  10.483  17.865  0.00  0.00    +0.000 C 
BRANCH  22  23
ATOM     23  O   UNL     1       2.083  11.868  17.976  0.00  0.00    +0.000 OA
ATOM     24  H   UNL     1       1.229  11.971  17.511  0.00  0.00    +0.000 HD
ENDBRANCH  22  23
ENDBRANCH  15  22
ENDBRANCH   7  13
BRANCH   9  25
ATOM     25  C   UNL     1       5.250   4.850  16.551  0.00  0.00    +0.000 A 
ATOM     26  C   UNL     1       6.604   5.045  16.926  0.00  0.00    +0.000 A 
ATOM     27  C   UNL     1       7.360   4.677  15.837  0.00  0.00    +0.000 A 
ATOM     28  O   UNL     1       6.559   4.295  14.809  0.00  0.00    +0.000 OA
ATOM     29  C   UNL     1       5.277   4.429  15.241  0.00  0.00    +0.000 A 
ENDBRANCH   9  25
TORSDOF 6
ENDMDL
