MODEL 1
REMARK VINA RESULT:      -8.3      0.000      0.000
REMARK  Name = 
REMARK  5 active torsions:
REMARK  status: ('A' for Active; 'I' for Inactive)
REMARK    1  A    between atoms: C_1  and  C_2
REMARK    2  A    between atoms: C_2  and  C_3
REMARK    3  A    between atoms: C_3  and  N_4
REMARK    4  A    between atoms: C_11  and  C_12
REMARK    5  A    between atoms: C_12  and  C_13
REMARK                            x       y       z     vdW  Elec       q    Type
REMARK                         _______ _______ _______ _____ _____    ______ ____
ROOT
ATOM      1  N   UNL     1       3.424   2.822  20.402  0.00  0.00    +0.000 N 
ATOM      2  C   UNL     1       4.524   2.403  19.730  0.00  0.00    +0.000 C 
ATOM      3  N   UNL     1       5.004   1.206  19.805  0.00  0.00    +0.000 NA
ATOM      4  N   UNL     1       5.184   3.354  19.018  0.00  0.00    +0.000 N 
ATOM      5  C   UNL     1       4.633   4.533  18.508  0.00  0.00    +0.000 A 
ATOM      6  C   UNL     1       5.438   5.663  18.393  0.00  0.00    +0.000 A 
ATOM      7  C   UNL     1       4.859   6.882  18.029  0.00  0.00    +0.000 A 
ATOM      8  C   UNL     1       3.494   6.941  17.740  0.00  0.00    +0.000 A 
ATOM      9  C   UNL     1       2.777   5.760  17.846  0.00  0.00    +0.000 A 
ATOM     10  N   UNL     1       3.307   4.585  18.242  0.00  0.00    +0.000 NA
ATOM     11  H   UNL     1       2.941   3.611  19.973  0.00  0.00    +0.000 HD
ATOM     12  H   UNL     1       4.356   0.655  20.371  0.00  0.00    +0.000 HD
ATOM     13  H   UNL     1       5.996   3.011  18.527  0.00  0.00    +0.000 HD
ENDROOT
BRANCH   1  14
ATOM     14  C   UNL     1       2.893   2.302  21.634  0.00  0.00    +0.000 C 
BRANCH  14  16
ATOM     15  C   UNL     1       0.842   3.421  20.603  0.00  0.00    +0.000 C 
ATOM     16  C   UNL     1       1.390   2.569  21.742  0.00  0.00    +0.000 C 
ENDBRANCH  14  16
ENDBRANCH   1  14
BRANCH   8  17
ATOM     17  C   UNL     1       2.791   8.228  17.405  0.00  0.00    +0.000 C 
BRANCH  17  18
ATOM     18  C   UNL     1       1.856   8.688  18.493  0.00  0.00    +0.000 A 
ATOM     19  C   UNL     1       0.938   9.705  18.256  0.00  0.00    +0.000 A 
ATOM     20  C   UNL     1       0.136  10.163  19.298  0.00  0.00    +0.000 A 
ATOM     21  C   UNL     1       0.275   9.625  20.575  0.00  0.00    +0.000 A 
ATOM     22  N   UNL     1      -0.466  10.080  21.669  0.00  0.00    +0.000 N 
ATOM     23  C   UNL     1      -0.961  11.333  21.829  0.00  0.00    +0.000 C 
ATOM     24  N   UNL     1      -0.932  12.335  20.995  0.00  0.00    +0.000 NA
ATOM     25  C   UNL     1      -1.621  13.440  21.703  0.00  0.00    +0.000 C 
ATOM     26  C   UNL     1      -2.360  12.782  22.868  0.00  0.00    +0.000 C 
ATOM     27  N   UNL     1      -1.610  11.550  23.016  0.00  0.00    +0.000 N 
ATOM     28  N   UNL     1       1.129   8.603  20.812  0.00  0.00    +0.000 NA
ATOM     29  C   UNL     1       1.900   8.169  19.782  0.00  0.00    +0.000 A 
ATOM     30  H   UNL     1      -0.177   9.587  22.501  0.00  0.00    +0.000 HD
ATOM     31  H   UNL     1      -2.141  10.762  23.367  0.00  0.00    +0.000 HD
ENDBRANCH  17  18
ENDBRANCH   8  17
TORSDOF 4
ENDMDL
MODEL 2
REMARK VINA RESULT:      -8.1      3.113      9.297
REMARK  Name = 
REMARK  5 active torsions:
REMARK  status: ('A' for Active; 'I' for Inactive)
REMARK    1  A    between atoms: C_1  and  C_2
REMARK    2  A    between atoms: C_2  and  C_3
REMARK    3  A    between atoms: C_3  and  N_4
REMARK    4  A    between atoms: C_11  and  C_12
REMARK    5  A    between atoms: C_12  and  C_13
REMARK                            x       y       z     vdW  Elec       q    Type
REMARK                         _______ _______ _______ _____ _____    ______ ____
ROOT
ATOM      1  N   UNL     1      -5.524  11.780  19.562  0.00  0.00    +0.000 N 
ATOM      2  C   UNL     1      -5.872  11.439  18.297  0.00  0.00    +0.000 C 
ATOM      3  N   UNL     1      -7.058  11.590  17.809  0.00  0.00    +0.000 NA
ATOM      4  N   UNL     1      -4.910  10.823  17.562  0.00  0.00    +0.000 N 
ATOM      5  C   UNL     1      -3.530  10.933  17.752  0.00  0.00    +0.000 A 
ATOM      6  C   UNL     1      -2.712   9.852  17.432  0.00  0.00    +0.000 A 
ATOM      7  C   UNL     1      -1.355   9.899  17.760  0.00  0.00    +0.000 A 
ATOM      8  C   UNL     1      -0.827  11.044  18.361  0.00  0.00    +0.000 A 
ATOM      9  C   UNL     1      -1.706  12.086  18.610  0.00  0.00    +0.000 A 
ATOM     10  N   UNL     1      -3.027  12.041  18.346  0.00  0.00    +0.000 NA
ATOM     11  H   UNL     1      -4.533  11.980  19.690  0.00  0.00    +0.000 HD
ATOM     12  H   UNL     1      -7.616  12.079  18.512  0.00  0.00    +0.000 HD
ATOM     13  H   UNL     1      -5.198  10.585  16.625  0.00  0.00    +0.000 HD
ENDROOT
BRANCH   1  14
ATOM     14  C   UNL     1      -6.378  11.862  20.718  0.00  0.00    +0.000 C 
BRANCH  14  16
ATOM     15  C   UNL     1      -4.241  12.870  21.687  0.00  0.00    +0.000 C 
ATOM     16  C   UNL     1      -5.756  12.748  21.800  0.00  0.00    +0.000 C 
ENDBRANCH  14  16
ENDBRANCH   1  14
BRANCH   8  17
ATOM     17  C   UNL     1       0.608  11.141  18.800  0.00  0.00    +0.000 C 
BRANCH  17  18
ATOM     18  C   UNL     1       1.220   9.800  19.111  0.00  0.00    +0.000 A 
ATOM     19  C   UNL     1       1.926   9.101  18.138  0.00  0.00    +0.000 A 
ATOM     20  C   UNL     1       2.420   7.832  18.428  0.00  0.00    +0.000 A 
ATOM     21  C   UNL     1       2.182   7.257  19.673  0.00  0.00    +0.000 A 
ATOM     22  N   UNL     1       2.607   5.967  20.002  0.00  0.00    +0.000 N 
ATOM     23  C   UNL     1       2.787   4.942  19.132  0.00  0.00    +0.000 C 
ATOM     24  N   UNL     1       2.688   4.948  17.831  0.00  0.00    +0.000 NA
ATOM     25  C   UNL     1       2.991   3.557  17.419  0.00  0.00    +0.000 C 
ATOM     26  C   UNL     1       3.642   2.902  18.637  0.00  0.00    +0.000 C 
ATOM     27  N   UNL     1       3.160   3.755  19.706  0.00  0.00    +0.000 N 
ATOM     28  N   UNL     1       1.539   7.942  20.647  0.00  0.00    +0.000 NA
ATOM     29  C   UNL     1       1.068   9.179  20.345  0.00  0.00    +0.000 A 
ATOM     30  H   UNL     1       2.292   5.734  20.933  0.00  0.00    +0.000 HD
ATOM     31  H   UNL     1       3.779   3.838  20.503  0.00  0.00    +0.000 HD
ENDBRANCH  17  18
ENDBRANCH   8  17
TORSDOF 4
ENDMDL
MODEL 3
REMARK VINA RESULT:      -7.9      2.419      3.970
REMARK  Name = 
REMARK  5 active torsions:
REMARK  status: ('A' for Active; 'I' for Inactive)
REMARK    1  A    between atoms: C_1  and  C_2
REMARK    2  A    between atoms: C_2  and  C_3
REMARK    3  A    between atoms: C_3  and  N_4
REMARK    4  A    between atoms: C_11  and  C_12
REMARK    5  A    between atoms: C_12  and  C_13
REMARK                            x       y       z     vdW  Elec       q    Type
REMARK                         _______ _______ _______ _____ _____    ______ ____
ROOT
ATOM      1  N   UNL     1       6.482   5.246  16.129  0.00  0.00    +0.000 N 
ATOM      2  C   UNL     1       6.770   4.835  17.388  0.00  0.00    +0.000 C 
ATOM      3  N   UNL     1       7.880   4.265  17.725  0.00  0.00    +0.000 NA
ATOM      4  N   UNL     1       5.771   4.964  18.299  0.00  0.00    +0.000 N 
ATOM      5  C   UNL     1       4.711   5.874  18.236  0.00  0.00    +0.000 A 
ATOM      6  C   UNL     1       3.483   5.524  18.791  0.00  0.00    +0.000 A 
ATOM      7  C   UNL     1       2.382   6.363  18.599  0.00  0.00    +0.000 A 
ATOM      8  C   UNL     1       2.536   7.560  17.897  0.00  0.00    +0.000 A 
ATOM      9  C   UNL     1       3.803   7.844  17.411  0.00  0.00    +0.000 A 
ATOM     10  N   UNL     1       4.866   7.027  17.543  0.00  0.00    +0.000 NA
ATOM     11  H   UNL     1       5.795   5.997  16.075  0.00  0.00    +0.000 HD
ATOM     12  H   UNL     1       8.490   4.280  16.906  0.00  0.00    +0.000 HD
ATOM     13  H   UNL     1       6.016   4.652  19.226  0.00  0.00    +0.000 HD
ENDROOT
BRANCH   1  14
ATOM     14  C   UNL     1       7.012   4.734  14.892  0.00  0.00    +0.000 C 
BRANCH  14  16
ATOM     15  C   UNL     1       6.334   3.634  12.689  0.00  0.00    +0.000 C 
ATOM     16  C   UNL     1       5.960   3.916  14.139  0.00  0.00    +0.000 C 
ENDBRANCH  14  16
ENDBRANCH   1  14
BRANCH   8  17
ATOM     17  C   UNL     1       1.384   8.479  17.597  0.00  0.00    +0.000 C 
BRANCH  17  18
ATOM     18  C   UNL     1       1.234   9.584  18.609  0.00  0.00    +0.000 A 
ATOM     19  C   UNL     1       0.532   9.373  19.790  0.00  0.00    +0.000 A 
ATOM     20  C   UNL     1       0.344  10.431  20.676  0.00  0.00    +0.000 A 
ATOM     21  C   UNL     1       0.832  11.697  20.365  0.00  0.00    +0.000 A 
ATOM     22  N   UNL     1       0.629  12.807  21.190  0.00  0.00    +0.000 N 
ATOM     23  C   UNL     1      -0.419  12.993  22.031  0.00  0.00    +0.000 C 
ATOM     24  N   UNL     1      -1.395  12.174  22.313  0.00  0.00    +0.000 NA
ATOM     25  C   UNL     1      -2.238  12.908  23.286  0.00  0.00    +0.000 C 
ATOM     26  C   UNL     1      -1.377  14.070  23.780  0.00  0.00    +0.000 C 
ATOM     27  N   UNL     1      -0.420  14.190  22.697  0.00  0.00    +0.000 N 
ATOM     28  N   UNL     1       1.559  11.909  19.243  0.00  0.00    +0.000 NA
ATOM     29  C   UNL     1       1.732  10.864  18.394  0.00  0.00    +0.000 A 
ATOM     30  H   UNL     1       1.025  13.628  20.755  0.00  0.00    +0.000 HD
ATOM     31  H   UNL     1       0.494  14.534  22.966  0.00  0.00    +0.000 HD
ENDBRANCH  17  18
ENDBRANCH   8  17
TORSDOF 4
ENDMDL
MODEL 4
REMARK VINA RESULT:      -7.8      3.392      4.428
REMARK  Name = 
REMARK  5 active torsions:
REMARK  status: ('A' for Active; 'I' for Inactive)
REMARK    1  A    between atoms: C_1  and  C_2
REMARK    2  A    between atoms: C_2  and  C_3
REMARK    3  A    between atoms: C_3  and  N_4
REMARK    4  A    between atoms: C_11  and  C_12
REMARK    5  A    between atoms: C_12  and  C_13
REMARK                            x       y       z     vdW  Elec       q    Type
REMARK                         _______ _______ _______ _____ _____    ______ ____
ROOT
ATOM      1  N   UNL     1       1.665   4.305  19.301  0.00  0.00    +0.000 N 
ATOM      2  C   UNL     1       2.141   4.366  20.569  0.00  0.00    +0.000 C 
ATOM      3  N   UNL     1       2.639   3.357  21.203  0.00  0.00    +0.000 NA
ATOM      4  N   UNL     1       1.983   5.555  21.207  0.00  0.00    +0.000 N 
ATOM      5  C   UNL     1       1.853   6.807  20.597  0.00  0.00    +0.000 A 
ATOM      6  C   UNL     1       1.090   7.790  21.222  0.00  0.00    +0.000 A 
ATOM      7  C   UNL     1       0.832   8.986  20.549  0.00  0.00    +0.000 A 
ATOM      8  C   UNL     1       1.379   9.201  19.282  0.00  0.00    +0.000 A 
ATOM      9  C   UNL     1       2.156   8.183  18.752  0.00  0.00    +0.000 A 
ATOM     10  N   UNL     1       2.377   7.002  19.364  0.00  0.00    +0.000 NA
ATOM     11  H   UNL     1       1.677   5.194  18.801  0.00  0.00    +0.000 HD
ATOM     12  H   UNL     1       2.679   2.576  20.545  0.00  0.00    +0.000 HD
ATOM     13  H   UNL     1       2.349   5.570  22.146  0.00  0.00    +0.000 HD
ENDROOT
BRANCH   1  14
ATOM     14  C   UNL     1       1.139   3.156  18.612  0.00  0.00    +0.000 C 
BRANCH  14  16
ATOM     15  C   UNL     1       3.214   3.429  17.148  0.00  0.00    +0.000 C 
ATOM     16  C   UNL     1       2.227   2.461  17.790  0.00  0.00    +0.000 C 
ENDBRANCH  14  16
ENDBRANCH   1  14
BRANCH   8  17
ATOM     17  C   UNL     1       1.092  10.436  18.473  0.00  0.00    +0.000 C 
BRANCH  17  18
ATOM     18  C   UNL     1      -0.374  10.621  18.183  0.00  0.00    +0.000 A 
ATOM     19  C   UNL     1      -1.077  11.688  18.732  0.00  0.00    +0.000 A 
ATOM     20  C   UNL     1      -2.446  11.797  18.509  0.00  0.00    +0.000 A 
ATOM     21  C   UNL     1      -3.112  10.826  17.764  0.00  0.00    +0.000 A 
ATOM     22  N   UNL     1      -4.493  10.855  17.551  0.00  0.00    +0.000 N 
ATOM     23  C   UNL     1      -5.415  11.406  18.380  0.00  0.00    +0.000 C 
ATOM     24  N   UNL     1      -5.225  12.080  19.480  0.00  0.00    +0.000 NA
ATOM     25  C   UNL     1      -6.585  12.430  19.953  0.00  0.00    +0.000 C 
ATOM     26  C   UNL     1      -7.508  12.187  18.759  0.00  0.00    +0.000 C 
ATOM     27  N   UNL     1      -6.716  11.260  17.975  0.00  0.00    +0.000 N 
ATOM     28  N   UNL     1      -2.437   9.808  17.182  0.00  0.00    +0.000 NA
ATOM     29  C   UNL     1      -1.101   9.722  17.410  0.00  0.00    +0.000 A 
ATOM     30  H   UNL     1      -4.771  10.038  17.027  0.00  0.00    +0.000 HD
ATOM     31  H   UNL     1      -6.863  11.306  16.974  0.00  0.00    +0.000 HD
ENDBRANCH  17  18
ENDBRANCH   8  17
TORSDOF 4
ENDMDL
MODEL 5
REMARK VINA RESULT:      -7.8      3.983      5.799
REMARK  Name = 
REMARK  5 active torsions:
REMARK  status: ('A' for Active; 'I' for Inactive)
REMARK    1  A    between atoms: C_1  and  C_2
REMARK    2  A    between atoms: C_2  and  C_3
REMARK    3  A    between atoms: C_3  and  N_4
REMARK    4  A    between atoms: C_11  and  C_12
REMARK    5  A    between atoms: C_12  and  C_13
REMARK                            x       y       z     vdW  Elec       q    Type
REMARK                         _______ _______ _______ _____ _____    ______ ____
ROOT
ATOM      1  N   UNL     1       6.830   4.133  12.912  0.00  0.00    +0.000 N 
ATOM      2  C   UNL     1       7.592   5.188  13.293  0.00  0.00    +0.000 C 
ATOM      3  N   UNL     1       8.280   5.914  12.476  0.00  0.00    +0.000 NA
ATOM      4  N   UNL     1       7.682   5.403  14.631  0.00  0.00    +0.000 N 
ATOM      5  C   UNL     1       6.747   5.012  15.594  0.00  0.00    +0.000 A 
ATOM      6  C   UNL     1       7.186   4.695  16.877  0.00  0.00    +0.000 A 
ATOM      7  C   UNL     1       6.282   4.160  17.797  0.00  0.00    +0.000 A 
ATOM      8  C   UNL     1       4.943   3.993  17.437  0.00  0.00    +0.000 A 
ATOM      9  C   UNL     1       4.587   4.369  16.151  0.00  0.00    +0.000 A 
ATOM     10  N   UNL     1       5.454   4.842  15.233  0.00  0.00    +0.000 NA
ATOM     11  H   UNL     1       6.066   3.910  13.549  0.00  0.00    +0.000 HD
ATOM     12  H   UNL     1       8.060   5.597  11.530  0.00  0.00    +0.000 HD
ATOM     13  H   UNL     1       8.253   6.196  14.883  0.00  0.00    +0.000 HD
ENDROOT
BRANCH   1  14
ATOM     14  C   UNL     1       6.995   3.303  11.748  0.00  0.00    +0.000 C 
BRANCH  14  16
ATOM     15  C   UNL     1       6.343   0.931  11.062  0.00  0.00    +0.000 C 
ATOM     16  C   UNL     1       5.881   2.256  11.656  0.00  0.00    +0.000 C 
ENDBRANCH  14  16
ENDBRANCH   1  14
BRANCH   8  17
ATOM     17  C   UNL     1       3.929   3.364  18.352  0.00  0.00    +0.000 C 
BRANCH  17  18
ATOM     18  C   UNL     1       3.103   4.376  19.101  0.00  0.00    +0.000 A 
ATOM     19  C   UNL     1       2.529   5.454  18.436  0.00  0.00    +0.000 A 
ATOM     20  C   UNL     1       1.832   6.416  19.161  0.00  0.00    +0.000 A 
ATOM     21  C   UNL     1       1.737   6.314  20.547  0.00  0.00    +0.000 A 
ATOM     22  N   UNL     1       1.095   7.276  21.332  0.00  0.00    +0.000 N 
ATOM     23  C   UNL     1       0.969   8.593  21.032  0.00  0.00    +0.000 C 
ATOM     24  N   UNL     1       1.331   9.222  19.948  0.00  0.00    +0.000 NA
ATOM     25  C   UNL     1       0.946  10.634  20.182  0.00  0.00    +0.000 C 
ATOM     26  C   UNL     1      -0.016  10.606  21.368  0.00  0.00    +0.000 C 
ATOM     27  N   UNL     1       0.341   9.345  21.990  0.00  0.00    +0.000 N 
ATOM     28  N   UNL     1       2.248   5.247  21.204  0.00  0.00    +0.000 NA
ATOM     29  C   UNL     1       2.922   4.319  20.478  0.00  0.00    +0.000 A 
ATOM     30  H   UNL     1       1.182   7.028  22.307  0.00  0.00    +0.000 HD
ATOM     31  H   UNL     1      -0.412   8.878  22.480  0.00  0.00    +0.000 HD
ENDBRANCH  17  18
ENDBRANCH   8  17
TORSDOF 4
ENDMDL
MODEL 6
REMARK VINA RESULT:      -7.7      3.326      4.720
REMARK  Name = 
REMARK  5 active torsions:
REMARK  status: ('A' for Active; 'I' for Inactive)
REMARK    1  A    between atoms: C_1  and  C_2
REMARK    2  A    between atoms: C_2  and  C_3
REMARK    3  A    between atoms: C_3  and  N_4
REMARK    4  A    between atoms: C_11  and  C_12
REMARK    5  A    between atoms: C_12  and  C_13
REMARK                            x       y       z     vdW  Elec       q    Type
REMARK                         _______ _______ _______ _____ _____    ______ ____
ROOT
ATOM      1  N   UNL     1       6.306   4.554  13.948  0.00  0.00    +0.000 N 
ATOM      2  C   UNL     1       7.401   5.227  14.378  0.00  0.00    +0.000 C 
ATOM      3  N   UNL     1       8.411   5.518  13.627  0.00  0.00    +0.000 NA
ATOM      4  N   UNL     1       7.440   5.513  15.705  0.00  0.00    +0.000 N 
ATOM      5  C   UNL     1       6.336   5.642  16.553  0.00  0.00    +0.000 A 
ATOM      6  C   UNL     1       6.467   5.296  17.896  0.00  0.00    +0.000 A 
ATOM      7  C   UNL     1       5.334   5.277  18.712  0.00  0.00    +0.000 A 
ATOM      8  C   UNL     1       4.095   5.650  18.186  0.00  0.00    +0.000 A 
ATOM      9  C   UNL     1       4.064   6.014  16.849  0.00  0.00    +0.000 A 
ATOM     10  N   UNL     1       5.136   5.992  16.033  0.00  0.00    +0.000 NA
ATOM     11  H   UNL     1       5.460   4.732  14.488  0.00  0.00    +0.000 HD
ATOM     12  H   UNL     1       8.174   5.232  12.675  0.00  0.00    +0.000 HD
ATOM     13  H   UNL     1       8.265   6.017  15.994  0.00  0.00    +0.000 HD
ENDROOT
BRANCH   1  14
ATOM     14  C   UNL     1       6.218   3.623  12.854  0.00  0.00    +0.000 C 
BRANCH  14  16
ATOM     15  C   UNL     1       4.642   2.598  11.125  0.00  0.00    +0.000 C 
ATOM     16  C   UNL     1       4.803   3.592  12.269  0.00  0.00    +0.000 C 
ENDBRANCH  14  16
ENDBRANCH   1  14
BRANCH   8  17
ATOM     17  C   UNL     1       2.823   5.591  18.986  0.00  0.00    +0.000 C 
BRANCH  17  18
ATOM     18  C   UNL     1       2.326   6.951  19.402  0.00  0.00    +0.000 A 
ATOM     19  C   UNL     1       2.018   7.218  20.731  0.00  0.00    +0.000 A 
ATOM     20  C   UNL     1       1.492   8.458  21.079  0.00  0.00    +0.000 A 
ATOM     21  C   UNL     1       1.249   9.415  20.096  0.00  0.00    +0.000 A 
ATOM     22  N   UNL     1       0.674  10.657  20.378  0.00  0.00    +0.000 N 
ATOM     23  C   UNL     1      -0.179  10.927  21.398  0.00  0.00    +0.000 C 
ATOM     24  N   UNL     1      -0.577  10.139  22.359  0.00  0.00    +0.000 NA
ATOM     25  C   UNL     1      -1.497  10.969  23.174  0.00  0.00    +0.000 C 
ATOM     26  C   UNL     1      -1.235  12.412  22.744  0.00  0.00    +0.000 C 
ATOM     27  N   UNL     1      -0.648  12.214  21.433  0.00  0.00    +0.000 N 
ATOM     28  N   UNL     1       1.588   9.190  18.805  0.00  0.00    +0.000 NA
ATOM     29  C   UNL     1       2.102   7.975  18.488  0.00  0.00    +0.000 A 
ATOM     30  H   UNL     1       0.548  11.174  19.520  0.00  0.00    +0.000 HD
ATOM     31  H   UNL     1       0.016  12.922  21.147  0.00  0.00    +0.000 HD
ENDBRANCH  17  18
ENDBRANCH   8  17
TORSDOF 4
ENDMDL
MODEL 7
REMARK VINA RESULT:      -7.6      3.172      4.451
REMARK  Name = 
REMARK  5 active torsions:
REMARK  status: ('A' for Active; 'I' for Inactive)
REMARK    1  A    between atoms: C_1  and  C_2
REMARK    2  A    between atoms: C_2  and  C_3
REMARK    3  A    between atoms: C_3  and  N_4
REMARK    4  A    between atoms: C_11  and  C_12
REMARK    5  A    between atoms: C_12  and  C_13
REMARK                            x       y       z     vdW  Elec       q    Type
REMARK                         _______ _______ _______ _____ _____    ______ ____
ROOT
ATOM      1  N   UNL     1       6.179   4.543  16.286  0.00  0.00    +0.000 N 
ATOM      2  C   UNL     1       6.814   4.586  17.482  0.00  0.00    +0.000 C 
ATOM      3  N   UNL     1       8.018   4.157  17.677  0.00  0.00    +0.000 NA
ATOM      4  N   UNL     1       6.076   5.028  18.533  0.00  0.00    +0.000 N 
ATOM      5  C   UNL     1       4.963   5.872  18.461  0.00  0.00    +0.000 A 
ATOM      6  C   UNL     1       3.952   5.745  19.410  0.00  0.00    +0.000 A 
ATOM      7  C   UNL     1       2.772   6.476  19.256  0.00  0.00    +0.000 A 
ATOM      8  C   UNL     1       2.639   7.359  18.182  0.00  0.00    +0.000 A 
ATOM      9  C   UNL     1       3.709   7.448  17.306  0.00  0.00    +0.000 A 
ATOM     10  N   UNL     1       4.836   6.715  17.409  0.00  0.00    +0.000 NA
ATOM     11  H   UNL     1       5.440   5.236  16.174  0.00  0.00    +0.000 HD
ATOM     12  H   UNL     1       8.393   3.884  16.767  0.00  0.00    +0.000 HD
ATOM     13  H   UNL     1       6.576   5.051  19.408  0.00  0.00    +0.000 HD
ENDROOT
BRANCH   1  14
ATOM     14  C   UNL     1       6.415   3.634  15.196  0.00  0.00    +0.000 C 
BRANCH  14  16
ATOM     15  C   UNL     1       6.155   3.540  12.656  0.00  0.00    +0.000 C 
ATOM     16  C   UNL     1       6.533   4.385  13.867  0.00  0.00    +0.000 C 
ENDBRANCH  14  16
ENDBRANCH   1  14
BRANCH   8  17
ATOM     17  C   UNL     1       1.375   8.129  17.916  0.00  0.00    +0.000 C 
BRANCH  17  18
ATOM     18  C   UNL     1       1.326   9.447  18.644  0.00  0.00    +0.000 A 
ATOM     19  C   UNL     1       1.854  10.596  18.066  0.00  0.00    +0.000 A 
ATOM     20  C   UNL     1       1.862  11.786  18.788  0.00  0.00    +0.000 A 
ATOM     21  C   UNL     1       1.371  11.817  20.091  0.00  0.00    +0.000 A 
ATOM     22  N   UNL     1       1.401  12.969  20.882  0.00  0.00    +0.000 N 
ATOM     23  C   UNL     1       2.304  13.977  20.786  0.00  0.00    +0.000 C 
ATOM     24  N   UNL     1       3.262  14.134  19.915  0.00  0.00    +0.000 NA
ATOM     25  C   UNL     1       3.919  15.407  20.298  0.00  0.00    +0.000 C 
ATOM     26  C   UNL     1       2.945  16.100  21.249  0.00  0.00    +0.000 C 
ATOM     27  N   UNL     1       2.154  14.976  21.711  0.00  0.00    +0.000 N 
ATOM     28  N   UNL     1       0.809  10.720  20.651  0.00  0.00    +0.000 NA
ATOM     29  C   UNL     1       0.809   9.570  19.929  0.00  0.00    +0.000 A 
ATOM     30  H   UNL     1       1.038  12.758  21.800  0.00  0.00    +0.000 HD
ATOM     31  H   UNL     1       1.197  15.195  21.957  0.00  0.00    +0.000 HD
ENDBRANCH  17  18
ENDBRANCH   8  17
TORSDOF 4
ENDMDL
MODEL 8
REMARK VINA RESULT:      -7.6      2.016      9.031
REMARK  Name = 
REMARK  5 active torsions:
REMARK  status: ('A' for Active; 'I' for Inactive)
REMARK    1  A    between atoms: C_1  and  C_2
REMARK    2  A    between atoms: C_2  and  C_3
REMARK    3  A    between atoms: C_3  and  N_4
REMARK    4  A    between atoms: C_11  and  C_12
REMARK    5  A    between atoms: C_12  and  C_13
REMARK                            x       y       z     vdW  Elec       q    Type
REMARK                         _______ _______ _______ _____ _____    ______ ____
ROOT
ATOM      1  N   UNL     1      -3.140  12.846  21.226  0.00  0.00    +0.000 N 
ATOM      2  C   UNL     1      -3.999  12.815  20.179  0.00  0.00    +0.000 C 
ATOM      3  N   UNL     1      -5.158  13.387  20.179  0.00  0.00    +0.000 NA
ATOM      4  N   UNL     1      -3.622  12.051  19.122  0.00  0.00    +0.000 N 
ATOM      5  C   UNL     1      -2.310  11.709  18.778  0.00  0.00    +0.000 A 
ATOM      6  C   UNL     1      -2.069  10.490  18.150  0.00  0.00    +0.000 A 
ATOM      7  C   UNL     1      -0.751  10.076  17.942  0.00  0.00    +0.000 A 
ATOM      8  C   UNL     1       0.305  10.907  18.323  0.00  0.00    +0.000 A 
ATOM      9  C   UNL     1      -0.029  12.118  18.909  0.00  0.00    +0.000 A 
ATOM     10  N   UNL     1      -1.292  12.514  19.162  0.00  0.00    +0.000 NA
ATOM     11  H   UNL     1      -2.160  12.716  20.975  0.00  0.00    +0.000 HD
ATOM     12  H   UNL     1      -5.236  13.914  21.051  0.00  0.00    +0.000 HD
ATOM     13  H   UNL     1      -4.280  12.050  18.358  0.00  0.00    +0.000 HD
ENDROOT
BRANCH   1  14
ATOM     14  C   UNL     1      -3.455  13.014  22.621  0.00  0.00    +0.000 C 
BRANCH  14  16
ATOM     15  C   UNL     1      -1.430  11.461  22.722  0.00  0.00    +0.000 C 
ATOM     16  C   UNL     1      -2.544  12.153  23.499  0.00  0.00    +0.000 C 
ENDBRANCH  14  16
ENDBRANCH   1  14
BRANCH   8  17
ATOM     17  C   UNL     1       1.746  10.500  18.189  0.00  0.00    +0.000 C 
BRANCH  17  18
ATOM     18  C   UNL     1       2.006   9.092  18.657  0.00  0.00    +0.000 A 
ATOM     19  C   UNL     1       2.638   8.174  17.825  0.00  0.00    +0.000 A 
ATOM     20  C   UNL     1       2.801   6.860  18.252  0.00  0.00    +0.000 A 
ATOM     21  C   UNL     1       2.307   6.461  19.492  0.00  0.00    +0.000 A 
ATOM     22  N   UNL     1       2.395   5.144  19.951  0.00  0.00    +0.000 N 
ATOM     23  C   UNL     1       2.435   4.031  19.175  0.00  0.00    +0.000 C 
ATOM     24  N   UNL     1       2.481   3.944  17.874  0.00  0.00    +0.000 NA
ATOM     25  C   UNL     1       2.508   2.490  17.591  0.00  0.00    +0.000 C 
ATOM     26  C   UNL     1       2.861   1.820  18.919  0.00  0.00    +0.000 C 
ATOM     27  N   UNL     1       2.469   2.848  19.864  0.00  0.00    +0.000 N 
ATOM     28  N   UNL     1       1.733   7.351  20.333  0.00  0.00    +0.000 NA
ATOM     29  C   UNL     1       1.586   8.629  19.899  0.00  0.00    +0.000 A 
ATOM     30  H   UNL     1       1.938   5.067  20.848  0.00  0.00    +0.000 HD
ATOM     31  H   UNL     1       3.000   2.866  20.726  0.00  0.00    +0.000 HD
ENDBRANCH  17  18
ENDBRANCH   8  17
TORSDOF 4
ENDMDL
MODEL 9
REMARK VINA RESULT:      -7.6      3.140      4.278
REMARK  Name = 
REMARK  5 active torsions:
REMARK  status: ('A' for Active; 'I' for Inactive)
REMARK    1  A    between atoms: C_1  and  C_2
REMARK    2  A    between atoms: C_2  and  C_3
REMARK    3  A    between atoms: C_3  and  N_4
REMARK    4  A    between atoms: C_11  and  C_12
REMARK    5  A    between atoms: C_12  and  C_13
REMARK                            x       y       z     vdW  Elec       q    Type
REMARK                         _______ _______ _______ _____ _____    ______ ____
ROOT
ATOM      1  N   UNL     1       1.915   4.101  19.168  0.00  0.00    +0.000 N 
ATOM      2  C   UNL     1       2.432   4.201  20.416  0.00  0.00    +0.000 C 
ATOM      3  N   UNL     1       2.982   3.219  21.051  0.00  0.00    +0.000 NA
ATOM      4  N   UNL     1       2.259   5.396  21.038  0.00  0.00    +0.000 N 
ATOM      5  C   UNL     1       2.070   6.632  20.411  0.00  0.00    +0.000 A 
ATOM      6  C   UNL     1       1.299   7.603  21.044  0.00  0.00    +0.000 A 
ATOM      7  C   UNL     1       0.981   8.778  20.359  0.00  0.00    +0.000 A 
ATOM      8  C   UNL     1       1.478   8.985  19.070  0.00  0.00    +0.000 A 
ATOM      9  C   UNL     1       2.266   7.981  18.532  0.00  0.00    +0.000 A 
ATOM     10  N   UNL     1       2.545   6.819  19.157  0.00  0.00    +0.000 NA
ATOM     11  H   UNL     1       1.882   4.980  18.651  0.00  0.00    +0.000 HD
ATOM     12  H   UNL     1       3.024   2.427  20.406  0.00  0.00    +0.000 HD
ATOM     13  H   UNL     1       2.657   5.441  21.964  0.00  0.00    +0.000 HD
ENDROOT
BRANCH   1  14
ATOM     14  C   UNL     1       1.401   2.924  18.519  0.00  0.00    +0.000 C 
BRANCH  14  16
ATOM     15  C   UNL     1       3.607   3.198  17.262  0.00  0.00    +0.000 C 
ATOM     16  C   UNL     1       2.476   2.256  17.657  0.00  0.00    +0.000 C 
ENDBRANCH  14  16
ENDBRANCH   1  14
BRANCH   8  17
ATOM     17  C   UNL     1       1.124  10.195  18.249  0.00  0.00    +0.000 C 
BRANCH  17  18
ATOM     18  C   UNL     1      -0.218  10.777  18.606  0.00  0.00    +0.000 A 
ATOM     19  C   UNL     1      -1.385  10.253  18.062  0.00  0.00    +0.000 A 
ATOM     20  C   UNL     1      -2.607  10.854  18.349  0.00  0.00    +0.000 A 
ATOM     21  C   UNL     1      -2.655  11.990  19.154  0.00  0.00    +0.000 A 
ATOM     22  N   UNL     1      -3.846  12.666  19.434  0.00  0.00    +0.000 N 
ATOM     23  C   UNL     1      -4.943  12.711  18.637  0.00  0.00    +0.000 C 
ATOM     24  N   UNL     1      -5.159  12.091  17.510  0.00  0.00    +0.000 NA
ATOM     25  C   UNL     1      -6.517  12.517  17.095  0.00  0.00    +0.000 C 
ATOM     26  C   UNL     1      -7.148  13.139  18.340  0.00  0.00    +0.000 C 
ATOM     27  N   UNL     1      -5.969  13.485  19.110  0.00  0.00    +0.000 N 
ATOM     28  N   UNL     1      -1.535  12.484  19.731  0.00  0.00    +0.000 NA
ATOM     29  C   UNL     1      -0.354  11.882  19.439  0.00  0.00    +0.000 A 
ATOM     30  H   UNL     1      -3.647  13.482  19.995  0.00  0.00    +0.000 HD
ATOM     31  H   UNL     1      -6.092  13.471  20.115  0.00  0.00    +0.000 HD
ENDBRANCH  17  18
ENDBRANCH   8  17
TORSDOF 4
ENDMDL
