MODEL 1
REMARK VINA RESULT:      -9.5      0.000      0.000
REMARK  Name = 
REMARK  8 active torsions:
REMARK  status: ('A' for Active; 'I' for Inactive)
REMARK    1  A    between atoms: C_1  and  C_2
REMARK    2  A    between atoms: C_10  and  N_11
REMARK    3  A    between atoms: N_11  and  C_12
REMARK    4  A    between atoms: C_15  and  N_16
REMARK    5  A    between atoms: N_19  and  C_20
REMARK    6  A    between atoms: C_25  and  C_26
REMARK    7  A    between atoms: C_26  and  C_27
REMARK    8  A    between atoms: C_26  and  C_28
REMARK                            x       y       z     vdW  Elec       q    Type
REMARK                         _______ _______ _______ _____ _____    ______ ____
ROOT
ATOM      1  N   UNL     1       2.683   6.669  17.898  0.00  0.00    +0.000 N 
ATOM      2  H   UNL     1       1.945   6.139  17.440  0.00  0.00    +0.000 HD
ENDROOT
BRANCH   1  12
ATOM      3  C   UNL     1       4.151   2.367  20.072  0.00  0.00    +0.000 C 
ATOM      4  C   UNL     1       4.366   3.687  19.372  0.00  0.00    +0.000 A 
ATOM      5  N   UNL     1       5.669   4.019  19.305  0.00  0.00    +0.000 NA
ATOM      6  C   UNL     1       6.036   5.142  18.687  0.00  0.00    +0.000 A 
ATOM      7  C   UNL     1       7.400   5.399  18.639  0.00  0.00    +0.000 A 
ATOM      8  C   UNL     1       7.919   6.554  18.055  0.00  0.00    +0.000 A 
ATOM      9  C   UNL     1       7.060   7.417  17.411  0.00  0.00    +0.000 A 
ATOM     10  C   UNL     1       5.696   7.119  17.377  0.00  0.00    +0.000 A 
ATOM     11  C   UNL     1       5.120   6.023  18.092  0.00  0.00    +0.000 A 
ATOM     12  C   UNL     1       3.712   5.756  18.309  0.00  0.00    +0.000 A 
ATOM     13  C   UNL     1       3.324   4.491  18.867  0.00  0.00    +0.000 A 
BRANCH  13  14
ATOM     14  C   UNL     1       1.884   3.963  18.971  0.00  0.00    +0.000 C 
ATOM     15  C   UNL     1       1.696   2.615  18.267  0.00  0.00    +0.000 C 
ATOM     16  C   UNL     1       1.227   3.922  20.359  0.00  0.00    +0.000 C 
ENDBRANCH  13  14
ENDBRANCH   1  12
BRANCH   1  17
ATOM     17  C   UNL     1       2.023   7.713  18.595  0.00  0.00    +0.000 A 
ATOM     18  C   UNL     1       1.869   7.588  19.981  0.00  0.00    +0.000 A 
ATOM     19  C   UNL     1       1.258   8.606  20.727  0.00  0.00    +0.000 A 
ATOM     20  C   UNL     1       0.791   9.790  20.130  0.00  0.00    +0.000 A 
ATOM     21  C   UNL     1       0.917   9.875  18.740  0.00  0.00    +0.000 A 
ATOM     22  C   UNL     1       1.590   8.892  18.002  0.00  0.00    +0.000 A 
BRANCH  20  23
ATOM     23  N   UNL     1       0.210  10.802  20.907  0.00  0.00    +0.000 N 
ATOM     24  C   UNL     1      -0.193  10.380  22.273  0.00  0.00    +0.000 C 
ATOM     25  C   UNL     1      -1.149  11.429  22.881  0.00  0.00    +0.000 C 
ATOM     26  N   UNL     1      -0.541  12.775  22.949  0.00  0.00    +0.000 NA
ATOM     27  C   UNL     1      -1.504  13.741  23.471  0.00  0.00    +0.000 C 
ATOM     28  C   UNL     1      -0.096  13.171  21.593  0.00  0.00    +0.000 C 
ATOM     29  C   UNL     1       0.847  12.136  20.938  0.00  0.00    +0.000 C 
ENDBRANCH  20  23
ENDBRANCH   1  17
TORSDOF 4
ENDMDL
MODEL 2
REMARK VINA RESULT:      -9.3      0.380      1.160
REMARK  Name = 
REMARK  8 active torsions:
REMARK  status: ('A' for Active; 'I' for Inactive)
REMARK    1  A    between atoms: C_1  and  C_2
REMARK    2  A    between atoms: C_10  and  N_11
REMARK    3  A    between atoms: N_11  and  C_12
REMARK    4  A    between atoms: C_15  and  N_16
REMARK    5  A    between atoms: N_19  and  C_20
REMARK    6  A    between atoms: C_25  and  C_26
REMARK    7  A    between atoms: C_26  and  C_27
REMARK    8  A    between atoms: C_26  and  C_28
REMARK                            x       y       z     vdW  Elec       q    Type
REMARK                         _______ _______ _______ _____ _____    ______ ____
ROOT
ATOM      1  N   UNL     1       2.646   6.506  18.171  0.00  0.00    +0.000 N 
ATOM      2  H   UNL     1       1.847   5.943  17.887  0.00  0.00    +0.000 HD
ENDROOT
BRANCH   1  12
ATOM      3  C   UNL     1       4.472   2.176  19.987  0.00  0.00    +0.000 C 
ATOM      4  C   UNL     1       4.572   3.540  19.350  0.00  0.00    +0.000 A 
ATOM      5  N   UNL     1       5.850   3.943  19.210  0.00  0.00    +0.000 NA
ATOM      6  C   UNL     1       6.117   5.115  18.632  0.00  0.00    +0.000 A 
ATOM      7  C   UNL     1       7.460   5.444  18.504  0.00  0.00    +0.000 A 
ATOM      8  C   UNL     1       7.879   6.653  17.951  0.00  0.00    +0.000 A 
ATOM      9  C   UNL     1       6.934   7.504  17.420  0.00  0.00    +0.000 A 
ATOM     10  C   UNL     1       5.587   7.138  17.466  0.00  0.00    +0.000 A 
ATOM     11  C   UNL     1       5.119   5.977  18.155  0.00  0.00    +0.000 A 
ATOM     12  C   UNL     1       3.745   5.627  18.455  0.00  0.00    +0.000 A 
ATOM     13  C   UNL     1       3.459   4.315  18.967  0.00  0.00    +0.000 A 
BRANCH  13  14
ATOM     14  C   UNL     1       2.058   3.709  19.141  0.00  0.00    +0.000 C 
ATOM     15  C   UNL     1       1.366   4.178  20.424  0.00  0.00    +0.000 C 
ATOM     16  C   UNL     1       1.080   3.795  17.959  0.00  0.00    +0.000 C 
ENDBRANCH  13  14
ENDBRANCH   1  12
BRANCH   1  17
ATOM     17  C   UNL     1       2.102   7.593  18.901  0.00  0.00    +0.000 A 
ATOM     18  C   UNL     1       1.753   8.753  18.199  0.00  0.00    +0.000 A 
ATOM     19  C   UNL     1       1.176   9.845  18.863  0.00  0.00    +0.000 A 
ATOM     20  C   UNL     1       0.908   9.821  20.243  0.00  0.00    +0.000 A 
ATOM     21  C   UNL     1       1.302   8.669  20.931  0.00  0.00    +0.000 A 
ATOM     22  C   UNL     1       1.814   7.551  20.259  0.00  0.00    +0.000 A 
BRANCH  20  23
ATOM     23  N   UNL     1       0.303  10.917  20.873  0.00  0.00    +0.000 N 
ATOM     24  C   UNL     1      -0.255  10.628  22.218  0.00  0.00    +0.000 C 
ATOM     25  C   UNL     1      -1.215  11.762  22.639  0.00  0.00    +0.000 C 
ATOM     26  N   UNL     1      -0.552  13.083  22.663  0.00  0.00    +0.000 NA
ATOM     27  C   UNL     1      -1.515  14.127  23.005  0.00  0.00    +0.000 C 
ATOM     28  C   UNL     1       0.045  13.346  21.333  0.00  0.00    +0.000 C 
ATOM     29  C   UNL     1       0.997  12.223  20.864  0.00  0.00    +0.000 C 
ENDBRANCH  20  23
ENDBRANCH   1  17
TORSDOF 4
ENDMDL
MODEL 3
REMARK VINA RESULT:      -9.3      0.760      1.254
REMARK  Name = 
REMARK  8 active torsions:
REMARK  status: ('A' for Active; 'I' for Inactive)
REMARK    1  A    between atoms: C_1  and  C_2
REMARK    2  A    between atoms: C_10  and  N_11
REMARK    3  A    between atoms: N_11  and  C_12
REMARK    4  A    between atoms: C_15  and  N_16
REMARK    5  A    between atoms: N_19  and  C_20
REMARK    6  A    between atoms: C_25  and  C_26
REMARK    7  A    between atoms: C_26  and  C_27
REMARK    8  A    between atoms: C_26  and  C_28
REMARK                            x       y       z     vdW  Elec       q    Type
REMARK                         _______ _______ _______ _____ _____    ______ ____
ROOT
ATOM      1  N   UNL     1       2.911   6.667  17.758  0.00  0.00    +0.000 N 
ATOM      2  H   UNL     1       2.229   6.111  17.245  0.00  0.00    +0.000 HD
ENDROOT
BRANCH   1  12
ATOM      3  C   UNL     1       4.405   2.397  19.976  0.00  0.00    +0.000 C 
ATOM      4  C   UNL     1       4.612   3.736  19.312  0.00  0.00    +0.000 A 
ATOM      5  N   UNL     1       5.901   4.126  19.346  0.00  0.00    +0.000 NA
ATOM      6  C   UNL     1       6.262   5.274  18.772  0.00  0.00    +0.000 A 
ATOM      7  C   UNL     1       7.613   5.590  18.829  0.00  0.00    +0.000 A 
ATOM      8  C   UNL     1       8.121   6.776  18.300  0.00  0.00    +0.000 A 
ATOM      9  C   UNL     1       7.273   7.612  17.606  0.00  0.00    +0.000 A 
ATOM     10  C   UNL     1       5.930   7.256  17.468  0.00  0.00    +0.000 A 
ATOM     11  C   UNL     1       5.353   6.124  18.123  0.00  0.00    +0.000 A 
ATOM     12  C   UNL     1       3.947   5.792  18.231  0.00  0.00    +0.000 A 
ATOM     13  C   UNL     1       3.575   4.502  18.743  0.00  0.00    +0.000 A 
BRANCH  13  14
ATOM     14  C   UNL     1       2.157   3.910  18.732  0.00  0.00    +0.000 C 
ATOM     15  C   UNL     1       1.358   4.265  19.990  0.00  0.00    +0.000 C 
ATOM     16  C   UNL     1       1.290   4.132  17.484  0.00  0.00    +0.000 C 
ENDBRANCH  13  14
ENDBRANCH   1  12
BRANCH   1  17
ATOM     17  C   UNL     1       2.159   7.672  18.417  0.00  0.00    +0.000 A 
ATOM     18  C   UNL     1       2.012   7.585  19.806  0.00  0.00    +0.000 A 
ATOM     19  C   UNL     1       1.312   8.571  20.515  0.00  0.00    +0.000 A 
ATOM     20  C   UNL     1       0.745   9.687  19.876  0.00  0.00    +0.000 A 
ATOM     21  C   UNL     1       0.868   9.733  18.484  0.00  0.00    +0.000 A 
ATOM     22  C   UNL     1       1.627   8.787  17.782  0.00  0.00    +0.000 A 
BRANCH  20  23
ATOM     23  N   UNL     1       0.076  10.672  20.616  0.00  0.00    +0.000 N 
ATOM     24  C   UNL     1      -0.945  11.434  19.853  0.00  0.00    +0.000 C 
ATOM     25  C   UNL     1      -1.327  12.714  20.627  0.00  0.00    +0.000 C 
ATOM     26  N   UNL     1      -1.850  12.421  21.979  0.00  0.00    +0.000 NA
ATOM     27  C   UNL     1      -2.137  13.663  22.691  0.00  0.00    +0.000 C 
ATOM     28  C   UNL     1      -0.849  11.620  22.719  0.00  0.00    +0.000 C 
ATOM     29  C   UNL     1      -0.423  10.338  21.968  0.00  0.00    +0.000 C 
ENDBRANCH  20  23
ENDBRANCH   1  17
TORSDOF 4
ENDMDL
MODEL 4
REMARK VINA RESULT:      -9.2      0.846      1.599
REMARK  Name = 
REMARK  8 active torsions:
REMARK  status: ('A' for Active; 'I' for Inactive)
REMARK    1  A    between atoms: C_1  and  C_2
REMARK    2  A    between atoms: C_10  and  N_11
REMARK    3  A    between atoms: N_11  and  C_12
REMARK    4  A    between atoms: C_15  and  N_16
REMARK    5  A    between atoms: N_19  and  C_20
REMARK    6  A    between atoms: C_25  and  C_26
REMARK    7  A    between atoms: C_26  and  C_27
REMARK    8  A    between atoms: C_26  and  C_28
REMARK                            x       y       z     vdW  Elec       q    Type
REMARK                         _______ _______ _______ _____ _____    ______ ____
ROOT
ATOM      1  N   UNL     1       2.650   6.494  18.036  0.00  0.00    +0.000 N 
ATOM      2  H   UNL     1       1.849   5.915  17.794  0.00  0.00    +0.000 HD
ENDROOT
BRANCH   1  12
ATOM      3  C   UNL     1       4.430   2.244  20.075  0.00  0.00    +0.000 C 
ATOM      4  C   UNL     1       4.547   3.586  19.395  0.00  0.00    +0.000 A 
ATOM      5  N   UNL     1       5.826   3.994  19.292  0.00  0.00    +0.000 NA
ATOM      6  C   UNL     1       6.109   5.147  18.685  0.00  0.00    +0.000 A 
ATOM      7  C   UNL     1       7.453   5.482  18.598  0.00  0.00    +0.000 A 
ATOM      8  C   UNL     1       7.886   6.675  18.021  0.00  0.00    +0.000 A 
ATOM      9  C   UNL     1       6.958   7.500  17.423  0.00  0.00    +0.000 A 
ATOM     10  C   UNL     1       5.613   7.125  17.427  0.00  0.00    +0.000 A 
ATOM     11  C   UNL     1       5.125   5.985  18.138  0.00  0.00    +0.000 A 
ATOM     12  C   UNL     1       3.742   5.634  18.395  0.00  0.00    +0.000 A 
ATOM     13  C   UNL     1       3.445   4.338  18.940  0.00  0.00    +0.000 A 
BRANCH  13  14
ATOM     14  C   UNL     1       2.042   3.727  19.080  0.00  0.00    +0.000 C 
ATOM     15  C   UNL     1       1.287   4.251  20.306  0.00  0.00    +0.000 C 
ATOM     16  C   UNL     1       1.119   3.747  17.852  0.00  0.00    +0.000 C 
ENDBRANCH  13  14
ENDBRANCH   1  12
BRANCH   1  17
ATOM     17  C   UNL     1       2.109   7.639  18.675  0.00  0.00    +0.000 A 
ATOM     18  C   UNL     1       1.764   8.738  17.880  0.00  0.00    +0.000 A 
ATOM     19  C   UNL     1       1.190   9.882  18.452  0.00  0.00    +0.000 A 
ATOM     20  C   UNL     1       0.922   9.973  19.829  0.00  0.00    +0.000 A 
ATOM     21  C   UNL     1       1.312   8.879  20.610  0.00  0.00    +0.000 A 
ATOM     22  C   UNL     1       1.821   7.709  20.032  0.00  0.00    +0.000 A 
BRANCH  20  23
ATOM     23  N   UNL     1       0.320  11.118  20.368  0.00  0.00    +0.000 N 
ATOM     24  C   UNL     1      -0.510  11.891  19.409  0.00  0.00    +0.000 C 
ATOM     25  C   UNL     1      -0.792  13.297  19.979  0.00  0.00    +0.000 C 
ATOM     26  N   UNL     1      -1.481  13.248  21.287  0.00  0.00    +0.000 NA
ATOM     27  C   UNL     1      -1.669  14.598  21.812  0.00  0.00    +0.000 C 
ATOM     28  C   UNL     1      -0.674  12.437  22.226  0.00  0.00    +0.000 C 
ATOM     29  C   UNL     1      -0.350  11.026  21.683  0.00  0.00    +0.000 C 
ENDBRANCH  20  23
ENDBRANCH   1  17
TORSDOF 4
ENDMDL
MODEL 5
REMARK VINA RESULT:      -9.0      0.890      1.413
REMARK  Name = 
REMARK  8 active torsions:
REMARK  status: ('A' for Active; 'I' for Inactive)
REMARK    1  A    between atoms: C_1  and  C_2
REMARK    2  A    between atoms: C_10  and  N_11
REMARK    3  A    between atoms: N_11  and  C_12
REMARK    4  A    between atoms: C_15  and  N_16
REMARK    5  A    between atoms: N_19  and  C_20
REMARK    6  A    between atoms: C_25  and  C_26
REMARK    7  A    between atoms: C_26  and  C_27
REMARK    8  A    between atoms: C_26  and  C_28
REMARK                            x       y       z     vdW  Elec       q    Type
REMARK                         _______ _______ _______ _____ _____    ______ ____
ROOT
ATOM      1  N   UNL     1       2.745   6.616  17.889  0.00  0.00    +0.000 N 
ATOM      2  H   UNL     1       1.992   6.083  17.458  0.00  0.00    +0.000 HD
ENDROOT
BRANCH   1  12
ATOM      3  C   UNL     1       4.150   2.315  20.106  0.00  0.00    +0.000 C 
ATOM      4  C   UNL     1       4.385   3.631  19.406  0.00  0.00    +0.000 A 
ATOM      5  N   UNL     1       5.690   3.958  19.363  0.00  0.00    +0.000 NA
ATOM      6  C   UNL     1       6.075   5.077  18.749  0.00  0.00    +0.000 A 
ATOM      7  C   UNL     1       7.440   5.328  18.727  0.00  0.00    +0.000 A 
ATOM      8  C   UNL     1       7.975   6.479  18.150  0.00  0.00    +0.000 A 
ATOM      9  C   UNL     1       7.133   7.344  17.486  0.00  0.00    +0.000 A 
ATOM     10  C   UNL     1       5.768   7.051  17.426  0.00  0.00    +0.000 A 
ATOM     11  C   UNL     1       5.174   5.960  18.133  0.00  0.00    +0.000 A 
ATOM     12  C   UNL     1       3.761   5.700  18.323  0.00  0.00    +0.000 A 
ATOM     13  C   UNL     1       3.356   4.438  18.878  0.00  0.00    +0.000 A 
BRANCH  13  14
ATOM     14  C   UNL     1       1.912   3.916  18.955  0.00  0.00    +0.000 C 
ATOM     15  C   UNL     1       1.756   2.517  18.351  0.00  0.00    +0.000 C 
ATOM     16  C   UNL     1       1.190   3.985  20.309  0.00  0.00    +0.000 C 
ENDBRANCH  13  14
ENDBRANCH   1  12
BRANCH   1  17
ATOM     17  C   UNL     1       2.110   7.696  18.553  0.00  0.00    +0.000 A 
ATOM     18  C   UNL     1       1.733   8.810  17.794  0.00  0.00    +0.000 A 
ATOM     19  C   UNL     1       1.068   9.891  18.390  0.00  0.00    +0.000 A 
ATOM     20  C   UNL     1       0.739   9.900  19.757  0.00  0.00    +0.000 A 
ATOM     21  C   UNL     1       1.160   8.796  20.504  0.00  0.00    +0.000 A 
ATOM     22  C   UNL     1       1.762   7.685  19.898  0.00  0.00    +0.000 A 
BRANCH  20  23
ATOM     23  N   UNL     1       0.047  10.983  20.318  0.00  0.00    +0.000 N 
ATOM     24  C   UNL     1       0.891  12.166  20.624  0.00  0.00    +0.000 C 
ATOM     25  C   UNL     1       0.130  13.118  21.572  0.00  0.00    +0.000 C 
ATOM     26  N   UNL     1      -1.155  13.574  21.001  0.00  0.00    +0.000 NA
ATOM     27  C   UNL     1      -1.863  14.420  21.959  0.00  0.00    +0.000 C 
ATOM     28  C   UNL     1      -1.974  12.390  20.653  0.00  0.00    +0.000 C 
ATOM     29  C   UNL     1      -1.240  11.399  19.721  0.00  0.00    +0.000 C 
ENDBRANCH  20  23
ENDBRANCH   1  17
TORSDOF 4
ENDMDL
MODEL 6
REMARK VINA RESULT:      -8.9      1.877      2.171
REMARK  Name = 
REMARK  8 active torsions:
REMARK  status: ('A' for Active; 'I' for Inactive)
REMARK    1  A    between atoms: C_1  and  C_2
REMARK    2  A    between atoms: C_10  and  N_11
REMARK    3  A    between atoms: N_11  and  C_12
REMARK    4  A    between atoms: C_15  and  N_16
REMARK    5  A    between atoms: N_19  and  C_20
REMARK    6  A    between atoms: C_25  and  C_26
REMARK    7  A    between atoms: C_26  and  C_27
REMARK    8  A    between atoms: C_26  and  C_28
REMARK                            x       y       z     vdW  Elec       q    Type
REMARK                         _______ _______ _______ _____ _____    ______ ____
ROOT
ATOM      1  N   UNL     1       3.294   6.531  19.731  0.00  0.00    +0.000 N 
ATOM      2  H   UNL     1       4.173   7.041  19.777  0.00  0.00    +0.000 HD
ENDROOT
BRANCH   1  12
ATOM      3  C   UNL     1       2.816   1.601  18.806  0.00  0.00    +0.000 C 
ATOM      4  C   UNL     1       3.234   3.016  18.489  0.00  0.00    +0.000 A 
ATOM      5  N   UNL     1       3.962   3.089  17.359  0.00  0.00    +0.000 NA
ATOM      6  C   UNL     1       4.384   4.275  16.917  0.00  0.00    +0.000 A 
ATOM      7  C   UNL     1       5.107   4.267  15.731  0.00  0.00    +0.000 A 
ATOM      8  C   UNL     1       5.637   5.430  15.176  0.00  0.00    +0.000 A 
ATOM      9  C   UNL     1       5.345   6.641  15.765  0.00  0.00    +0.000 A 
ATOM     10  C   UNL     1       4.543   6.665  16.908  0.00  0.00    +0.000 A 
ATOM     11  C   UNL     1       4.110   5.480  17.581  0.00  0.00    +0.000 A 
ATOM     12  C   UNL     1       3.475   5.388  18.880  0.00  0.00    +0.000 A 
ATOM     13  C   UNL     1       2.919   4.130  19.293  0.00  0.00    +0.000 A 
BRANCH  13  14
ATOM     14  C   UNL     1       2.037   3.905  20.532  0.00  0.00    +0.000 C 
ATOM     15  C   UNL     1       0.572   3.637  20.175  0.00  0.00    +0.000 C 
ATOM     16  C   UNL     1       2.513   2.890  21.583  0.00  0.00    +0.000 C 
ENDBRANCH  13  14
ENDBRANCH   1  12
BRANCH   1  17
ATOM     17  C   UNL     1       2.280   7.521  19.769  0.00  0.00    +0.000 A 
ATOM     18  C   UNL     1       1.521   7.646  20.939  0.00  0.00    +0.000 A 
ATOM     19  C   UNL     1       0.531   8.632  21.047  0.00  0.00    +0.000 A 
ATOM     20  C   UNL     1       0.266   9.540  20.007  0.00  0.00    +0.000 A 
ATOM     21  C   UNL     1       1.008   9.371  18.833  0.00  0.00    +0.000 A 
ATOM     22  C   UNL     1       2.045   8.432  18.748  0.00  0.00    +0.000 A 
BRANCH  20  23
ATOM     23  N   UNL     1      -0.711  10.534  20.156  0.00  0.00    +0.000 N 
ATOM     24  C   UNL     1      -0.416  11.539  21.210  0.00  0.00    +0.000 C 
ATOM     25  C   UNL     1      -1.699  12.329  21.549  0.00  0.00    +0.000 C 
ATOM     26  N   UNL     1      -2.268  13.016  20.369  0.00  0.00    +0.000 NA
ATOM     27  C   UNL     1      -3.509  13.695  20.729  0.00  0.00    +0.000 C 
ATOM     28  C   UNL     1      -2.514  12.017  19.304  0.00  0.00    +0.000 C 
ATOM     29  C   UNL     1      -1.259  11.188  18.948  0.00  0.00    +0.000 C 
ENDBRANCH  20  23
ENDBRANCH   1  17
TORSDOF 4
ENDMDL
MODEL 7
REMARK VINA RESULT:      -8.4      2.815      9.147
REMARK  Name = 
REMARK  8 active torsions:
REMARK  status: ('A' for Active; 'I' for Inactive)
REMARK    1  A    between atoms: C_1  and  C_2
REMARK    2  A    between atoms: C_10  and  N_11
REMARK    3  A    between atoms: N_11  and  C_12
REMARK    4  A    between atoms: C_15  and  N_16
REMARK    5  A    between atoms: N_19  and  C_20
REMARK    6  A    between atoms: C_25  and  C_26
REMARK    7  A    between atoms: C_26  and  C_27
REMARK    8  A    between atoms: C_26  and  C_28
REMARK                            x       y       z     vdW  Elec       q    Type
REMARK                         _______ _______ _______ _____ _____    ______ ____
ROOT
ATOM      1  N   UNL     1      -0.153  11.522  19.679  0.00  0.00    +0.000 N 
ATOM      2  H   UNL     1       0.245  12.049  20.453  0.00  0.00    +0.000 HD
ENDROOT
BRANCH   1  12
ATOM      3  C   UNL     1      -4.456  13.037  21.819  0.00  0.00    +0.000 C 
ATOM      4  C   UNL     1      -3.599  12.527  20.686  0.00  0.00    +0.000 A 
ATOM      5  N   UNL     1      -4.331  12.198  19.604  0.00  0.00    +0.000 NA
ATOM      6  C   UNL     1      -3.724  11.761  18.500  0.00  0.00    +0.000 A 
ATOM      7  C   UNL     1      -4.548  11.467  17.422  0.00  0.00    +0.000 A 
ATOM      8  C   UNL     1      -4.049  10.968  16.220  0.00  0.00    +0.000 A 
ATOM      9  C   UNL     1      -2.685  10.862  16.059  0.00  0.00    +0.000 A 
ATOM     10  C   UNL     1      -1.845  11.240  17.109  0.00  0.00    +0.000 A 
ATOM     11  C   UNL     1      -2.332  11.614  18.399  0.00  0.00    +0.000 A 
ATOM     12  C   UNL     1      -1.559  11.805  19.610  0.00  0.00    +0.000 A 
ATOM     13  C   UNL     1      -2.198  12.389  20.757  0.00  0.00    +0.000 A 
BRANCH  13  14
ATOM     14  C   UNL     1      -1.487  12.850  22.039  0.00  0.00    +0.000 C 
ATOM     15  C   UNL     1      -1.200  11.695  23.004  0.00  0.00    +0.000 C 
ATOM     16  C   UNL     1      -0.238  13.733  21.896  0.00  0.00    +0.000 C 
ENDBRANCH  13  14
ENDBRANCH   1  12
BRANCH   1  17
ATOM     17  C   UNL     1       0.559  10.295  19.652  0.00  0.00    +0.000 A 
ATOM     18  C   UNL     1       0.608   9.534  20.825  0.00  0.00    +0.000 A 
ATOM     19  C   UNL     1       1.265   8.295  20.847  0.00  0.00    +0.000 A 
ATOM     20  C   UNL     1       1.883   7.759  19.703  0.00  0.00    +0.000 A 
ATOM     21  C   UNL     1       1.856   8.556  18.554  0.00  0.00    +0.000 A 
ATOM     22  C   UNL     1       1.141   9.760  18.510  0.00  0.00    +0.000 A 
BRANCH  20  23
ATOM     23  N   UNL     1       2.507   6.505  19.749  0.00  0.00    +0.000 N 
ATOM     24  C   UNL     1       1.721   5.447  20.432  0.00  0.00    +0.000 C 
ATOM     25  C   UNL     1       2.637   4.249  20.764  0.00  0.00    +0.000 C 
ATOM     26  N   UNL     1       3.277   3.677  19.560  0.00  0.00    +0.000 NA
ATOM     27  C   UNL     1       4.179   2.591  19.934  0.00  0.00    +0.000 C 
ATOM     28  C   UNL     1       4.020   4.747  18.856  0.00  0.00    +0.000 C 
ATOM     29  C   UNL     1       3.143   5.975  18.523  0.00  0.00    +0.000 C 
ENDBRANCH  20  23
ENDBRANCH   1  17
TORSDOF 4
ENDMDL
MODEL 8
REMARK VINA RESULT:      -8.4      1.856      3.972
REMARK  Name = 
REMARK  8 active torsions:
REMARK  status: ('A' for Active; 'I' for Inactive)
REMARK    1  A    between atoms: C_1  and  C_2
REMARK    2  A    between atoms: C_10  and  N_11
REMARK    3  A    between atoms: N_11  and  C_12
REMARK    4  A    between atoms: C_15  and  N_16
REMARK    5  A    between atoms: N_19  and  C_20
REMARK    6  A    between atoms: C_25  and  C_26
REMARK    7  A    between atoms: C_26  and  C_27
REMARK    8  A    between atoms: C_26  and  C_28
REMARK                            x       y       z     vdW  Elec       q    Type
REMARK                         _______ _______ _______ _____ _____    ______ ____
ROOT
ATOM      1  N   UNL     1       3.253   6.884  19.532  0.00  0.00    +0.000 N 
ATOM      2  H   UNL     1       4.085   7.427  19.312  0.00  0.00    +0.000 HD
ENDROOT
BRANCH   1  12
ATOM      3  C   UNL     1       5.005   3.959  15.822  0.00  0.00    +0.000 C 
ATOM      4  C   UNL     1       4.209   4.253  17.070  0.00  0.00    +0.000 A 
ATOM      5  N   UNL     1       3.443   3.209  17.440  0.00  0.00    +0.000 NA
ATOM      6  C   UNL     1       2.700   3.290  18.545  0.00  0.00    +0.000 A 
ATOM      7  C   UNL     1       1.959   2.162  18.871  0.00  0.00    +0.000 A 
ATOM      8  C   UNL     1       1.113   2.122  19.978  0.00  0.00    +0.000 A 
ATOM      9  C   UNL     1       1.091   3.200  20.836  0.00  0.00    +0.000 A 
ATOM     10  C   UNL     1       1.902   4.304  20.563  0.00  0.00    +0.000 A 
ATOM     11  C   UNL     1       2.665   4.431  19.361  0.00  0.00    +0.000 A 
ATOM     12  C   UNL     1       3.353   5.610  18.876  0.00  0.00    +0.000 A 
ATOM     13  C   UNL     1       4.244   5.483  17.756  0.00  0.00    +0.000 A 
BRANCH  13  14
ATOM     14  C   UNL     1       5.202   6.572  17.248  0.00  0.00    +0.000 C 
ATOM     15  C   UNL     1       6.663   6.291  17.612  0.00  0.00    +0.000 C 
ATOM     16  C   UNL     1       5.104   6.990  15.773  0.00  0.00    +0.000 C 
ENDBRANCH  13  14
ENDBRANCH   1  12
BRANCH   1  17
ATOM     17  C   UNL     1       2.194   7.825  19.595  0.00  0.00    +0.000 A 
ATOM     18  C   UNL     1       1.489   7.948  20.798  0.00  0.00    +0.000 A 
ATOM     19  C   UNL     1       0.458   8.888  20.931  0.00  0.00    +0.000 A 
ATOM     20  C   UNL     1       0.098   9.753  19.882  0.00  0.00    +0.000 A 
ATOM     21  C   UNL     1       0.788   9.585  18.676  0.00  0.00    +0.000 A 
ATOM     22  C   UNL     1       1.865   8.695  18.563  0.00  0.00    +0.000 A 
BRANCH  20  23
ATOM     23  N   UNL     1      -0.918  10.703  20.054  0.00  0.00    +0.000 N 
ATOM     24  C   UNL     1      -0.640  11.725  21.095  0.00  0.00    +0.000 C 
ATOM     25  C   UNL     1      -1.946  12.459  21.466  0.00  0.00    +0.000 C 
ATOM     26  N   UNL     1      -2.577  13.114  20.301  0.00  0.00    +0.000 NA
ATOM     27  C   UNL     1      -3.838  13.739  20.691  0.00  0.00    +0.000 C 
ATOM     28  C   UNL     1      -2.808  12.100  19.246  0.00  0.00    +0.000 C 
ATOM     29  C   UNL     1      -1.528  11.326  18.859  0.00  0.00    +0.000 C 
ENDBRANCH  20  23
ENDBRANCH   1  17
TORSDOF 4
ENDMDL
MODEL 9
REMARK VINA RESULT:      -8.3      0.884      3.544
REMARK  Name = 
REMARK  8 active torsions:
REMARK  status: ('A' for Active; 'I' for Inactive)
REMARK    1  A    between atoms: C_1  and  C_2
REMARK    2  A    between atoms: C_10  and  N_11
REMARK    3  A    between atoms: N_11  and  C_12
REMARK    4  A    between atoms: C_15  and  N_16
REMARK    5  A    between atoms: N_19  and  C_20
REMARK    6  A    between atoms: C_25  and  C_26
REMARK    7  A    between atoms: C_26  and  C_27
REMARK    8  A    between atoms: C_26  and  C_28
REMARK                            x       y       z     vdW  Elec       q    Type
REMARK                         _______ _______ _______ _____ _____    ______ ____
ROOT
ATOM      1  N   UNL     1       2.539   6.807  18.182  0.00  0.00    +0.000 N 
ATOM      2  H   UNL     1       1.757   6.389  17.682  0.00  0.00    +0.000 HD
ENDROOT
BRANCH   1  12
ATOM      3  C   UNL     1       6.951   4.430  17.660  0.00  0.00    +0.000 C 
ATOM      4  C   UNL     1       5.580   4.651  18.251  0.00  0.00    +0.000 A 
ATOM      5  N   UNL     1       5.214   3.650  19.074  0.00  0.00    +0.000 NA
ATOM      6  C   UNL     1       4.041   3.706  19.706  0.00  0.00    +0.000 A 
ATOM      7  C   UNL     1       3.751   2.646  20.555  0.00  0.00    +0.000 A 
ATOM      8  C   UNL     1       2.546   2.561  21.251  0.00  0.00    +0.000 A 
ATOM      9  C   UNL     1       1.658   3.612  21.176  0.00  0.00    +0.000 A 
ATOM     10  C   UNL     1       1.984   4.722  20.394  0.00  0.00    +0.000 A 
ATOM     11  C   UNL     1       3.142   4.772  19.556  0.00  0.00    +0.000 A 
ATOM     12  C   UNL     1       3.456   5.764  18.548  0.00  0.00    +0.000 A 
ATOM     13  C   UNL     1       4.766   5.765  17.959  0.00  0.00    +0.000 A 
BRANCH  13  14
ATOM     14  C   UNL     1       5.333   6.857  17.039  0.00  0.00    +0.000 C 
ATOM     15  C   UNL     1       6.745   7.295  17.440  0.00  0.00    +0.000 C 
ATOM     16  C   UNL     1       5.269   6.629  15.521  0.00  0.00    +0.000 C 
ENDBRANCH  13  14
ENDBRANCH   1  12
BRANCH   1  17
ATOM     17  C   UNL     1       1.980   7.871  18.935  0.00  0.00    +0.000 A 
ATOM     18  C   UNL     1       1.576   9.023  18.250  0.00  0.00    +0.000 A 
ATOM     19  C   UNL     1       0.982  10.092  18.938  0.00  0.00    +0.000 A 
ATOM     20  C   UNL     1       0.753  10.051  20.324  0.00  0.00    +0.000 A 
ATOM     21  C   UNL     1       1.203   8.908  20.993  0.00  0.00    +0.000 A 
ATOM     22  C   UNL     1       1.732   7.811  20.300  0.00  0.00    +0.000 A 
BRANCH  20  23
ATOM     23  N   UNL     1       0.131  11.123  20.978  0.00  0.00    +0.000 N 
ATOM     24  C   UNL     1      -0.401  10.802  22.327  0.00  0.00    +0.000 C 
ATOM     25  C   UNL     1      -1.381  11.906  22.777  0.00  0.00    +0.000 C 
ATOM     26  N   UNL     1      -0.751  13.242  22.811  0.00  0.00    +0.000 NA
ATOM     27  C   UNL     1      -1.733  14.258  23.181  0.00  0.00    +0.000 C 
ATOM     28  C   UNL     1      -0.179  13.538  21.477  0.00  0.00    +0.000 C 
ATOM     29  C   UNL     1       0.793  12.446  20.979  0.00  0.00    +0.000 C 
ENDBRANCH  20  23
ENDBRANCH   1  17
TORSDOF 4
ENDMDL
