MODEL 1
REMARK VINA RESULT:      -8.3      0.000      0.000
REMARK  Name = 
REMARK  5 active torsions:
REMARK  status: ('A' for Active; 'I' for Inactive)
REMARK    1  A    between atoms: C_1  and  O_2
REMARK    2  A    between atoms: O_2  and  C_3
REMARK    3  A    between atoms: C_7  and  N_8
REMARK    4  A    between atoms: N_8  and  C_9
REMARK    5  A    between atoms: C_11  and  C_12
REMARK                            x       y       z     vdW  Elec       q    Type
REMARK                         _______ _______ _______ _____ _____    ______ ____
ROOT
ATOM      1  C   UNL     1       3.031   5.740  19.260  0.00  0.00    +0.000 A 
ATOM      2  N   UNL     1       3.986   5.844  18.297  0.00  0.00    +0.000 NA
ATOM      3  C   UNL     1       4.254   4.837  17.427  0.00  0.00    +0.000 A 
ATOM      4  N   UNL     1       3.544   3.685  17.513  0.00  0.00    +0.000 NA
ATOM      5  C   UNL     1       2.588   3.508  18.460  0.00  0.00    +0.000 A 
ATOM      6  C   UNL     1       2.294   4.546  19.369  0.00  0.00    +0.000 A 
ATOM      7  C   UNL     1       1.175   4.395  20.385  0.00  0.00    +0.000 C 
ATOM      8  N   UNL     1       0.320   3.219  20.131  0.00  0.00    +0.000 NA
ATOM      9  C   UNL     1       1.126   2.032  19.849  0.00  0.00    +0.000 C 
ATOM     10  C   UNL     1       1.868   2.193  18.518  0.00  0.00    +0.000 C 
ATOM     11  H   UNL     1      -0.304   3.408  19.310  0.00  0.00    +0.000 HD
ENDROOT
BRANCH   3  12
ATOM     12  C   UNL     1       5.343   4.980  16.433  0.00  0.00    +0.000 A 
ATOM     13  C   UNL     1       6.454   5.803  16.694  0.00  0.00    +0.000 A 
ATOM     14  C   UNL     1       7.479   5.903  15.751  0.00  0.00    +0.000 A 
ATOM     15  N   UNL     1       7.403   5.213  14.583  0.00  0.00    +0.000 NA
ATOM     16  C   UNL     1       6.344   4.412  14.299  0.00  0.00    +0.000 A 
ATOM     17  C   UNL     1       5.298   4.277  15.216  0.00  0.00    +0.000 A 
ENDBRANCH   3  12
BRANCH   1  18
ATOM     18  N   UNL     1       2.819   6.846  20.139  0.00  0.00    +0.000 N 
ATOM     19  H   UNL     1       3.320   6.879  21.039  0.00  0.00    +0.000 HD
BRANCH  18  24
ATOM     20  C   UNL     1       0.280   9.591  20.455  0.00  0.00    +0.000 A 
ATOM     21  C   UNL     1       0.279  10.091  19.148  0.00  0.00    +0.000 A 
ATOM     22  C   UNL     1       1.116   9.532  18.176  0.00  0.00    +0.000 A 
ATOM     23  C   UNL     1       1.964   8.466  18.501  0.00  0.00    +0.000 A 
ATOM     24  C   UNL     1       1.953   7.927  19.796  0.00  0.00    +0.000 A 
ATOM     25  C   UNL     1       1.111   8.501  20.767  0.00  0.00    +0.000 A 
BRANCH  20  27
ATOM     26  C   UNL     1      -0.442   9.961  22.750  0.00  0.00    +0.000 C 
ATOM     27  O   UNL     1      -0.510  10.186  21.388  0.00  0.00    +0.000 OA
ENDBRANCH  20  27
ENDBRANCH  18  24
ENDBRANCH   1  18
TORSDOF 4
ENDMDL
MODEL 2
REMARK VINA RESULT:      -8.0      2.733      6.407
REMARK  Name = 
REMARK  5 active torsions:
REMARK  status: ('A' for Active; 'I' for Inactive)
REMARK    1  A    between atoms: C_1  and  O_2
REMARK    2  A    between atoms: O_2  and  C_3
REMARK    3  A    between atoms: C_7  and  N_8
REMARK    4  A    between atoms: N_8  and  C_9
REMARK    5  A    between atoms: C_11  and  C_12
REMARK                            x       y       z     vdW  Elec       q    Type
REMARK                         _______ _______ _______ _____ _____    ______ ____
ROOT
ATOM      1  C   UNL     1       3.302   5.481  18.372  0.00  0.00    +0.000 A 
ATOM      2  N   UNL     1       2.935   6.651  18.962  0.00  0.00    +0.000 NA
ATOM      3  C   UNL     1       1.910   6.729  19.848  0.00  0.00    +0.000 A 
ATOM      4  N   UNL     1       1.224   5.602  20.163  0.00  0.00    +0.000 NA
ATOM      5  C   UNL     1       1.527   4.404  19.600  0.00  0.00    +0.000 A 
ATOM      6  C   UNL     1       2.593   4.306  18.681  0.00  0.00    +0.000 A 
ATOM      7  C   UNL     1       2.995   2.962  18.099  0.00  0.00    +0.000 C 
ATOM      8  N   UNL     1       2.353   1.822  18.782  0.00  0.00    +0.000 NA
ATOM      9  C   UNL     1       0.924   2.061  18.976  0.00  0.00    +0.000 C 
ATOM     10  C   UNL     1       0.702   3.207  19.969  0.00  0.00    +0.000 C 
ATOM     11  H   UNL     1       2.802   1.674  19.718  0.00  0.00    +0.000 HD
ENDROOT
BRANCH   3  12
ATOM     12  C   UNL     1       1.515   8.037  20.419  0.00  0.00    +0.000 A 
ATOM     13  C   UNL     1       1.389   8.208  21.810  0.00  0.00    +0.000 A 
ATOM     14  C   UNL     1       1.038   9.458  22.325  0.00  0.00    +0.000 A 
ATOM     15  N   UNL     1       0.812  10.504  21.487  0.00  0.00    +0.000 NA
ATOM     16  C   UNL     1       0.922  10.372  20.140  0.00  0.00    +0.000 A 
ATOM     17  C   UNL     1       1.278   9.141  19.581  0.00  0.00    +0.000 A 
ENDBRANCH   3  12
BRANCH   1  18
ATOM     18  N   UNL     1       4.390   5.492  17.445  0.00  0.00    +0.000 N 
ATOM     19  H   UNL     1       4.230   5.181  16.476  0.00  0.00    +0.000 HD
BRANCH  18  24
ATOM     20  C   UNL     1       7.442   7.659  17.712  0.00  0.00    +0.000 A 
ATOM     21  C   UNL     1       8.230   6.886  18.573  0.00  0.00    +0.000 A 
ATOM     22  C   UNL     1       7.753   5.667  19.066  0.00  0.00    +0.000 A 
ATOM     23  C   UNL     1       6.481   5.207  18.704  0.00  0.00    +0.000 A 
ATOM     24  C   UNL     1       5.690   5.949  17.814  0.00  0.00    +0.000 A 
ATOM     25  C   UNL     1       6.179   7.176  17.329  0.00  0.00    +0.000 A 
BRANCH  20  27
ATOM     26  C   UNL     1       8.575   9.782  18.080  0.00  0.00    +0.000 C 
ATOM     27  O   UNL     1       7.915   8.860  17.288  0.00  0.00    +0.000 OA
ENDBRANCH  20  27
ENDBRANCH  18  24
ENDBRANCH   1  18
TORSDOF 4
ENDMDL
MODEL 3
REMARK VINA RESULT:      -8.0      2.749      6.586
REMARK  Name = 
REMARK  5 active torsions:
REMARK  status: ('A' for Active; 'I' for Inactive)
REMARK    1  A    between atoms: C_1  and  O_2
REMARK    2  A    between atoms: O_2  and  C_3
REMARK    3  A    between atoms: C_7  and  N_8
REMARK    4  A    between atoms: N_8  and  C_9
REMARK    5  A    between atoms: C_11  and  C_12
REMARK                            x       y       z     vdW  Elec       q    Type
REMARK                         _______ _______ _______ _____ _____    ______ ____
ROOT
ATOM      1  C   UNL     1       3.195   5.812  18.623  0.00  0.00    +0.000 A 
ATOM      2  N   UNL     1       2.760   6.978  19.174  0.00  0.00    +0.000 NA
ATOM      3  C   UNL     1       1.802   7.016  20.134  0.00  0.00    +0.000 A 
ATOM      4  N   UNL     1       1.255   5.852  20.567  0.00  0.00    +0.000 NA
ATOM      5  C   UNL     1       1.630   4.654  20.048  0.00  0.00    +0.000 A 
ATOM      6  C   UNL     1       2.629   4.597  19.053  0.00  0.00    +0.000 A 
ATOM      7  C   UNL     1       3.116   3.263  18.517  0.00  0.00    +0.000 C 
ATOM      8  N   UNL     1       2.641   2.114  19.312  0.00  0.00    +0.000 NA
ATOM      9  C   UNL     1       1.214   2.230  19.608  0.00  0.00    +0.000 C 
ATOM     10  C   UNL     1       0.956   3.411  20.549  0.00  0.00    +0.000 C 
ATOM     11  H   UNL     1       3.171   2.068  20.216  0.00  0.00    +0.000 HD
ENDROOT
BRANCH   3  12
ATOM     12  C   UNL     1       1.324   8.315  20.661  0.00  0.00    +0.000 A 
ATOM     13  C   UNL     1       1.142   9.416  19.806  0.00  0.00    +0.000 A 
ATOM     14  C   UNL     1       0.668  10.625  20.324  0.00  0.00    +0.000 A 
ATOM     15  N   UNL     1       0.391  10.738  21.648  0.00  0.00    +0.000 NA
ATOM     16  C   UNL     1       0.558   9.695  22.502  0.00  0.00    +0.000 A 
ATOM     17  C   UNL     1       1.022   8.466  22.027  0.00  0.00    +0.000 A 
ENDBRANCH   3  12
BRANCH   1  18
ATOM     18  N   UNL     1       4.203   5.865  17.612  0.00  0.00    +0.000 N 
ATOM     19  H   UNL     1       3.941   5.705  16.629  0.00  0.00    +0.000 HD
BRANCH  18  24
ATOM     20  C   UNL     1       7.508   7.641  17.718  0.00  0.00    +0.000 A 
ATOM     21  C   UNL     1       8.230   6.788  18.560  0.00  0.00    +0.000 A 
ATOM     22  C   UNL     1       7.627   5.643  19.093  0.00  0.00    +0.000 A 
ATOM     23  C   UNL     1       6.295   5.340  18.790  0.00  0.00    +0.000 A 
ATOM     24  C   UNL     1       5.565   6.162  17.921  0.00  0.00    +0.000 A 
ATOM     25  C   UNL     1       6.179   7.314  17.394  0.00  0.00    +0.000 A 
BRANCH  20  27
ATOM     26  C   UNL     1       8.589   9.798  18.042  0.00  0.00    +0.000 C 
ATOM     27  O   UNL     1       8.106   8.770  17.254  0.00  0.00    +0.000 OA
ENDBRANCH  20  27
ENDBRANCH  18  24
ENDBRANCH   1  18
TORSDOF 4
ENDMDL
MODEL 4
REMARK VINA RESULT:      -7.9      0.894      1.346
REMARK  Name = 
REMARK  5 active torsions:
REMARK  status: ('A' for Active; 'I' for Inactive)
REMARK    1  A    between atoms: C_1  and  O_2
REMARK    2  A    between atoms: O_2  and  C_3
REMARK    3  A    between atoms: C_7  and  N_8
REMARK    4  A    between atoms: N_8  and  C_9
REMARK    5  A    between atoms: C_11  and  C_12
REMARK                            x       y       z     vdW  Elec       q    Type
REMARK                         _______ _______ _______ _____ _____    ______ ____
ROOT
ATOM      1  C   UNL     1       2.626   5.602  19.802  0.00  0.00    +0.000 A 
ATOM      2  N   UNL     1       3.704   5.952  19.049  0.00  0.00    +0.000 NA
ATOM      3  C   UNL     1       4.187   5.158  18.059  0.00  0.00    +0.000 A 
ATOM      4  N   UNL     1       3.575   3.974  17.805  0.00  0.00    +0.000 NA
ATOM      5  C   UNL     1       2.506   3.557  18.529  0.00  0.00    +0.000 A 
ATOM      6  C   UNL     1       1.988   4.372  19.558  0.00  0.00    +0.000 A 
ATOM      7  C   UNL     1       0.746   3.957  20.328  0.00  0.00    +0.000 C 
ATOM      8  N   UNL     1       0.045   2.811  19.716  0.00  0.00    +0.000 NA
ATOM      9  C   UNL     1       0.984   1.753  19.350  0.00  0.00    +0.000 C 
ATOM     10  C   UNL     1       1.903   2.220  18.216  0.00  0.00    +0.000 C 
ATOM     11  H   UNL     1      -0.461   3.127  18.854  0.00  0.00    +0.000 HD
ENDROOT
BRANCH   3  12
ATOM     12  C   UNL     1       5.397   5.559  17.305  0.00  0.00    +0.000 A 
ATOM     13  C   UNL     1       5.624   5.085  16.000  0.00  0.00    +0.000 A 
ATOM     14  C   UNL     1       6.761   5.497  15.301  0.00  0.00    +0.000 A 
ATOM     15  N   UNL     1       7.649   6.347  15.881  0.00  0.00    +0.000 NA
ATOM     16  C   UNL     1       7.461   6.821  17.140  0.00  0.00    +0.000 A 
ATOM     17  C   UNL     1       6.334   6.441  17.873  0.00  0.00    +0.000 A 
ENDBRANCH   3  12
BRANCH   1  18
ATOM     18  N   UNL     1       2.189   6.495  20.829  0.00  0.00    +0.000 N 
ATOM     19  H   UNL     1       2.266   6.207  21.815  0.00  0.00    +0.000 HD
BRANCH  18  24
ATOM     20  C   UNL     1       0.671   9.897  21.285  0.00  0.00    +0.000 A 
ATOM     21  C   UNL     1       0.697  10.368  19.967  0.00  0.00    +0.000 A 
ATOM     22  C   UNL     1       1.219   9.572  18.942  0.00  0.00    +0.000 A 
ATOM     23  C   UNL     1       1.721   8.295  19.223  0.00  0.00    +0.000 A 
ATOM     24  C   UNL     1       1.672   7.791  20.531  0.00  0.00    +0.000 A 
ATOM     25  C   UNL     1       1.149   8.603  21.555  0.00  0.00    +0.000 A 
BRANCH  20  27
ATOM     26  C   UNL     1      -0.890  10.444  23.071  0.00  0.00    +0.000 C 
ATOM     27  O   UNL     1       0.202  10.712  22.266  0.00  0.00    +0.000 OA
ENDBRANCH  20  27
ENDBRANCH  18  24
ENDBRANCH   1  18
TORSDOF 4
ENDMDL
MODEL 5
REMARK VINA RESULT:      -7.9      2.960      6.896
REMARK  Name = 
REMARK  5 active torsions:
REMARK  status: ('A' for Active; 'I' for Inactive)
REMARK    1  A    between atoms: C_1  and  O_2
REMARK    2  A    between atoms: O_2  and  C_3
REMARK    3  A    between atoms: C_7  and  N_8
REMARK    4  A    between atoms: N_8  and  C_9
REMARK    5  A    between atoms: C_11  and  C_12
REMARK                            x       y       z     vdW  Elec       q    Type
REMARK                         _______ _______ _______ _____ _____    ______ ____
ROOT
ATOM      1  C   UNL     1       3.095   4.801  18.102  0.00  0.00    +0.000 A 
ATOM      2  N   UNL     1       2.769   6.123  18.085  0.00  0.00    +0.000 NA
ATOM      3  C   UNL     1       2.304   6.771  19.184  0.00  0.00    +0.000 A 
ATOM      4  N   UNL     1       2.160   6.083  20.343  0.00  0.00    +0.000 NA
ATOM      5  C   UNL     1       2.450   4.759  20.426  0.00  0.00    +0.000 A 
ATOM      6  C   UNL     1       2.939   4.072  19.295  0.00  0.00    +0.000 A 
ATOM      7  C   UNL     1       3.342   2.610  19.388  0.00  0.00    +0.000 C 
ATOM      8  N   UNL     1       3.411   2.119  20.778  0.00  0.00    +0.000 NA
ATOM      9  C   UNL     1       2.237   2.534  21.544  0.00  0.00    +0.000 C 
ATOM     10  C   UNL     1       2.231   4.055  21.732  0.00  0.00    +0.000 C 
ATOM     11  H   UNL     1       4.270   2.498  21.244  0.00  0.00    +0.000 HD
ENDROOT
BRANCH   3  12
ATOM     12  C   UNL     1       1.911   8.196  19.098  0.00  0.00    +0.000 A 
ATOM     13  C   UNL     1       2.217   8.961  17.958  0.00  0.00    +0.000 A 
ATOM     14  C   UNL     1       1.815  10.297  17.891  0.00  0.00    +0.000 A 
ATOM     15  N   UNL     1       1.136  10.858  18.925  0.00  0.00    +0.000 NA
ATOM     16  C   UNL     1       0.827  10.149  20.042  0.00  0.00    +0.000 A 
ATOM     17  C   UNL     1       1.204   8.808  20.148  0.00  0.00    +0.000 A 
ENDBRANCH   3  12
BRANCH   1  18
ATOM     18  N   UNL     1       3.571   4.197  16.898  0.00  0.00    +0.000 N 
ATOM     19  H   UNL     1       2.924   3.637  16.324  0.00  0.00    +0.000 HD
BRANCH  18  24
ATOM     20  C   UNL     1       6.530   4.507  14.611  0.00  0.00    +0.000 A 
ATOM     21  C   UNL     1       7.546   4.759  15.539  0.00  0.00    +0.000 A 
ATOM     22  C   UNL     1       7.253   4.834  16.905  0.00  0.00    +0.000 A 
ATOM     23  C   UNL     1       5.940   4.658  17.358  0.00  0.00    +0.000 A 
ATOM     24  C   UNL     1       4.914   4.370  16.447  0.00  0.00    +0.000 A 
ATOM     25  C   UNL     1       5.219   4.302  15.075  0.00  0.00    +0.000 A 
BRANCH  20  27
ATOM     26  C   UNL     1       6.408   3.534  12.383  0.00  0.00    +0.000 C 
ATOM     27  O   UNL     1       6.838   4.487  13.287  0.00  0.00    +0.000 OA
ENDBRANCH  20  27
ENDBRANCH  18  24
ENDBRANCH   1  18
TORSDOF 4
ENDMDL
MODEL 6
REMARK VINA RESULT:      -7.8      2.589      6.336
REMARK  Name = 
REMARK  5 active torsions:
REMARK  status: ('A' for Active; 'I' for Inactive)
REMARK    1  A    between atoms: C_1  and  O_2
REMARK    2  A    between atoms: O_2  and  C_3
REMARK    3  A    between atoms: C_7  and  N_8
REMARK    4  A    between atoms: N_8  and  C_9
REMARK    5  A    between atoms: C_11  and  C_12
REMARK                            x       y       z     vdW  Elec       q    Type
REMARK                         _______ _______ _______ _____ _____    ______ ____
ROOT
ATOM      1  C   UNL     1       3.111   4.805  18.098  0.00  0.00    +0.000 A 
ATOM      2  N   UNL     1       2.765   6.121  18.081  0.00  0.00    +0.000 NA
ATOM      3  C   UNL     1       2.297   6.764  19.180  0.00  0.00    +0.000 A 
ATOM      4  N   UNL     1       2.169   6.076  20.342  0.00  0.00    +0.000 NA
ATOM      5  C   UNL     1       2.481   4.757  20.426  0.00  0.00    +0.000 A 
ATOM      6  C   UNL     1       2.974   4.075  19.294  0.00  0.00    +0.000 A 
ATOM      7  C   UNL     1       3.400   2.620  19.387  0.00  0.00    +0.000 C 
ATOM      8  N   UNL     1       3.484   2.133  20.778  0.00  0.00    +0.000 NA
ATOM      9  C   UNL     1       2.308   2.532  21.549  0.00  0.00    +0.000 C 
ATOM     10  C   UNL     1       2.280   4.052  21.735  0.00  0.00    +0.000 C 
ATOM     11  H   UNL     1       4.340   2.527  21.238  0.00  0.00    +0.000 HD
ENDROOT
BRANCH   3  12
ATOM     12  C   UNL     1       1.881   8.183  19.094  0.00  0.00    +0.000 A 
ATOM     13  C   UNL     1       1.185   8.796  20.151  0.00  0.00    +0.000 A 
ATOM     14  C   UNL     1       0.825  10.142  20.055  0.00  0.00    +0.000 A 
ATOM     15  N   UNL     1       1.140  10.856  18.943  0.00  0.00    +0.000 NA
ATOM     16  C   UNL     1       1.809  10.294  17.903  0.00  0.00    +0.000 A 
ATOM     17  C   UNL     1       2.196   8.952  17.959  0.00  0.00    +0.000 A 
ENDBRANCH   3  12
BRANCH   1  18
ATOM     18  N   UNL     1       3.590   4.205  16.892  0.00  0.00    +0.000 N 
ATOM     19  H   UNL     1       2.992   3.533  16.391  0.00  0.00    +0.000 HD
BRANCH  18  24
ATOM     20  C   UNL     1       7.013   5.697  16.522  0.00  0.00    +0.000 A 
ATOM     21  C   UNL     1       7.402   5.144  15.297  0.00  0.00    +0.000 A 
ATOM     22  C   UNL     1       6.544   4.282  14.605  0.00  0.00    +0.000 A 
ATOM     23  C   UNL     1       5.288   3.962  15.133  0.00  0.00    +0.000 A 
ATOM     24  C   UNL     1       4.865   4.532  16.342  0.00  0.00    +0.000 A 
ATOM     25  C   UNL     1       5.738   5.394  17.031  0.00  0.00    +0.000 A 
BRANCH  20  27
ATOM     26  C   UNL     1       7.647   7.802  17.567  0.00  0.00    +0.000 C 
ATOM     27  O   UNL     1       7.887   6.493  17.192  0.00  0.00    +0.000 OA
ENDBRANCH  20  27
ENDBRANCH  18  24
ENDBRANCH   1  18
TORSDOF 4
ENDMDL
MODEL 7
REMARK VINA RESULT:      -7.8      2.840      7.172
REMARK  Name = 
REMARK  5 active torsions:
REMARK  status: ('A' for Active; 'I' for Inactive)
REMARK    1  A    between atoms: C_1  and  O_2
REMARK    2  A    between atoms: O_2  and  C_3
REMARK    3  A    between atoms: C_7  and  N_8
REMARK    4  A    between atoms: N_8  and  C_9
REMARK    5  A    between atoms: C_11  and  C_12
REMARK                            x       y       z     vdW  Elec       q    Type
REMARK                         _______ _______ _______ _____ _____    ______ ____
ROOT
ATOM      1  C   UNL     1       2.850   6.316  18.576  0.00  0.00    +0.000 A 
ATOM      2  N   UNL     1       2.401   7.438  19.201  0.00  0.00    +0.000 NA
ATOM      3  C   UNL     1       1.652   7.391  20.332  0.00  0.00    +0.000 A 
ATOM      4  N   UNL     1       1.337   6.183  20.864  0.00  0.00    +0.000 NA
ATOM      5  C   UNL     1       1.738   5.024  20.283  0.00  0.00    +0.000 A 
ATOM      6  C   UNL     1       2.522   5.056  19.111  0.00  0.00    +0.000 A 
ATOM      7  C   UNL     1       3.044   3.772  18.489  0.00  0.00    +0.000 C 
ATOM      8  N   UNL     1       2.868   2.596  19.364  0.00  0.00    +0.000 NA
ATOM      9  C   UNL     1       1.523   2.559  19.935  0.00  0.00    +0.000 C 
ATOM     10  C   UNL     1       1.322   3.725  20.908  0.00  0.00    +0.000 C 
ATOM     11  H   UNL     1       3.567   2.630  20.145  0.00  0.00    +0.000 HD
ENDROOT
BRANCH   3  12
ATOM     12  C   UNL     1       1.142   8.640  20.942  0.00  0.00    +0.000 A 
ATOM     13  C   UNL     1       1.104   9.838  20.206  0.00  0.00    +0.000 A 
ATOM     14  C   UNL     1       0.596  10.998  20.796  0.00  0.00    +0.000 A 
ATOM     15  N   UNL     1       0.146  10.972  22.078  0.00  0.00    +0.000 NA
ATOM     16  C   UNL     1       0.171   9.833  22.817  0.00  0.00    +0.000 A 
ATOM     17  C   UNL     1       0.663   8.647  22.264  0.00  0.00    +0.000 A 
ENDBRANCH   3  12
BRANCH   1  18
ATOM     18  N   UNL     1       3.628   6.458  17.386  0.00  0.00    +0.000 N 
ATOM     19  H   UNL     1       3.259   7.020  16.606  0.00  0.00    +0.000 HD
BRANCH  18  24
ATOM     20  C   UNL     1       6.611   4.762  15.867  0.00  0.00    +0.000 A 
ATOM     21  C   UNL     1       7.480   4.741  16.964  0.00  0.00    +0.000 A 
ATOM     22  C   UNL     1       7.085   5.289  18.190  0.00  0.00    +0.000 A 
ATOM     23  C   UNL     1       5.817   5.866  18.331  0.00  0.00    +0.000 A 
ATOM     24  C   UNL     1       4.919   5.865  17.254  0.00  0.00    +0.000 A 
ATOM     25  C   UNL     1       5.329   5.316  16.025  0.00  0.00    +0.000 A 
BRANCH  20  27
ATOM     26  C   UNL     1       6.222   3.847  13.646  0.00  0.00    +0.000 C 
ATOM     27  O   UNL     1       7.041   4.265  14.678  0.00  0.00    +0.000 OA
ENDBRANCH  20  27
ENDBRANCH  18  24
ENDBRANCH   1  18
TORSDOF 4
ENDMDL
MODEL 8
REMARK VINA RESULT:      -7.8      2.685      6.496
REMARK  Name = 
REMARK  5 active torsions:
REMARK  status: ('A' for Active; 'I' for Inactive)
REMARK    1  A    between atoms: C_1  and  O_2
REMARK    2  A    between atoms: O_2  and  C_3
REMARK    3  A    between atoms: C_7  and  N_8
REMARK    4  A    between atoms: N_8  and  C_9
REMARK    5  A    between atoms: C_11  and  C_12
REMARK                            x       y       z     vdW  Elec       q    Type
REMARK                         _______ _______ _______ _____ _____    ______ ____
ROOT
ATOM      1  C   UNL     1       2.905   4.922  18.178  0.00  0.00    +0.000 A 
ATOM      2  N   UNL     1       2.597   6.247  18.224  0.00  0.00    +0.000 NA
ATOM      3  C   UNL     1       2.108   6.842  19.343  0.00  0.00    +0.000 A 
ATOM      4  N   UNL     1       1.921   6.094  20.459  0.00  0.00    +0.000 NA
ATOM      5  C   UNL     1       2.192   4.764  20.478  0.00  0.00    +0.000 A 
ATOM      6  C   UNL     1       2.706   4.132  19.326  0.00  0.00    +0.000 A 
ATOM      7  C   UNL     1       3.087   2.662  19.351  0.00  0.00    +0.000 C 
ATOM      8  N   UNL     1       3.109   2.095  20.713  0.00  0.00    +0.000 NA
ATOM      9  C   UNL     1       1.919   2.485  21.467  0.00  0.00    +0.000 C 
ATOM     10  C   UNL     1       1.927   3.993  21.737  0.00  0.00    +0.000 C 
ATOM     11  H   UNL     1       3.960   2.437  21.223  0.00  0.00    +0.000 HD
ENDROOT
BRANCH   3  12
ATOM     12  C   UNL     1       1.736   8.275  19.323  0.00  0.00    +0.000 A 
ATOM     13  C   UNL     1       1.959   9.062  18.179  0.00  0.00    +0.000 A 
ATOM     14  C   UNL     1       1.577  10.406  18.177  0.00  0.00    +0.000 A 
ATOM     15  N   UNL     1       0.998  10.953  19.278  0.00  0.00    +0.000 NA
ATOM     16  C   UNL     1       0.771  10.222  20.399  0.00  0.00    +0.000 A 
ATOM     17  C   UNL     1       1.130   8.872  20.443  0.00  0.00    +0.000 A 
ENDBRANCH   3  12
BRANCH   1  18
ATOM     18  N   UNL     1       3.408   4.377  16.957  0.00  0.00    +0.000 N 
ATOM     19  H   UNL     1       2.755   3.933  16.296  0.00  0.00    +0.000 HD
BRANCH  18  24
ATOM     20  C   UNL     1       7.138   4.626  17.291  0.00  0.00    +0.000 A 
ATOM     21  C   UNL     1       7.521   4.553  15.947  0.00  0.00    +0.000 A 
ATOM     22  C   UNL     1       6.556   4.414  14.943  0.00  0.00    +0.000 A 
ATOM     23  C   UNL     1       5.197   4.346  15.273  0.00  0.00    +0.000 A 
ATOM     24  C   UNL     1       4.790   4.453  16.610  0.00  0.00    +0.000 A 
ATOM     25  C   UNL     1       5.770   4.587  17.612  0.00  0.00    +0.000 A 
BRANCH  20  27
ATOM     26  C   UNL     1       8.132   5.646  19.265  0.00  0.00    +0.000 C 
ATOM     27  O   UNL     1       8.101   4.712  18.246  0.00  0.00    +0.000 OA
ENDBRANCH  20  27
ENDBRANCH  18  24
ENDBRANCH   1  18
TORSDOF 4
ENDMDL
MODEL 9
REMARK VINA RESULT:      -7.7      2.923      6.767
REMARK  Name = 
REMARK  5 active torsions:
REMARK  status: ('A' for Active; 'I' for Inactive)
REMARK    1  A    between atoms: C_1  and  O_2
REMARK    2  A    between atoms: O_2  and  C_3
REMARK    3  A    between atoms: C_7  and  N_8
REMARK    4  A    between atoms: N_8  and  C_9
REMARK    5  A    between atoms: C_11  and  C_12
REMARK                            x       y       z     vdW  Elec       q    Type
REMARK                         _______ _______ _______ _____ _____    ______ ____
ROOT
ATOM      1  C   UNL     1       4.312   5.285  19.052  0.00  0.00    +0.000 A 
ATOM      2  N   UNL     1       3.768   6.525  18.916  0.00  0.00    +0.000 NA
ATOM      3  C   UNL     1       2.561   6.852  19.443  0.00  0.00    +0.000 A 
ATOM      4  N   UNL     1       1.867   5.912  20.134  0.00  0.00    +0.000 NA
ATOM      5  C   UNL     1       2.343   4.651  20.293  0.00  0.00    +0.000 A 
ATOM      6  C   UNL     1       3.599   4.297  19.756  0.00  0.00    +0.000 A 
ATOM      7  C   UNL     1       4.182   2.914  19.989  0.00  0.00    +0.000 C 
ATOM      8  N   UNL     1       3.444   2.142  21.007  0.00  0.00    +0.000 NA
ATOM      9  C   UNL     1       2.001   2.226  20.790  0.00  0.00    +0.000 C 
ATOM     10  C   UNL     1       1.505   3.654  21.037  0.00  0.00    +0.000 C 
ATOM     11  H   UNL     1       3.665   2.515  21.962  0.00  0.00    +0.000 HD
ENDROOT
BRANCH   3  12
ATOM     12  C   UNL     1       1.989   8.199  19.219  0.00  0.00    +0.000 A 
ATOM     13  C   UNL     1       1.208   8.824  20.208  0.00  0.00    +0.000 A 
ATOM     14  C   UNL     1       0.699  10.106  19.982  0.00  0.00    +0.000 A 
ATOM     15  N   UNL     1       0.952  10.744  18.810  0.00  0.00    +0.000 NA
ATOM     16  C   UNL     1       1.700  10.168  17.834  0.00  0.00    +0.000 A 
ATOM     17  C   UNL     1       2.235   8.890  18.020  0.00  0.00    +0.000 A 
ENDBRANCH   3  12
BRANCH   1  18
ATOM     18  N   UNL     1       5.586   5.026  18.459  0.00  0.00    +0.000 N 
ATOM     19  H   UNL     1       6.423   4.987  19.058  0.00  0.00    +0.000 HD
BRANCH  18  24
ATOM     20  C   UNL     1       6.994   5.097  14.981  0.00  0.00    +0.000 A 
ATOM     21  C   UNL     1       6.063   4.296  14.311  0.00  0.00    +0.000 A 
ATOM     22  C   UNL     1       4.986   3.733  15.004  0.00  0.00    +0.000 A 
ATOM     23  C   UNL     1       4.830   3.963  16.376  0.00  0.00    +0.000 A 
ATOM     24  C   UNL     1       5.732   4.792  17.059  0.00  0.00    +0.000 A 
ATOM     25  C   UNL     1       6.814   5.349  16.352  0.00  0.00    +0.000 A 
BRANCH  20  27
ATOM     26  C   UNL     1       8.212   5.529  12.918  0.00  0.00    +0.000 C 
ATOM     27  O   UNL     1       8.055   5.592  14.290  0.00  0.00    +0.000 OA
ENDBRANCH  20  27
ENDBRANCH  18  24
ENDBRANCH   1  18
TORSDOF 4
ENDMDL
