MODEL 1
REMARK VINA RESULT:      -7.4      0.000      0.000
REMARK  Name = 
REMARK  13 active torsions:
REMARK  status: ('A' for Active; 'I' for Inactive)
REMARK    1  A    between atoms: C_1  and  O_2
REMARK    2  A    between atoms: O_2  and  C_3
REMARK    3  A    between atoms: C_6  and  C_7
REMARK    4  A    between atoms: C_8  and  C_9
REMARK    5  A    between atoms: C_11  and  O_12
REMARK    6  A    between atoms: O_12  and  C_13
REMARK    7  A    between atoms: C_14  and  O_15
REMARK    8  A    between atoms: O_15  and  C_16
REMARK    9  A    between atoms: C_17  and  O_18
REMARK   10  A    between atoms: O_18  and  C_19
REMARK   11  A    between atoms: C_22  and  N_23
REMARK   12  A    between atoms: N_26  and  C_27
REMARK   13  A    between atoms: C_30  and  C_31
REMARK                            x       y       z     vdW  Elec       q    Type
REMARK                         _______ _______ _______ _____ _____    ______ ____
ROOT
ATOM      1  C   UNL     1       0.130   8.933  21.285  0.00  0.00    +0.000 A 
ATOM      2  C   UNL     1       1.178   8.012  21.149  0.00  0.00    +0.000 A 
ATOM      3  C   UNL     1       1.895   7.930  19.956  0.00  0.00    +0.000 A 
ATOM      4  C   UNL     1       1.575   8.763  18.887  0.00  0.00    +0.000 A 
ATOM      5  C   UNL     1       0.524   9.678  19.010  0.00  0.00    +0.000 A 
ATOM      6  C   UNL     1      -0.187   9.788  20.214  0.00  0.00    +0.000 A 
ENDROOT
BRANCH   6   7
ATOM      7  N   UNL     1      -1.164  10.804  20.377  0.00  0.00    +0.000 N 
ATOM      8  C   UNL     1      -0.857  12.049  20.911  0.00  0.00    +0.000 C 
ATOM      9  O   UNL     1       0.290  12.448  21.084  0.00  0.00    +0.000 OA
ATOM     10  N   UNL     1      -2.001  12.766  21.213  0.00  0.00    +0.000 N 
ATOM     11  H   UNL     1      -1.913  10.794  19.693  0.00  0.00    +0.000 HD
ATOM     12  H   UNL     1      -2.807  12.211  21.456  0.00  0.00    +0.000 HD
BRANCH  10  13
ATOM     13  C   UNL     1      -2.032  14.131  21.585  0.00  0.00    +0.000 A 
ATOM     14  C   UNL     1      -1.791  15.165  20.675  0.00  0.00    +0.000 A 
ATOM     15  C   UNL     1      -1.857  16.510  21.068  0.00  0.00    +0.000 A 
ATOM     16  C   UNL     1      -2.158  16.848  22.388  0.00  0.00    +0.000 A 
ATOM     17  C   UNL     1      -2.230  18.288  22.809  0.00  0.00    +0.000 C 
ATOM     18  C   UNL     1      -2.403  15.822  23.306  0.00  0.00    +0.000 A 
ATOM     19  C   UNL     1      -2.353  14.474  22.905  0.00  0.00    +0.000 A 
ENDBRANCH  10  13
ENDBRANCH   6   7
BRANCH   1  21
ATOM     20  C   UNL     1       0.118   9.510  23.566  0.00  0.00    +0.000 C 
ATOM     21  O   UNL     1      -0.621   9.041  22.434  0.00  0.00    +0.000 OA
ENDBRANCH   1  21
BRANCH   4  22
ATOM     22  C   UNL     1       2.440   8.775  17.712  0.00  0.00    +0.000 C 
ATOM     23  C   UNL     1       3.296   7.824  17.317  0.00  0.00    +0.000 C 
BRANCH  23  24
ATOM     24  C   UNL     1       3.525   6.500  17.896  0.00  0.00    +0.000 A 
ATOM     25  C   UNL     1       2.461   5.605  17.991  0.00  0.00    +0.000 A 
ATOM     26  C   UNL     1       2.698   4.255  18.273  0.00  0.00    +0.000 A 
ATOM     27  C   UNL     1       4.014   3.807  18.524  0.00  0.00    +0.000 A 
ATOM     28  C   UNL     1       5.082   4.732  18.508  0.00  0.00    +0.000 A 
ATOM     29  C   UNL     1       4.821   6.072  18.188  0.00  0.00    +0.000 A 
BRANCH  26  30
ATOM     30  O   UNL     1       1.697   3.310  18.286  0.00  0.00    +0.000 OA
ATOM     31  C   UNL     1       0.855   3.312  19.437  0.00  0.00    +0.000 C 
ENDBRANCH  26  30
BRANCH  27  32
ATOM     32  O   UNL     1       4.145   2.469  18.829  0.00  0.00    +0.000 OA
ATOM     33  C   UNL     1       4.330   2.150  20.204  0.00  0.00    +0.000 C 
ENDBRANCH  27  32
BRANCH  28  34
ATOM     34  O   UNL     1       6.337   4.265  18.804  0.00  0.00    +0.000 OA
ATOM     35  C   UNL     1       7.426   4.725  18.017  0.00  0.00    +0.000 C 
ENDBRANCH  28  34
ENDBRANCH  23  24
ENDBRANCH   4  22
TORSDOF 8
ENDMDL
MODEL 2
REMARK VINA RESULT:      -7.3      3.988     10.531
REMARK  Name = 
REMARK  13 active torsions:
REMARK  status: ('A' for Active; 'I' for Inactive)
REMARK    1  A    between atoms: C_1  and  O_2
REMARK    2  A    between atoms: O_2  and  C_3
REMARK    3  A    between atoms: C_6  and  C_7
REMARK    4  A    between atoms: C_8  and  C_9
REMARK    5  A    between atoms: C_11  and  O_12
REMARK    6  A    between atoms: O_12  and  C_13
REMARK    7  A    between atoms: C_14  and  O_15
REMARK    8  A    between atoms: O_15  and  C_16
REMARK    9  A    between atoms: C_17  and  O_18
REMARK   10  A    between atoms: O_18  and  C_19
REMARK   11  A    between atoms: C_22  and  N_23
REMARK   12  A    between atoms: N_26  and  C_27
REMARK   13  A    between atoms: C_30  and  C_31
REMARK                            x       y       z     vdW  Elec       q    Type
REMARK                         _______ _______ _______ _____ _____    ______ ____
ROOT
ATOM      1  C   UNL     1       0.115  10.487  20.828  0.00  0.00    +0.000 A 
ATOM      2  C   UNL     1      -0.896  11.457  20.796  0.00  0.00    +0.000 A 
ATOM      3  C   UNL     1      -1.597  11.707  19.617  0.00  0.00    +0.000 A 
ATOM      4  C   UNL     1      -1.296  10.995  18.458  0.00  0.00    +0.000 A 
ATOM      5  C   UNL     1      -0.281  10.033  18.478  0.00  0.00    +0.000 A 
ATOM      6  C   UNL     1       0.411   9.754  19.665  0.00  0.00    +0.000 A 
ENDROOT
BRANCH   6   7
ATOM      7  N   UNL     1       1.348   8.688  19.712  0.00  0.00    +0.000 N 
ATOM      8  C   UNL     1       1.949   8.178  18.568  0.00  0.00    +0.000 C 
ATOM      9  O   UNL     1       1.892   8.726  17.471  0.00  0.00    +0.000 OA
ATOM     10  N   UNL     1       2.610   6.992  18.830  0.00  0.00    +0.000 N 
ATOM     11  H   UNL     1       1.908   8.645  20.556  0.00  0.00    +0.000 HD
ATOM     12  H   UNL     1       2.226   6.439  19.580  0.00  0.00    +0.000 HD
BRANCH  10  13
ATOM     13  C   UNL     1       3.477   6.327  17.930  0.00  0.00    +0.000 A 
ATOM     14  C   UNL     1       4.498   6.990  17.242  0.00  0.00    +0.000 A 
ATOM     15  C   UNL     1       5.361   6.298  16.378  0.00  0.00    +0.000 A 
ATOM     16  C   UNL     1       5.212   4.926  16.178  0.00  0.00    +0.000 A 
ATOM     17  C   UNL     1       6.135   4.185  15.254  0.00  0.00    +0.000 C 
ATOM     18  C   UNL     1       4.195   4.253  16.864  0.00  0.00    +0.000 A 
ATOM     19  C   UNL     1       3.343   4.946  17.742  0.00  0.00    +0.000 A 
ENDBRANCH  10  13
ENDBRANCH   6   7
BRANCH   1  21
ATOM     20  C   UNL     1       0.092   9.594  23.005  0.00  0.00    +0.000 C 
ATOM     21  O   UNL     1       0.849  10.214  21.961  0.00  0.00    +0.000 OA
ENDBRANCH   1  21
BRANCH   4  22
ATOM     22  C   UNL     1      -2.149  11.157  17.284  0.00  0.00    +0.000 C 
ATOM     23  C   UNL     1      -3.480  11.291  17.253  0.00  0.00    +0.000 C 
BRANCH  23  24
ATOM     24  C   UNL     1      -4.416  11.401  18.372  0.00  0.00    +0.000 A 
ATOM     25  C   UNL     1      -4.342  12.508  19.216  0.00  0.00    +0.000 A 
ATOM     26  C   UNL     1      -5.382  12.785  20.109  0.00  0.00    +0.000 A 
ATOM     27  C   UNL     1      -6.485  11.906  20.203  0.00  0.00    +0.000 A 
ATOM     28  C   UNL     1      -6.519  10.741  19.406  0.00  0.00    +0.000 A 
ATOM     29  C   UNL     1      -5.480  10.506  18.493  0.00  0.00    +0.000 A 
BRANCH  26  30
ATOM     30  O   UNL     1      -5.406  13.913  20.898  0.00  0.00    +0.000 OA
ATOM     31  C   UNL     1      -4.146  14.343  21.407  0.00  0.00    +0.000 C 
ENDBRANCH  26  30
BRANCH  27  32
ATOM     32  O   UNL     1      -7.442  12.241  21.137  0.00  0.00    +0.000 OA
ATOM     33  C   UNL     1      -7.260  11.710  22.446  0.00  0.00    +0.000 C 
ENDBRANCH  27  32
BRANCH  28  34
ATOM     34  O   UNL     1      -7.583   9.890  19.562  0.00  0.00    +0.000 OA
ATOM     35  C   UNL     1      -7.343   8.613  20.136  0.00  0.00    +0.000 C 
ENDBRANCH  28  34
ENDBRANCH  23  24
ENDBRANCH   4  22
TORSDOF 8
ENDMDL
MODEL 3
REMARK VINA RESULT:      -7.2      3.684     10.967
REMARK  Name = 
REMARK  13 active torsions:
REMARK  status: ('A' for Active; 'I' for Inactive)
REMARK    1  A    between atoms: C_1  and  O_2
REMARK    2  A    between atoms: O_2  and  C_3
REMARK    3  A    between atoms: C_6  and  C_7
REMARK    4  A    between atoms: C_8  and  C_9
REMARK    5  A    between atoms: C_11  and  O_12
REMARK    6  A    between atoms: O_12  and  C_13
REMARK    7  A    between atoms: C_14  and  O_15
REMARK    8  A    between atoms: O_15  and  C_16
REMARK    9  A    between atoms: C_17  and  O_18
REMARK   10  A    between atoms: O_18  and  C_19
REMARK   11  A    between atoms: C_22  and  N_23
REMARK   12  A    between atoms: N_26  and  C_27
REMARK   13  A    between atoms: C_30  and  C_31
REMARK                            x       y       z     vdW  Elec       q    Type
REMARK                         _______ _______ _______ _____ _____    ______ ____
ROOT
ATOM      1  C   UNL     1       0.478  12.493  20.767  0.00  0.00    +0.000 A 
ATOM      2  C   UNL     1      -0.329  13.633  20.887  0.00  0.00    +0.000 A 
ATOM      3  C   UNL     1      -1.433  13.629  21.738  0.00  0.00    +0.000 A 
ATOM      4  C   UNL     1      -1.745  12.489  22.477  0.00  0.00    +0.000 A 
ATOM      5  C   UNL     1      -0.952  11.344  22.355  0.00  0.00    +0.000 A 
ATOM      6  C   UNL     1       0.177  11.346  21.523  0.00  0.00    +0.000 A 
ENDROOT
BRANCH   6   7
ATOM      7  N   UNL     1       1.051  10.228  21.503  0.00  0.00    +0.000 N 
ATOM      8  C   UNL     1       0.926   9.205  20.571  0.00  0.00    +0.000 C 
ATOM      9  O   UNL     1       0.208   9.277  19.578  0.00  0.00    +0.000 OA
ATOM     10  N   UNL     1       1.707   8.115  20.909  0.00  0.00    +0.000 N 
ATOM     11  H   UNL     1       1.995  10.414  21.822  0.00  0.00    +0.000 HD
ATOM     12  H   UNL     1       1.868   7.986  21.895  0.00  0.00    +0.000 HD
BRANCH  10  13
ATOM     13  C   UNL     1       1.951   6.998  20.074  0.00  0.00    +0.000 A 
ATOM     14  C   UNL     1       2.581   7.112  18.830  0.00  0.00    +0.000 A 
ATOM     15  C   UNL     1       2.835   5.982  18.038  0.00  0.00    +0.000 A 
ATOM     16  C   UNL     1       2.453   4.713  18.472  0.00  0.00    +0.000 A 
ATOM     17  C   UNL     1       2.724   3.503  17.624  0.00  0.00    +0.000 C 
ATOM     18  C   UNL     1       1.823   4.588  19.714  0.00  0.00    +0.000 A 
ATOM     19  C   UNL     1       1.586   5.720  20.514  0.00  0.00    +0.000 A 
ENDBRANCH  10  13
ENDBRANCH   6   7
BRANCH   1  21
ATOM     20  C   UNL     1       1.314  12.951  18.616  0.00  0.00    +0.000 C 
ATOM     21  O   UNL     1       1.568  12.438  19.928  0.00  0.00    +0.000 OA
ENDBRANCH   1  21
BRANCH   4  22
ATOM     22  C   UNL     1      -2.803  12.561  23.479  0.00  0.00    +0.000 C 
ATOM     23  C   UNL     1      -4.078  12.927  23.299  0.00  0.00    +0.000 C 
BRANCH  23  24
ATOM     24  C   UNL     1      -4.767  13.261  22.052  0.00  0.00    +0.000 A 
ATOM     25  C   UNL     1      -5.430  12.256  21.350  0.00  0.00    +0.000 A 
ATOM     26  C   UNL     1      -6.322  12.583  20.322  0.00  0.00    +0.000 A 
ATOM     27  C   UNL     1      -6.505  13.935  19.952  0.00  0.00    +0.000 A 
ATOM     28  C   UNL     1      -5.771  14.946  20.610  0.00  0.00    +0.000 A 
ATOM     29  C   UNL     1      -4.910  14.593  21.660  0.00  0.00    +0.000 A 
BRANCH  26  30
ATOM     30  O   UNL     1      -7.073  11.640  19.659  0.00  0.00    +0.000 OA
ATOM     31  C   UNL     1      -7.542  10.550  20.450  0.00  0.00    +0.000 C 
ENDBRANCH  26  30
BRANCH  27  32
ATOM     32  O   UNL     1      -7.375  14.157  18.905  0.00  0.00    +0.000 OA
ATOM     33  C   UNL     1      -6.790  14.274  17.612  0.00  0.00    +0.000 C 
ENDBRANCH  27  32
BRANCH  28  34
ATOM     34  O   UNL     1      -5.943  16.239  20.188  0.00  0.00    +0.000 OA
ATOM     35  C   UNL     1      -6.210  17.234  21.166  0.00  0.00    +0.000 C 
ENDBRANCH  28  34
ENDBRANCH  23  24
ENDBRANCH   4  22
TORSDOF 8
ENDMDL
MODEL 4
REMARK VINA RESULT:      -7.1      3.064     11.074
REMARK  Name = 
REMARK  13 active torsions:
REMARK  status: ('A' for Active; 'I' for Inactive)
REMARK    1  A    between atoms: C_1  and  O_2
REMARK    2  A    between atoms: O_2  and  C_3
REMARK    3  A    between atoms: C_6  and  C_7
REMARK    4  A    between atoms: C_8  and  C_9
REMARK    5  A    between atoms: C_11  and  O_12
REMARK    6  A    between atoms: O_12  and  C_13
REMARK    7  A    between atoms: C_14  and  O_15
REMARK    8  A    between atoms: O_15  and  C_16
REMARK    9  A    between atoms: C_17  and  O_18
REMARK   10  A    between atoms: O_18  and  C_19
REMARK   11  A    between atoms: C_22  and  N_23
REMARK   12  A    between atoms: N_26  and  C_27
REMARK   13  A    between atoms: C_30  and  C_31
REMARK                            x       y       z     vdW  Elec       q    Type
REMARK                         _______ _______ _______ _____ _____    ______ ____
ROOT
ATOM      1  C   UNL     1       1.446  11.954  19.467  0.00  0.00    +0.000 A 
ATOM      2  C   UNL     1       1.194  12.927  20.443  0.00  0.00    +0.000 A 
ATOM      3  C   UNL     1       0.336  12.653  21.508  0.00  0.00    +0.000 A 
ATOM      4  C   UNL     1      -0.281  11.408  21.608  0.00  0.00    +0.000 A 
ATOM      5  C   UNL     1      -0.044  10.434  20.633  0.00  0.00    +0.000 A 
ATOM      6  C   UNL     1       0.839  10.690  19.573  0.00  0.00    +0.000 A 
ENDROOT
BRANCH   6   7
ATOM      7  N   UNL     1       1.176   9.657  18.660  0.00  0.00    +0.000 N 
ATOM      8  C   UNL     1       1.674   8.429  19.079  0.00  0.00    +0.000 C 
ATOM      9  O   UNL     1       1.665   8.058  20.249  0.00  0.00    +0.000 OA
ATOM     10  N   UNL     1       2.171   7.696  18.017  0.00  0.00    +0.000 N 
ATOM     11  H   UNL     1       0.624   9.636  17.810  0.00  0.00    +0.000 HD
ATOM     12  H   UNL     1       2.533   8.238  17.248  0.00  0.00    +0.000 HD
BRANCH  10  13
ATOM     13  C   UNL     1       2.567   6.338  18.080  0.00  0.00    +0.000 A 
ATOM     14  C   UNL     1       1.664   5.283  17.913  0.00  0.00    +0.000 A 
ATOM     15  C   UNL     1       2.092   3.947  17.952  0.00  0.00    +0.000 A 
ATOM     16  C   UNL     1       3.435   3.640  18.169  0.00  0.00    +0.000 A 
ATOM     17  C   UNL     1       3.893   2.210  18.210  0.00  0.00    +0.000 C 
ATOM     18  C   UNL     1       4.347   4.688  18.335  0.00  0.00    +0.000 A 
ATOM     19  C   UNL     1       3.918   6.026  18.278  0.00  0.00    +0.000 A 
ENDBRANCH  10  13
ENDBRANCH   6   7
BRANCH   1  21
ATOM     20  C   UNL     1       2.838  13.492  18.357  0.00  0.00    +0.000 C 
ATOM     21  O   UNL     1       2.270  12.179  18.387  0.00  0.00    +0.000 OA
ENDBRANCH   1  21
BRANCH   4  22
ATOM     22  C   UNL     1      -1.042  11.088  22.812  0.00  0.00    +0.000 C 
ATOM     23  C   UNL     1      -2.125  11.717  23.286  0.00  0.00    +0.000 C 
BRANCH  23  24
ATOM     24  C   UNL     1      -2.879  12.819  22.688  0.00  0.00    +0.000 A 
ATOM     25  C   UNL     1      -3.747  12.556  21.630  0.00  0.00    +0.000 A 
ATOM     26  C   UNL     1      -4.680  13.517  21.227  0.00  0.00    +0.000 A 
ATOM     27  C   UNL     1      -4.702  14.785  21.852  0.00  0.00    +0.000 A 
ATOM     28  C   UNL     1      -3.767  15.078  22.869  0.00  0.00    +0.000 A 
ATOM     29  C   UNL     1      -2.866  14.084  23.278  0.00  0.00    +0.000 A 
BRANCH  26  30
ATOM     30  O   UNL     1      -5.622  13.278  20.253  0.00  0.00    +0.000 OA
ATOM     31  C   UNL     1      -6.301  12.027  20.337  0.00  0.00    +0.000 C 
ENDBRANCH  26  30
BRANCH  27  32
ATOM     32  O   UNL     1      -5.630  15.679  21.363  0.00  0.00    +0.000 OA
ATOM     33  C   UNL     1      -6.857  15.769  22.080  0.00  0.00    +0.000 C 
ENDBRANCH  27  32
BRANCH  28  34
ATOM     34  O   UNL     1      -3.792  16.335  23.417  0.00  0.00    +0.000 OA
ATOM     35  C   UNL     1      -4.270  16.478  24.747  0.00  0.00    +0.000 C 
ENDBRANCH  28  34
ENDBRANCH  23  24
ENDBRANCH   4  22
TORSDOF 8
ENDMDL
MODEL 5
REMARK VINA RESULT:      -7.1      3.168     10.614
REMARK  Name = 
REMARK  13 active torsions:
REMARK  status: ('A' for Active; 'I' for Inactive)
REMARK    1  A    between atoms: C_1  and  O_2
REMARK    2  A    between atoms: O_2  and  C_3
REMARK    3  A    between atoms: C_6  and  C_7
REMARK    4  A    between atoms: C_8  and  C_9
REMARK    5  A    between atoms: C_11  and  O_12
REMARK    6  A    between atoms: O_12  and  C_13
REMARK    7  A    between atoms: C_14  and  O_15
REMARK    8  A    between atoms: O_15  and  C_16
REMARK    9  A    between atoms: C_17  and  O_18
REMARK   10  A    between atoms: O_18  and  C_19
REMARK   11  A    between atoms: C_22  and  N_23
REMARK   12  A    between atoms: N_26  and  C_27
REMARK   13  A    between atoms: C_30  and  C_31
REMARK                            x       y       z     vdW  Elec       q    Type
REMARK                         _______ _______ _______ _____ _____    ______ ____
ROOT
ATOM      1  C   UNL     1       0.934  12.093  19.022  0.00  0.00    +0.000 A 
ATOM      2  C   UNL     1       0.115  13.208  18.801  0.00  0.00    +0.000 A 
ATOM      3  C   UNL     1      -1.221  13.042  18.436  0.00  0.00    +0.000 A 
ATOM      4  C   UNL     1      -1.753  11.763  18.287  0.00  0.00    +0.000 A 
ATOM      5  C   UNL     1      -0.940  10.644  18.495  0.00  0.00    +0.000 A 
ATOM      6  C   UNL     1       0.397  10.800  18.889  0.00  0.00    +0.000 A 
ENDROOT
BRANCH   6   7
ATOM      7  N   UNL     1       1.179   9.664  19.225  0.00  0.00    +0.000 N 
ATOM      8  C   UNL     1       1.774   8.861  18.259  0.00  0.00    +0.000 C 
ATOM      9  O   UNL     1       1.857   9.173  17.075  0.00  0.00    +0.000 OA
ATOM     10  N   UNL     1       2.254   7.684  18.805  0.00  0.00    +0.000 N 
ATOM     11  H   UNL     1       1.677   9.729  20.106  0.00  0.00    +0.000 HD
ATOM     12  H   UNL     1       1.756   7.348  19.614  0.00  0.00    +0.000 HD
BRANCH  10  13
ATOM     13  C   UNL     1       3.078   6.751  18.132  0.00  0.00    +0.000 A 
ATOM     14  C   UNL     1       4.269   7.118  17.498  0.00  0.00    +0.000 A 
ATOM     15  C   UNL     1       5.079   6.164  16.863  0.00  0.00    +0.000 A 
ATOM     16  C   UNL     1       4.706   4.821  16.842  0.00  0.00    +0.000 A 
ATOM     17  C   UNL     1       5.573   3.799  16.162  0.00  0.00    +0.000 C 
ATOM     18  C   UNL     1       3.517   4.442  17.474  0.00  0.00    +0.000 A 
ATOM     19  C   UNL     1       2.716   5.398  18.125  0.00  0.00    +0.000 A 
ENDBRANCH  10  13
ENDBRANCH   6   7
BRANCH   1  21
ATOM     20  C   UNL     1       2.577  13.394  20.092  0.00  0.00    +0.000 C 
ATOM     21  O   UNL     1       2.263  12.201  19.365  0.00  0.00    +0.000 OA
ENDBRANCH   1  21
BRANCH   4  22
ATOM     22  C   UNL     1      -3.188  11.613  18.067  0.00  0.00    +0.000 C 
ATOM     23  C   UNL     1      -4.182  11.950  18.897  0.00  0.00    +0.000 C 
BRANCH  23  24
ATOM     24  C   UNL     1      -4.105  12.631  20.190  0.00  0.00    +0.000 A 
ATOM     25  C   UNL     1      -5.046  13.611  20.501  0.00  0.00    +0.000 A 
ATOM     26  C   UNL     1      -5.173  14.075  21.815  0.00  0.00    +0.000 A 
ATOM     27  C   UNL     1      -4.302  13.595  22.820  0.00  0.00    +0.000 A 
ATOM     28  C   UNL     1      -3.296  12.663  22.486  0.00  0.00    +0.000 A 
ATOM     29  C   UNL     1      -3.213  12.188  21.168  0.00  0.00    +0.000 A 
BRANCH  26  30
ATOM     30  O   UNL     1      -6.145  14.971  22.198  0.00  0.00    +0.000 OA
ATOM     31  C   UNL     1      -6.368  16.063  21.309  0.00  0.00    +0.000 C 
ENDBRANCH  26  30
BRANCH  27  32
ATOM     32  O   UNL     1      -4.479  14.137  24.075  0.00  0.00    +0.000 OA
ATOM     33  C   UNL     1      -3.552  15.146  24.463  0.00  0.00    +0.000 C 
ENDBRANCH  27  32
BRANCH  28  34
ATOM     34  O   UNL     1      -2.443  12.259  23.480  0.00  0.00    +0.000 OA
ATOM     35  C   UNL     1      -1.508  11.229  23.186  0.00  0.00    +0.000 C 
ENDBRANCH  28  34
ENDBRANCH  23  24
ENDBRANCH   4  22
TORSDOF 8
ENDMDL
MODEL 6
REMARK VINA RESULT:      -7.0      1.469      1.753
REMARK  Name = 
REMARK  13 active torsions:
REMARK  status: ('A' for Active; 'I' for Inactive)
REMARK    1  A    between atoms: C_1  and  O_2
REMARK    2  A    between atoms: O_2  and  C_3
REMARK    3  A    between atoms: C_6  and  C_7
REMARK    4  A    between atoms: C_8  and  C_9
REMARK    5  A    between atoms: C_11  and  O_12
REMARK    6  A    between atoms: O_12  and  C_13
REMARK    7  A    between atoms: C_14  and  O_15
REMARK    8  A    between atoms: O_15  and  C_16
REMARK    9  A    between atoms: C_17  and  O_18
REMARK   10  A    between atoms: O_18  and  C_19
REMARK   11  A    between atoms: C_22  and  N_23
REMARK   12  A    between atoms: N_26  and  C_27
REMARK   13  A    between atoms: C_30  and  C_31
REMARK                            x       y       z     vdW  Elec       q    Type
REMARK                         _______ _______ _______ _____ _____    ______ ____
ROOT
ATOM      1  C   UNL     1       1.066   9.523  21.613  0.00  0.00    +0.000 A 
ATOM      2  C   UNL     1       1.333   8.189  21.276  0.00  0.00    +0.000 A 
ATOM      3  C   UNL     1       1.623   7.839  19.958  0.00  0.00    +0.000 A 
ATOM      4  C   UNL     1       1.648   8.813  18.962  0.00  0.00    +0.000 A 
ATOM      5  C   UNL     1       1.372  10.145  19.287  0.00  0.00    +0.000 A 
ATOM      6  C   UNL     1       1.106  10.513  20.614  0.00  0.00    +0.000 A 
ENDROOT
BRANCH   6   7
ATOM      7  N   UNL     1       0.955  11.882  20.959  0.00  0.00    +0.000 N 
ATOM      8  C   UNL     1       0.192  12.759  20.199  0.00  0.00    +0.000 C 
ATOM      9  O   UNL     1      -0.573  12.396  19.310  0.00  0.00    +0.000 OA
ATOM     10  N   UNL     1       0.406  14.072  20.574  0.00  0.00    +0.000 N 
ATOM     11  H   UNL     1       0.990  12.081  21.952  0.00  0.00    +0.000 HD
ATOM     12  H   UNL     1       1.320  14.272  20.948  0.00  0.00    +0.000 HD
BRANCH  10  13
ATOM     13  C   UNL     1      -0.356  15.180  20.132  0.00  0.00    +0.000 A 
ATOM     14  C   UNL     1      -0.038  15.899  18.975  0.00  0.00    +0.000 A 
ATOM     15  C   UNL     1      -0.830  16.975  18.547  0.00  0.00    +0.000 A 
ATOM     16  C   UNL     1      -1.954  17.360  19.277  0.00  0.00    +0.000 A 
ATOM     17  C   UNL     1      -2.803  18.512  18.818  0.00  0.00    +0.000 C 
ATOM     18  C   UNL     1      -2.283  16.648  20.434  0.00  0.00    +0.000 A 
ATOM     19  C   UNL     1      -1.497  15.558  20.851  0.00  0.00    +0.000 A 
ENDBRANCH  10  13
ENDBRANCH   6   7
BRANCH   1  21
ATOM     20  C   UNL     1      -0.638   9.822  23.208  0.00  0.00    +0.000 C 
ATOM     21  O   UNL     1       0.755   9.920  22.894  0.00  0.00    +0.000 OA
ENDBRANCH   1  21
BRANCH   4  22
ATOM     22  C   UNL     1       2.114   8.452  17.627  0.00  0.00    +0.000 C 
ATOM     23  C   UNL     1       2.855   7.393  17.278  0.00  0.00    +0.000 C 
BRANCH  23  24
ATOM     24  C   UNL     1       3.316   6.283  18.112  0.00  0.00    +0.000 A 
ATOM     25  C   UNL     1       2.524   5.142  18.225  0.00  0.00    +0.000 A 
ATOM     26  C   UNL     1       3.052   3.968  18.775  0.00  0.00    +0.000 A 
ATOM     27  C   UNL     1       4.374   3.956  19.275  0.00  0.00    +0.000 A 
ATOM     28  C   UNL     1       5.148   5.137  19.234  0.00  0.00    +0.000 A 
ATOM     29  C   UNL     1       4.606   6.289  18.646  0.00  0.00    +0.000 A 
BRANCH  26  30
ATOM     30  O   UNL     1       2.348   2.786  18.826  0.00  0.00    +0.000 OA
ATOM     31  C   UNL     1       0.969   2.869  18.471  0.00  0.00    +0.000 C 
ENDBRANCH  26  30
BRANCH  27  32
ATOM     32  O   UNL     1       4.795   2.767  19.831  0.00  0.00    +0.000 OA
ATOM     33  C   UNL     1       4.060   2.303  20.959  0.00  0.00    +0.000 C 
ENDBRANCH  27  32
BRANCH  28  34
ATOM     34  O   UNL     1       6.408   5.095  19.772  0.00  0.00    +0.000 OA
ATOM     35  C   UNL     1       7.447   5.796  19.104  0.00  0.00    +0.000 C 
ENDBRANCH  28  34
ENDBRANCH  23  24
ENDBRANCH   4  22
TORSDOF 8
ENDMDL
MODEL 7
REMARK VINA RESULT:      -7.0      3.271     11.093
REMARK  Name = 
REMARK  13 active torsions:
REMARK  status: ('A' for Active; 'I' for Inactive)
REMARK    1  A    between atoms: C_1  and  O_2
REMARK    2  A    between atoms: O_2  and  C_3
REMARK    3  A    between atoms: C_6  and  C_7
REMARK    4  A    between atoms: C_8  and  C_9
REMARK    5  A    between atoms: C_11  and  O_12
REMARK    6  A    between atoms: O_12  and  C_13
REMARK    7  A    between atoms: C_14  and  O_15
REMARK    8  A    between atoms: O_15  and  C_16
REMARK    9  A    between atoms: C_17  and  O_18
REMARK   10  A    between atoms: O_18  and  C_19
REMARK   11  A    between atoms: C_22  and  N_23
REMARK   12  A    between atoms: N_26  and  C_27
REMARK   13  A    between atoms: C_30  and  C_31
REMARK                            x       y       z     vdW  Elec       q    Type
REMARK                         _______ _______ _______ _____ _____    ______ ____
ROOT
ATOM      1  C   UNL     1       0.766  12.161  19.163  0.00  0.00    +0.000 A 
ATOM      2  C   UNL     1      -0.093  13.250  18.957  0.00  0.00    +0.000 A 
ATOM      3  C   UNL     1      -1.447  13.041  18.696  0.00  0.00    +0.000 A 
ATOM      4  C   UNL     1      -1.958  11.746  18.636  0.00  0.00    +0.000 A 
ATOM      5  C   UNL     1      -1.106  10.654  18.829  0.00  0.00    +0.000 A 
ATOM      6  C   UNL     1       0.252  10.853  19.119  0.00  0.00    +0.000 A 
ENDROOT
BRANCH   6   7
ATOM      7  N   UNL     1       1.082   9.748  19.442  0.00  0.00    +0.000 N 
ATOM      8  C   UNL     1       1.603   8.903  18.470  0.00  0.00    +0.000 C 
ATOM      9  O   UNL     1       1.572   9.151  17.269  0.00  0.00    +0.000 OA
ATOM     10  N   UNL     1       2.152   7.764  19.032  0.00  0.00    +0.000 N 
ATOM     11  H   UNL     1       1.656   9.869  20.269  0.00  0.00    +0.000 HD
ATOM     12  H   UNL     1       1.736   7.466  19.899  0.00  0.00    +0.000 HD
BRANCH  10  13
ATOM     13  C   UNL     1       2.929   6.807  18.337  0.00  0.00    +0.000 A 
ATOM     14  C   UNL     1       2.575   5.456  18.267  0.00  0.00    +0.000 A 
ATOM     15  C   UNL     1       3.351   4.536  17.546  0.00  0.00    +0.000 A 
ATOM     16  C   UNL     1       4.506   4.951  16.885  0.00  0.00    +0.000 A 
ATOM     17  C   UNL     1       5.337   3.967  16.112  0.00  0.00    +0.000 C 
ATOM     18  C   UNL     1       4.870   6.300  16.946  0.00  0.00    +0.000 A 
ATOM     19  C   UNL     1       4.080   7.223  17.655  0.00  0.00    +0.000 A 
ENDBRANCH  10  13
ENDBRANCH   6   7
BRANCH   1  21
ATOM     20  C   UNL     1       2.417  13.323  20.371  0.00  0.00    +0.000 C 
ATOM     21  O   UNL     1       2.113  12.312  19.405  0.00  0.00    +0.000 OA
ENDBRANCH   1  21
BRANCH   4  22
ATOM     22  C   UNL     1      -3.401  11.557  18.525  0.00  0.00    +0.000 C 
ATOM     23  C   UNL     1      -4.357  12.093  19.294  0.00  0.00    +0.000 C 
BRANCH  23  24
ATOM     24  C   UNL     1      -4.222  13.067  20.377  0.00  0.00    +0.000 A 
ATOM     25  C   UNL     1      -4.651  14.377  20.173  0.00  0.00    +0.000 A 
ATOM     26  C   UNL     1      -4.798  15.249  21.257  0.00  0.00    +0.000 A 
ATOM     27  C   UNL     1      -4.450  14.821  22.559  0.00  0.00    +0.000 A 
ATOM     28  C   UNL     1      -3.938  13.519  22.752  0.00  0.00    +0.000 A 
ATOM     29  C   UNL     1      -3.835  12.654  21.653  0.00  0.00    +0.000 A 
BRANCH  26  30
ATOM     30  O   UNL     1      -5.306  16.521  21.127  0.00  0.00    +0.000 OA
ATOM     31  C   UNL     1      -6.568  16.623  20.470  0.00  0.00    +0.000 C 
ENDBRANCH  26  30
BRANCH  27  32
ATOM     32  O   UNL     1      -4.593  15.760  23.558  0.00  0.00    +0.000 OA
ATOM     33  C   UNL     1      -5.873  15.832  24.178  0.00  0.00    +0.000 C 
ENDBRANCH  27  32
BRANCH  28  34
ATOM     34  O   UNL     1      -3.569  13.159  24.023  0.00  0.00    +0.000 OA
ATOM     35  C   UNL     1      -4.472  12.372  24.787  0.00  0.00    +0.000 C 
ENDBRANCH  28  34
ENDBRANCH  23  24
ENDBRANCH   4  22
TORSDOF 8
ENDMDL
MODEL 8
REMARK VINA RESULT:      -7.0      3.103     10.877
REMARK  Name = 
REMARK  13 active torsions:
REMARK  status: ('A' for Active; 'I' for Inactive)
REMARK    1  A    between atoms: C_1  and  O_2
REMARK    2  A    between atoms: O_2  and  C_3
REMARK    3  A    between atoms: C_6  and  C_7
REMARK    4  A    between atoms: C_8  and  C_9
REMARK    5  A    between atoms: C_11  and  O_12
REMARK    6  A    between atoms: O_12  and  C_13
REMARK    7  A    between atoms: C_14  and  O_15
REMARK    8  A    between atoms: O_15  and  C_16
REMARK    9  A    between atoms: C_17  and  O_18
REMARK   10  A    between atoms: O_18  and  C_19
REMARK   11  A    between atoms: C_22  and  N_23
REMARK   12  A    between atoms: N_26  and  C_27
REMARK   13  A    between atoms: C_30  and  C_31
REMARK                            x       y       z     vdW  Elec       q    Type
REMARK                         _______ _______ _______ _____ _____    ______ ____
ROOT
ATOM      1  C   UNL     1      -0.700  10.989  18.458  0.00  0.00    +0.000 A 
ATOM      2  C   UNL     1      -1.201  12.251  18.109  0.00  0.00    +0.000 A 
ATOM      3  C   UNL     1      -0.500  13.408  18.450  0.00  0.00    +0.000 A 
ATOM      4  C   UNL     1       0.705  13.318  19.144  0.00  0.00    +0.000 A 
ATOM      5  C   UNL     1       1.206  12.064  19.506  0.00  0.00    +0.000 A 
ATOM      6  C   UNL     1       0.524  10.893  19.144  0.00  0.00    +0.000 A 
ENDROOT
BRANCH   6   7
ATOM      7  N   UNL     1       1.101   9.622  19.400  0.00  0.00    +0.000 N 
ATOM      8  C   UNL     1       1.796   8.914  18.427  0.00  0.00    +0.000 C 
ATOM      9  O   UNL     1       2.150   9.400  17.358  0.00  0.00    +0.000 OA
ATOM     10  N   UNL     1       2.031   7.609  18.823  0.00  0.00    +0.000 N 
ATOM     11  H   UNL     1       1.412   9.475  20.354  0.00  0.00    +0.000 HD
ATOM     12  H   UNL     1       1.347   7.217  19.450  0.00  0.00    +0.000 HD
BRANCH  10  13
ATOM     13  C   UNL     1       2.875   6.695  18.150  0.00  0.00    +0.000 A 
ATOM     14  C   UNL     1       2.577   5.332  18.045  0.00  0.00    +0.000 A 
ATOM     15  C   UNL     1       3.420   4.455  17.346  0.00  0.00    +0.000 A 
ATOM     16  C   UNL     1       4.588   4.924  16.745  0.00  0.00    +0.000 A 
ATOM     17  C   UNL     1       5.490   3.985  15.996  0.00  0.00    +0.000 C 
ATOM     18  C   UNL     1       4.895   6.285  16.843  0.00  0.00    +0.000 A 
ATOM     19  C   UNL     1       4.039   7.165  17.529  0.00  0.00    +0.000 A 
ENDBRANCH  10  13
ENDBRANCH   6   7
BRANCH   1  21
ATOM     20  C   UNL     1      -2.286   9.935  17.076  0.00  0.00    +0.000 C 
ATOM     21  O   UNL     1      -1.361   9.819  18.162  0.00  0.00    +0.000 OA
ENDBRANCH   1  21
BRANCH   4  22
ATOM     22  C   UNL     1       1.499  14.526  19.346  0.00  0.00    +0.000 C 
ATOM     23  C   UNL     1       1.211  15.574  20.128  0.00  0.00    +0.000 C 
BRANCH  23  24
ATOM     24  C   UNL     1       0.085  15.748  21.046  0.00  0.00    +0.000 A 
ATOM     25  C   UNL     1      -1.127  16.230  20.555  0.00  0.00    +0.000 A 
ATOM     26  C   UNL     1      -2.288  16.143  21.331  0.00  0.00    +0.000 A 
ATOM     27  C   UNL     1      -2.221  15.622  22.644  0.00  0.00    +0.000 A 
ATOM     28  C   UNL     1      -0.977  15.210  23.170  0.00  0.00    +0.000 A 
ATOM     29  C   UNL     1       0.164  15.275  22.357  0.00  0.00    +0.000 A 
BRANCH  26  30
ATOM     30  O   UNL     1      -3.527  16.516  20.863  0.00  0.00    +0.000 OA
ATOM     31  C   UNL     1      -3.691  17.904  20.577  0.00  0.00    +0.000 C 
ENDBRANCH  26  30
BRANCH  27  32
ATOM     32  O   UNL     1      -3.408  15.610  23.345  0.00  0.00    +0.000 OA
ATOM     33  C   UNL     1      -4.096  14.365  23.401  0.00  0.00    +0.000 C 
ENDBRANCH  27  32
BRANCH  28  34
ATOM     34  O   UNL     1      -0.949  14.754  24.462  0.00  0.00    +0.000 OA
ATOM     35  C   UNL     1      -0.893  15.712  25.511  0.00  0.00    +0.000 C 
ENDBRANCH  28  34
ENDBRANCH  23  24
ENDBRANCH   4  22
TORSDOF 8
ENDMDL
MODEL 9
REMARK VINA RESULT:      -7.0      2.797     10.972
REMARK  Name = 
REMARK  13 active torsions:
REMARK  status: ('A' for Active; 'I' for Inactive)
REMARK    1  A    between atoms: C_1  and  O_2
REMARK    2  A    between atoms: O_2  and  C_3
REMARK    3  A    between atoms: C_6  and  C_7
REMARK    4  A    between atoms: C_8  and  C_9
REMARK    5  A    between atoms: C_11  and  O_12
REMARK    6  A    between atoms: O_12  and  C_13
REMARK    7  A    between atoms: C_14  and  O_15
REMARK    8  A    between atoms: O_15  and  C_16
REMARK    9  A    between atoms: C_17  and  O_18
REMARK   10  A    between atoms: O_18  and  C_19
REMARK   11  A    between atoms: C_22  and  N_23
REMARK   12  A    between atoms: N_26  and  C_27
REMARK   13  A    between atoms: C_30  and  C_31
REMARK                            x       y       z     vdW  Elec       q    Type
REMARK                         _______ _______ _______ _____ _____    ______ ____
ROOT
ATOM      1  C   UNL     1       1.450  11.731  19.386  0.00  0.00    +0.000 A 
ATOM      2  C   UNL     1       1.170  12.752  20.305  0.00  0.00    +0.000 A 
ATOM      3  C   UNL     1       0.325  12.515  21.388  0.00  0.00    +0.000 A 
ATOM      4  C   UNL     1      -0.251  11.259  21.567  0.00  0.00    +0.000 A 
ATOM      5  C   UNL     1       0.014  10.237  20.649  0.00  0.00    +0.000 A 
ATOM      6  C   UNL     1       0.884  10.457  19.571  0.00  0.00    +0.000 A 
ENDROOT
BRANCH   6   7
ATOM      7  N   UNL     1       1.251   9.382  18.719  0.00  0.00    +0.000 N 
ATOM      8  C   UNL     1       1.746   8.181  19.211  0.00  0.00    +0.000 C 
ATOM      9  O   UNL     1       1.709   7.868  20.397  0.00  0.00    +0.000 OA
ATOM     10  N   UNL     1       2.274   7.400  18.200  0.00  0.00    +0.000 N 
ATOM     11  H   UNL     1       0.720   9.316  17.858  0.00  0.00    +0.000 HD
ATOM     12  H   UNL     1       2.652   7.906  17.414  0.00  0.00    +0.000 HD
BRANCH  10  13
ATOM     13  C   UNL     1       2.676   6.050  18.340  0.00  0.00    +0.000 A 
ATOM     14  C   UNL     1       3.891   5.683  18.927  0.00  0.00    +0.000 A 
ATOM     15  C   UNL     1       4.249   4.335  19.077  0.00  0.00    +0.000 A 
ATOM     16  C   UNL     1       3.399   3.323  18.632  0.00  0.00    +0.000 A 
ATOM     17  C   UNL     1       3.781   1.880  18.794  0.00  0.00    +0.000 C 
ATOM     18  C   UNL     1       2.180   3.678  18.045  0.00  0.00    +0.000 A 
ATOM     19  C   UNL     1       1.816   5.031  17.911  0.00  0.00    +0.000 A 
ENDBRANCH  10  13
ENDBRANCH   6   7
BRANCH   1  21
ATOM     20  C   UNL     1       2.755  13.254  18.157  0.00  0.00    +0.000 C 
ATOM     21  O   UNL     1       2.261  11.918  18.290  0.00  0.00    +0.000 OA
ENDBRANCH   1  21
BRANCH   4  22
ATOM     22  C   UNL     1      -0.996  10.988  22.792  0.00  0.00    +0.000 C 
ATOM     23  C   UNL     1      -2.049  11.658  23.274  0.00  0.00    +0.000 C 
BRANCH  23  24
ATOM     24  C   UNL     1      -2.782  12.770  22.668  0.00  0.00    +0.000 A 
ATOM     25  C   UNL     1      -2.456  14.077  23.026  0.00  0.00    +0.000 A 
ATOM     26  C   UNL     1      -2.931  15.155  22.271  0.00  0.00    +0.000 A 
ATOM     27  C   UNL     1      -3.796  14.924  21.178  0.00  0.00    +0.000 A 
ATOM     28  C   UNL     1      -4.191  13.604  20.866  0.00  0.00    +0.000 A 
ATOM     29  C   UNL     1      -3.671  12.540  21.617  0.00  0.00    +0.000 A 
BRANCH  26  30
ATOM     30  O   UNL     1      -2.567  16.459  22.522  0.00  0.00    +0.000 OA
ATOM     31  C   UNL     1      -1.269  16.839  22.070  0.00  0.00    +0.000 C 
ENDBRANCH  26  30
BRANCH  27  32
ATOM     32  O   UNL     1      -4.242  16.049  20.517  0.00  0.00    +0.000 OA
ATOM     33  C   UNL     1      -5.478  16.596  20.965  0.00  0.00    +0.000 C 
ENDBRANCH  27  32
BRANCH  28  34
ATOM     34  O   UNL     1      -5.068  13.428  19.827  0.00  0.00    +0.000 OA
ATOM     35  C   UNL     1      -5.369  12.100  19.421  0.00  0.00    +0.000 C 
ENDBRANCH  28  34
ENDBRANCH  23  24
ENDBRANCH   4  22
TORSDOF 8
ENDMDL
