MODEL 1
REMARK VINA RESULT:      -7.5      0.000      0.000
REMARK  Name = 
REMARK  6 active torsions:
REMARK  status: ('A' for Active; 'I' for Inactive)
REMARK    1  A    between atoms: C_2  and  C_3
REMARK    2  A    between atoms: C_3  and  O_4
REMARK    3  A    between atoms: O_4  and  N_5
REMARK    4  A    between atoms: C_6  and  C_7
REMARK    5  A    between atoms: C_8  and  C_9
REMARK    6  A    between atoms: C_18  and  C_19
REMARK                            x       y       z     vdW  Elec       q    Type
REMARK                         _______ _______ _______ _____ _____    ______ ____
ROOT
ATOM      1  C   UNL     1       6.269   5.291  15.818  0.00  0.00    +0.000 A 
ATOM      2  C   UNL     1       5.197   4.423  15.968  0.00  0.00    +0.000 A 
ATOM      3  N   UNL     1       5.006   3.643  14.846  0.00  0.00    +0.000 NA
ATOM      4  C   UNL     1       5.910   4.054  13.980  0.00  0.00    +0.000 A 
ATOM      5  C   UNL     1       6.135   3.631  12.628  0.00  0.00    +0.000 A 
ATOM      6  C   UNL     1       5.286   2.586  11.953  0.00  0.00    +0.000 C 
ATOM      7  C   UNL     1       7.160   4.211  11.946  0.00  0.00    +0.000 A 
ATOM      8  C   UNL     1       8.013   5.221  12.545  0.00  0.00    +0.000 A 
ATOM      9  C   UNL     1       7.775   5.617  13.807  0.00  0.00    +0.000 A 
ATOM     10  N   UNL     1       6.722   5.050  14.525  0.00  0.00    +0.000 N 
ENDROOT
BRANCH   2  11
ATOM     11  C   UNL     1       4.299   4.340  17.110  0.00  0.00    +0.000 A 
ATOM     12  C   UNL     1       4.217   3.177  17.888  0.00  0.00    +0.000 A 
ATOM     13  C   UNL     1       3.342   3.107  18.972  0.00  0.00    +0.000 A 
ATOM     14  C   UNL     1       2.569   4.214  19.291  0.00  0.00    +0.000 A 
ATOM     15  F   UNL     1       1.735   4.153  20.340  0.00  0.00    +0.000 F 
ATOM     16  C   UNL     1       2.641   5.380  18.544  0.00  0.00    +0.000 A 
ATOM     17  C   UNL     1       3.506   5.446  17.449  0.00  0.00    +0.000 A 
ENDBRANCH   2  11
BRANCH   1  19
ATOM     18  N   UNL     1       7.678   5.895  17.671  0.00  0.00    +0.000 NA
ATOM     19  C   UNL     1       6.826   6.249  16.753  0.00  0.00    +0.000 C 
BRANCH  18  20
ATOM     20  O   UNL     1       8.059   7.013  18.450  0.00  0.00    +0.000 OA
BRANCH  20  21
ATOM     21  C   UNL     1       7.822   8.249  17.724  0.00  0.00    +0.000 C 
BRANCH  21  23
ATOM     22  C   UNL     1       9.249  10.305  19.031  0.00  0.00    +0.000 C 
ATOM     23  C   UNL     1       8.590   9.356  18.428  0.00  0.00    +0.000 C 
ENDBRANCH  21  23
ENDBRANCH  20  21
ENDBRANCH  18  20
ENDBRANCH   1  19
TORSDOF 5
ENDMDL
MODEL 2
REMARK VINA RESULT:      -7.5      0.094      1.012
REMARK  Name = 
REMARK  6 active torsions:
REMARK  status: ('A' for Active; 'I' for Inactive)
REMARK    1  A    between atoms: C_2  and  C_3
REMARK    2  A    between atoms: C_3  and  O_4
REMARK    3  A    between atoms: O_4  and  N_5
REMARK    4  A    between atoms: C_6  and  C_7
REMARK    5  A    between atoms: C_8  and  C_9
REMARK    6  A    between atoms: C_18  and  C_19
REMARK                            x       y       z     vdW  Elec       q    Type
REMARK                         _______ _______ _______ _____ _____    ______ ____
ROOT
ATOM      1  C   UNL     1       6.339   5.330  15.797  0.00  0.00    +0.000 A 
ATOM      2  C   UNL     1       5.253   4.486  15.971  0.00  0.00    +0.000 A 
ATOM      3  N   UNL     1       5.028   3.701  14.859  0.00  0.00    +0.000 NA
ATOM      4  C   UNL     1       5.927   4.085  13.976  0.00  0.00    +0.000 A 
ATOM      5  C   UNL     1       6.122   3.646  12.624  0.00  0.00    +0.000 A 
ATOM      6  C   UNL     1       5.241   2.613  11.972  0.00  0.00    +0.000 C 
ATOM      7  C   UNL     1       7.147   4.199  11.921  0.00  0.00    +0.000 A 
ATOM      8  C   UNL     1       8.030   5.196  12.498  0.00  0.00    +0.000 A 
ATOM      9  C   UNL     1       7.820   5.608  13.760  0.00  0.00    +0.000 A 
ATOM     10  N   UNL     1       6.767   5.069  14.499  0.00  0.00    +0.000 N 
ENDROOT
BRANCH   2  11
ATOM     11  C   UNL     1       4.371   4.431  17.128  0.00  0.00    +0.000 A 
ATOM     12  C   UNL     1       3.555   5.519  17.472  0.00  0.00    +0.000 A 
ATOM     13  C   UNL     1       2.724   5.457  18.590  0.00  0.00    +0.000 A 
ATOM     14  C   UNL     1       2.692   4.296  19.347  0.00  0.00    +0.000 A 
ATOM     15  F   UNL     1       1.885   4.231  20.418  0.00  0.00    +0.000 F 
ATOM     16  C   UNL     1       3.481   3.203  19.021  0.00  0.00    +0.000 A 
ATOM     17  C   UNL     1       4.324   3.269  17.909  0.00  0.00    +0.000 A 
ENDBRANCH   2  11
BRANCH   1  19
ATOM     18  N   UNL     1       7.644   5.903  17.735  0.00  0.00    +0.000 NA
ATOM     19  C   UNL     1       6.930   6.284  16.714  0.00  0.00    +0.000 C 
BRANCH  18  20
ATOM     20  O   UNL     1       8.096   7.024  18.469  0.00  0.00    +0.000 OA
BRANCH  20  21
ATOM     21  C   UNL     1       7.844   8.254  17.736  0.00  0.00    +0.000 C 
BRANCH  21  23
ATOM     22  C   UNL     1       9.259  10.331  19.022  0.00  0.00    +0.000 C 
ATOM     23  C   UNL     1       8.606   9.372  18.429  0.00  0.00    +0.000 C 
ENDBRANCH  21  23
ENDBRANCH  20  21
ENDBRANCH  18  20
ENDBRANCH   1  19
TORSDOF 5
ENDMDL
MODEL 3
REMARK VINA RESULT:      -7.4      3.586      6.043
REMARK  Name = 
REMARK  6 active torsions:
REMARK  status: ('A' for Active; 'I' for Inactive)
REMARK    1  A    between atoms: C_2  and  C_3
REMARK    2  A    between atoms: C_3  and  O_4
REMARK    3  A    between atoms: O_4  and  N_5
REMARK    4  A    between atoms: C_6  and  C_7
REMARK    5  A    between atoms: C_8  and  C_9
REMARK    6  A    between atoms: C_18  and  C_19
REMARK                            x       y       z     vdW  Elec       q    Type
REMARK                         _______ _______ _______ _____ _____    ______ ____
ROOT
ATOM      1  C   UNL     1       3.824   5.865  19.056  0.00  0.00    +0.000 A 
ATOM      2  C   UNL     1       2.642   6.379  19.570  0.00  0.00    +0.000 A 
ATOM      3  N   UNL     1       1.971   5.452  20.341  0.00  0.00    +0.000 NA
ATOM      4  C   UNL     1       2.693   4.353  20.268  0.00  0.00    +0.000 A 
ATOM      5  C   UNL     1       2.441   3.059  20.834  0.00  0.00    +0.000 A 
ATOM      6  C   UNL     1       1.206   2.752  21.640  0.00  0.00    +0.000 C 
ATOM      7  C   UNL     1       3.366   2.084  20.620  0.00  0.00    +0.000 A 
ATOM      8  C   UNL     1       4.576   2.322  19.855  0.00  0.00    +0.000 A 
ATOM      9  C   UNL     1       4.785   3.535  19.317  0.00  0.00    +0.000 A 
ATOM     10  N   UNL     1       3.846   4.550  19.508  0.00  0.00    +0.000 N 
ENDROOT
BRANCH   2  11
ATOM     11  C   UNL     1       2.082   7.697  19.311  0.00  0.00    +0.000 A 
ATOM     12  C   UNL     1       2.156   8.281  18.039  0.00  0.00    +0.000 A 
ATOM     13  C   UNL     1       1.626   9.551  17.808  0.00  0.00    +0.000 A 
ATOM     14  C   UNL     1       0.999  10.222  18.848  0.00  0.00    +0.000 A 
ATOM     15  F   UNL     1       0.479  11.439  18.625  0.00  0.00    +0.000 F 
ATOM     16  C   UNL     1       0.904   9.661  20.112  0.00  0.00    +0.000 A 
ATOM     17  C   UNL     1       1.447   8.396  20.347  0.00  0.00    +0.000 A 
ENDBRANCH   2  11
BRANCH   1  19
ATOM     18  N   UNL     1       4.967   6.215  16.969  0.00  0.00    +0.000 NA
ATOM     19  C   UNL     1       4.832   6.502  18.232  0.00  0.00    +0.000 C 
BRANCH  18  20
ATOM     20  O   UNL     1       6.022   6.968  16.401  0.00  0.00    +0.000 OA
BRANCH  20  21
ATOM     21  C   UNL     1       7.269   6.713  17.101  0.00  0.00    +0.000 C 
BRANCH  21  23
ATOM     22  C   UNL     1       8.276   9.193  17.999  0.00  0.00    +0.000 C 
ATOM     23  C   UNL     1       7.812   8.048  17.585  0.00  0.00    +0.000 C 
ENDBRANCH  21  23
ENDBRANCH  20  21
ENDBRANCH  18  20
ENDBRANCH   1  19
TORSDOF 5
ENDMDL
MODEL 4
REMARK VINA RESULT:      -7.4      3.573      6.056
REMARK  Name = 
REMARK  6 active torsions:
REMARK  status: ('A' for Active; 'I' for Inactive)
REMARK    1  A    between atoms: C_2  and  C_3
REMARK    2  A    between atoms: C_3  and  O_4
REMARK    3  A    between atoms: O_4  and  N_5
REMARK    4  A    between atoms: C_6  and  C_7
REMARK    5  A    between atoms: C_8  and  C_9
REMARK    6  A    between atoms: C_18  and  C_19
REMARK                            x       y       z     vdW  Elec       q    Type
REMARK                         _______ _______ _______ _____ _____    ______ ____
ROOT
ATOM      1  C   UNL     1       3.807   5.860  19.069  0.00  0.00    +0.000 A 
ATOM      2  C   UNL     1       2.631   6.377  19.593  0.00  0.00    +0.000 A 
ATOM      3  N   UNL     1       1.964   5.453  20.371  0.00  0.00    +0.000 NA
ATOM      4  C   UNL     1       2.682   4.351  20.292  0.00  0.00    +0.000 A 
ATOM      5  C   UNL     1       2.432   3.058  20.862  0.00  0.00    +0.000 A 
ATOM      6  C   UNL     1       1.203   2.755  21.678  0.00  0.00    +0.000 C 
ATOM      7  C   UNL     1       3.353   2.081  20.640  0.00  0.00    +0.000 A 
ATOM      8  C   UNL     1       4.557   2.315  19.865  0.00  0.00    +0.000 A 
ATOM      9  C   UNL     1       4.765   3.528  19.325  0.00  0.00    +0.000 A 
ATOM     10  N   UNL     1       3.830   4.544  19.522  0.00  0.00    +0.000 N 
ENDROOT
BRANCH   2  11
ATOM     11  C   UNL     1       2.072   7.696  19.338  0.00  0.00    +0.000 A 
ATOM     12  C   UNL     1       1.442   8.428  20.354  0.00  0.00    +0.000 A 
ATOM     13  C   UNL     1       0.900   9.686  20.093  0.00  0.00    +0.000 A 
ATOM     14  C   UNL     1       1.014  10.220  18.817  0.00  0.00    +0.000 A 
ATOM     15  F   UNL     1       0.502  11.436  18.566  0.00  0.00    +0.000 F 
ATOM     16  C   UNL     1       1.641   9.521  17.798  0.00  0.00    +0.000 A 
ATOM     17  C   UNL     1       2.172   8.255  18.056  0.00  0.00    +0.000 A 
ENDBRANCH   2  11
BRANCH   1  19
ATOM     18  N   UNL     1       4.983   6.153  16.992  0.00  0.00    +0.000 NA
ATOM     19  C   UNL     1       4.810   6.493  18.237  0.00  0.00    +0.000 C 
BRANCH  18  20
ATOM     20  O   UNL     1       6.022   6.915  16.409  0.00  0.00    +0.000 OA
BRANCH  20  21
ATOM     21  C   UNL     1       7.282   6.668  17.089  0.00  0.00    +0.000 C 
BRANCH  21  23
ATOM     22  C   UNL     1       8.269   9.150  18.005  0.00  0.00    +0.000 C 
ATOM     23  C   UNL     1       7.814   8.005  17.582  0.00  0.00    +0.000 C 
ENDBRANCH  21  23
ENDBRANCH  20  21
ENDBRANCH  18  20
ENDBRANCH   1  19
TORSDOF 5
ENDMDL
MODEL 5
REMARK VINA RESULT:      -7.4      2.818      6.740
REMARK  Name = 
REMARK  6 active torsions:
REMARK  status: ('A' for Active; 'I' for Inactive)
REMARK    1  A    between atoms: C_2  and  C_3
REMARK    2  A    between atoms: C_3  and  O_4
REMARK    3  A    between atoms: O_4  and  N_5
REMARK    4  A    between atoms: C_6  and  C_7
REMARK    5  A    between atoms: C_8  and  C_9
REMARK    6  A    between atoms: C_18  and  C_19
REMARK                            x       y       z     vdW  Elec       q    Type
REMARK                         _______ _______ _______ _____ _____    ______ ____
ROOT
ATOM      1  C   UNL     1       4.637   3.912  17.491  0.00  0.00    +0.000 A 
ATOM      2  C   UNL     1       4.854   5.016  18.302  0.00  0.00    +0.000 A 
ATOM      3  N   UNL     1       3.897   5.124  19.291  0.00  0.00    +0.000 NA
ATOM      4  C   UNL     1       3.058   4.133  19.070  0.00  0.00    +0.000 A 
ATOM      5  C   UNL     1       1.845   3.795  19.759  0.00  0.00    +0.000 A 
ATOM      6  C   UNL     1       1.314   4.606  20.911  0.00  0.00    +0.000 C 
ATOM      7  C   UNL     1       1.163   2.696  19.336  0.00  0.00    +0.000 A 
ATOM      8  C   UNL     1       1.628   1.875  18.234  0.00  0.00    +0.000 A 
ATOM      9  C   UNL     1       2.756   2.218  17.589  0.00  0.00    +0.000 A 
ATOM     10  N   UNL     1       3.468   3.348  17.991  0.00  0.00    +0.000 N 
ENDROOT
BRANCH   2  11
ATOM     11  C   UNL     1       5.898   6.019  18.146  0.00  0.00    +0.000 A 
ATOM     12  C   UNL     1       5.721   7.127  17.306  0.00  0.00    +0.000 A 
ATOM     13  C   UNL     1       6.735   8.073  17.156  0.00  0.00    +0.000 A 
ATOM     14  C   UNL     1       7.914   7.921  17.869  0.00  0.00    +0.000 A 
ATOM     15  F   UNL     1       8.887   8.836  17.735  0.00  0.00    +0.000 F 
ATOM     16  C   UNL     1       8.108   6.839  18.715  0.00  0.00    +0.000 A 
ATOM     17  C   UNL     1       7.099   5.884  18.855  0.00  0.00    +0.000 A 
ENDBRANCH   2  11
BRANCH   1  19
ATOM     18  N   UNL     1       5.527   4.096  15.264  0.00  0.00    +0.000 NA
ATOM     19  C   UNL     1       5.411   3.418  16.370  0.00  0.00    +0.000 C 
BRANCH  18  20
ATOM     20  O   UNL     1       6.326   3.392  14.332  0.00  0.00    +0.000 OA
BRANCH  20  21
ATOM     21  C   UNL     1       6.379   4.100  13.064  0.00  0.00    +0.000 C 
BRANCH  21  23
ATOM     22  C   UNL     1       4.308   3.096  11.428  0.00  0.00    +0.000 C 
ATOM     23  C   UNL     1       5.264   3.559  12.184  0.00  0.00    +0.000 C 
ENDBRANCH  21  23
ENDBRANCH  20  21
ENDBRANCH  18  20
ENDBRANCH   1  19
TORSDOF 5
ENDMDL
MODEL 6
REMARK VINA RESULT:      -7.3      2.851      6.780
REMARK  Name = 
REMARK  6 active torsions:
REMARK  status: ('A' for Active; 'I' for Inactive)
REMARK    1  A    between atoms: C_2  and  C_3
REMARK    2  A    between atoms: C_3  and  O_4
REMARK    3  A    between atoms: O_4  and  N_5
REMARK    4  A    between atoms: C_6  and  C_7
REMARK    5  A    between atoms: C_8  and  C_9
REMARK    6  A    between atoms: C_18  and  C_19
REMARK                            x       y       z     vdW  Elec       q    Type
REMARK                         _______ _______ _______ _____ _____    ______ ____
ROOT
ATOM      1  C   UNL     1       4.855   3.934  17.441  0.00  0.00    +0.000 A 
ATOM      2  C   UNL     1       5.111   4.958  18.340  0.00  0.00    +0.000 A 
ATOM      3  N   UNL     1       4.252   4.922  19.420  0.00  0.00    +0.000 NA
ATOM      4  C   UNL     1       3.430   3.922  19.175  0.00  0.00    +0.000 A 
ATOM      5  C   UNL     1       2.304   3.462  19.936  0.00  0.00    +0.000 A 
ATOM      6  C   UNL     1       1.860   4.127  21.212  0.00  0.00    +0.000 C 
ATOM      7  C   UNL     1       1.622   2.382  19.465  0.00  0.00    +0.000 A 
ATOM      8  C   UNL     1       2.005   1.699  18.244  0.00  0.00    +0.000 A 
ATOM      9  C   UNL     1       3.052   2.155  17.536  0.00  0.00    +0.000 A 
ATOM     10  N   UNL     1       3.760   3.270  17.987  0.00  0.00    +0.000 N 
ENDROOT
BRANCH   2  11
ATOM     11  C   UNL     1       6.099   6.017  18.193  0.00  0.00    +0.000 A 
ATOM     12  C   UNL     1       7.326   5.965  18.869  0.00  0.00    +0.000 A 
ATOM     13  C   UNL     1       8.258   6.993  18.729  0.00  0.00    +0.000 A 
ATOM     14  C   UNL     1       7.969   8.059  17.890  0.00  0.00    +0.000 A 
ATOM     15  F   UNL     1       8.870   9.044  17.745  0.00  0.00    +0.000 F 
ATOM     16  C   UNL     1       6.768   8.128  17.203  0.00  0.00    +0.000 A 
ATOM     17  C   UNL     1       5.827   7.106  17.353  0.00  0.00    +0.000 A 
ENDBRANCH   2  11
BRANCH   1  19
ATOM     18  N   UNL     1       5.330   4.257  15.105  0.00  0.00    +0.000 NA
ATOM     19  C   UNL     1       5.532   3.591  16.206  0.00  0.00    +0.000 C 
BRANCH  18  20
ATOM     20  O   UNL     1       6.104   3.718  14.051  0.00  0.00    +0.000 OA
BRANCH  20  21
ATOM     21  C   UNL     1       5.373   3.773  12.797  0.00  0.00    +0.000 C 
BRANCH  21  23
ATOM     22  C   UNL     1       6.206   1.588  11.215  0.00  0.00    +0.000 C 
ATOM     23  C   UNL     1       5.821   2.597  11.946  0.00  0.00    +0.000 C 
ENDBRANCH  21  23
ENDBRANCH  20  21
ENDBRANCH  18  20
ENDBRANCH   1  19
TORSDOF 5
ENDMDL
MODEL 7
REMARK VINA RESULT:      -7.3      3.391      6.495
REMARK  Name = 
REMARK  6 active torsions:
REMARK  status: ('A' for Active; 'I' for Inactive)
REMARK    1  A    between atoms: C_2  and  C_3
REMARK    2  A    between atoms: C_3  and  O_4
REMARK    3  A    between atoms: O_4  and  N_5
REMARK    4  A    between atoms: C_6  and  C_7
REMARK    5  A    between atoms: C_8  and  C_9
REMARK    6  A    between atoms: C_18  and  C_19
REMARK                            x       y       z     vdW  Elec       q    Type
REMARK                         _______ _______ _______ _____ _____    ______ ____
ROOT
ATOM      1  C   UNL     1       3.763   5.715  18.944  0.00  0.00    +0.000 A 
ATOM      2  C   UNL     1       2.662   6.300  19.551  0.00  0.00    +0.000 A 
ATOM      3  N   UNL     1       2.043   5.438  20.434  0.00  0.00    +0.000 NA
ATOM      4  C   UNL     1       2.713   4.308  20.341  0.00  0.00    +0.000 A 
ATOM      5  C   UNL     1       2.476   3.053  20.995  0.00  0.00    +0.000 A 
ATOM      6  C   UNL     1       1.322   2.834  21.938  0.00  0.00    +0.000 C 
ATOM      7  C   UNL     1       3.337   2.032  20.735  0.00  0.00    +0.000 A 
ATOM      8  C   UNL     1       4.468   2.185  19.838  0.00  0.00    +0.000 A 
ATOM      9  C   UNL     1       4.663   3.363  19.221  0.00  0.00    +0.000 A 
ATOM     10  N   UNL     1       3.786   4.422  19.457  0.00  0.00    +0.000 N 
ENDROOT
BRANCH   2  11
ATOM     11  C   UNL     1       2.125   7.627  19.286  0.00  0.00    +0.000 A 
ATOM     12  C   UNL     1       2.218   8.208  18.013  0.00  0.00    +0.000 A 
ATOM     13  C   UNL     1       1.711   9.485  17.777  0.00  0.00    +0.000 A 
ATOM     14  C   UNL     1       1.088  10.168  18.810  0.00  0.00    +0.000 A 
ATOM     15  F   UNL     1       0.589  11.393  18.582  0.00  0.00    +0.000 F 
ATOM     16  C   UNL     1       0.974   9.611  20.074  0.00  0.00    +0.000 A 
ATOM     17  C   UNL     1       1.494   8.337  20.316  0.00  0.00    +0.000 A 
ENDBRANCH   2  11
BRANCH   1  19
ATOM     18  N   UNL     1       4.668   5.951  16.728  0.00  0.00    +0.000 NA
ATOM     19  C   UNL     1       4.701   6.271  17.989  0.00  0.00    +0.000 C 
BRANCH  18  20
ATOM     20  O   UNL     1       5.689   6.625  16.018  0.00  0.00    +0.000 OA
BRANCH  20  21
ATOM     21  C   UNL     1       6.828   5.749  15.803  0.00  0.00    +0.000 C 
BRANCH  21  23
ATOM     22  C   UNL     1       6.131   3.909  13.778  0.00  0.00    +0.000 C 
ATOM     23  C   UNL     1       6.453   4.758  14.713  0.00  0.00    +0.000 C 
ENDBRANCH  21  23
ENDBRANCH  20  21
ENDBRANCH  18  20
ENDBRANCH   1  19
TORSDOF 5
ENDMDL
MODEL 8
REMARK VINA RESULT:      -7.2      3.464      6.155
REMARK  Name = 
REMARK  6 active torsions:
REMARK  status: ('A' for Active; 'I' for Inactive)
REMARK    1  A    between atoms: C_2  and  C_3
REMARK    2  A    between atoms: C_3  and  O_4
REMARK    3  A    between atoms: O_4  and  N_5
REMARK    4  A    between atoms: C_6  and  C_7
REMARK    5  A    between atoms: C_8  and  C_9
REMARK    6  A    between atoms: C_18  and  C_19
REMARK                            x       y       z     vdW  Elec       q    Type
REMARK                         _______ _______ _______ _____ _____    ______ ____
ROOT
ATOM      1  C   UNL     1       3.231   5.745  17.708  0.00  0.00    +0.000 A 
ATOM      2  C   UNL     1       3.368   7.074  18.082  0.00  0.00    +0.000 A 
ATOM      3  N   UNL     1       4.653   7.534  17.884  0.00  0.00    +0.000 NA
ATOM      4  C   UNL     1       5.330   6.493  17.443  0.00  0.00    +0.000 A 
ATOM      5  C   UNL     1       6.725   6.382  17.124  0.00  0.00    +0.000 A 
ATOM      6  C   UNL     1       7.687   7.531  17.280  0.00  0.00    +0.000 C 
ATOM      7  C   UNL     1       7.175   5.182  16.668  0.00  0.00    +0.000 A 
ATOM      8  C   UNL     1       6.295   4.042  16.494  0.00  0.00    +0.000 A 
ATOM      9  C   UNL     1       4.995   4.160  16.816  0.00  0.00    +0.000 A 
ATOM     10  N   UNL     1       4.509   5.374  17.301  0.00  0.00    +0.000 N 
ENDROOT
BRANCH   2  11
ATOM     11  C   UNL     1       2.345   7.918  18.682  0.00  0.00    +0.000 A 
ATOM     12  C   UNL     1       1.979   7.772  20.028  0.00  0.00    +0.000 A 
ATOM     13  C   UNL     1       0.989   8.579  20.586  0.00  0.00    +0.000 A 
ATOM     14  C   UNL     1       0.384   9.550  19.801  0.00  0.00    +0.000 A 
ATOM     15  F   UNL     1      -0.562  10.335  20.340  0.00  0.00    +0.000 F 
ATOM     16  C   UNL     1       0.736   9.721  18.472  0.00  0.00    +0.000 A 
ATOM     17  C   UNL     1       1.718   8.904  17.907  0.00  0.00    +0.000 A 
ENDBRANCH   2  11
BRANCH   1  19
ATOM     18  N   UNL     1       2.109   3.664  18.151  0.00  0.00    +0.000 NA
ATOM     19  C   UNL     1       2.059   4.893  17.722  0.00  0.00    +0.000 C 
BRANCH  18  20
ATOM     20  O   UNL     1       0.837   3.053  18.053  0.00  0.00    +0.000 OA
BRANCH  20  21
ATOM     21  C   UNL     1       0.638   2.106  19.138  0.00  0.00    +0.000 C 
BRANCH  21  23
ATOM     22  C   UNL     1       1.688   3.257  21.492  0.00  0.00    +0.000 C 
ATOM     23  C   UNL     1       1.204   2.726  20.405  0.00  0.00    +0.000 C 
ENDBRANCH  21  23
ENDBRANCH  20  21
ENDBRANCH  18  20
ENDBRANCH   1  19
TORSDOF 5
ENDMDL
MODEL 9
REMARK VINA RESULT:      -7.2      3.465      5.301
REMARK  Name = 
REMARK  6 active torsions:
REMARK  status: ('A' for Active; 'I' for Inactive)
REMARK    1  A    between atoms: C_2  and  C_3
REMARK    2  A    between atoms: C_3  and  O_4
REMARK    3  A    between atoms: O_4  and  N_5
REMARK    4  A    between atoms: C_6  and  C_7
REMARK    5  A    between atoms: C_8  and  C_9
REMARK    6  A    between atoms: C_18  and  C_19
REMARK                            x       y       z     vdW  Elec       q    Type
REMARK                         _______ _______ _______ _____ _____    ______ ____
ROOT
ATOM      1  C   UNL     1       3.742   5.796  18.173  0.00  0.00    +0.000 A 
ATOM      2  C   UNL     1       2.522   6.239  18.662  0.00  0.00    +0.000 A 
ATOM      3  N   UNL     1       1.667   5.192  18.937  0.00  0.00    +0.000 NA
ATOM      4  C   UNL     1       2.321   4.107  18.575  0.00  0.00    +0.000 A 
ATOM      5  C   UNL     1       1.891   2.738  18.589  0.00  0.00    +0.000 A 
ATOM      6  C   UNL     1       0.515   2.324  19.040  0.00  0.00    +0.000 C 
ATOM      7  C   UNL     1       2.778   1.793  18.172  0.00  0.00    +0.000 A 
ATOM      8  C   UNL     1       4.118   2.133  17.730  0.00  0.00    +0.000 A 
ATOM      9  C   UNL     1       4.495   3.422  17.707  0.00  0.00    +0.000 A 
ATOM     10  N   UNL     1       3.602   4.413  18.115  0.00  0.00    +0.000 N 
ENDROOT
BRANCH   2  11
ATOM     11  C   UNL     1       2.101   7.624  18.821  0.00  0.00    +0.000 A 
ATOM     12  C   UNL     1       2.167   8.532  17.755  0.00  0.00    +0.000 A 
ATOM     13  C   UNL     1       1.772   9.858  17.926  0.00  0.00    +0.000 A 
ATOM     14  C   UNL     1       1.285  10.266  19.159  0.00  0.00    +0.000 A 
ATOM     15  F   UNL     1       0.894  11.540  19.322  0.00  0.00    +0.000 F 
ATOM     16  C   UNL     1       1.199   9.385  20.225  0.00  0.00    +0.000 A 
ATOM     17  C   UNL     1       1.608   8.059  20.059  0.00  0.00    +0.000 A 
ENDBRANCH   2  11
BRANCH   1  19
ATOM     18  N   UNL     1       5.385   6.530  16.577  0.00  0.00    +0.000 NA
ATOM     19  C   UNL     1       4.920   6.551  17.793  0.00  0.00    +0.000 C 
BRANCH  18  20
ATOM     20  O   UNL     1       6.539   7.343  16.474  0.00  0.00    +0.000 OA
BRANCH  20  21
ATOM     21  C   UNL     1       7.430   7.113  17.598  0.00  0.00    +0.000 C 
BRANCH  21  23
ATOM     22  C   UNL     1       8.598   9.588  18.293  0.00  0.00    +0.000 C 
ATOM     23  C   UNL     1       8.058   8.446  17.973  0.00  0.00    +0.000 C 
ENDBRANCH  21  23
ENDBRANCH  20  21
ENDBRANCH  18  20
ENDBRANCH   1  19
TORSDOF 5
ENDMDL
