MODEL 1
REMARK VINA RESULT:      -7.8      0.000      0.000
REMARK  Name = 
REMARK  3 active torsions:
REMARK  status: ('A' for Active; 'I' for Inactive)
REMARK    1  A    between atoms: N_3  and  C_4
REMARK    2  A    between atoms: C_13  and  C_14
REMARK    3  A    between atoms: C_21  and  C_22
REMARK                            x       y       z     vdW  Elec       q    Type
REMARK                         _______ _______ _______ _____ _____    ______ ____
ROOT
ATOM      1  O   UNL     1       7.464   6.795  19.268  0.00  0.00    +0.000 OA
ATOM      2  C   UNL     1       7.452   6.987  18.054  0.00  0.00    +0.000 C 
ATOM      3  N   UNL     1       7.908   8.122  17.412  0.00  0.00    +0.000 N 
ATOM      4  N   UNL     1       6.918   6.042  17.181  0.00  0.00    +0.000 N 
ATOM      5  N   UNL     1       7.095   6.068  15.813  0.00  0.00    +0.000 NA
ATOM      6  C   UNL     1       6.657   4.921  15.374  0.00  0.00    +0.000 C 
ATOM      7  C   UNL     1       6.097   3.991  16.422  0.00  0.00    +0.000 C 
ATOM      8  C   UNL     1       6.324   4.811  17.678  0.00  0.00    +0.000 C 
ATOM      9  H   UNL     1       7.711   8.114  16.418  0.00  0.00    +0.000 HD
ENDROOT
BRANCH   3  10
ATOM     10  C   UNL     1       8.419   9.281  18.025  0.00  0.00    +0.000 A 
ATOM     11  C   UNL     1       9.109   9.264  19.245  0.00  0.00    +0.000 A 
ATOM     12  C   UNL     1       9.557  10.448  19.835  0.00  0.00    +0.000 A 
ATOM     13  C   UNL     1       9.318  11.657  19.202  0.00  0.00    +0.000 A 
ATOM     14  F   UNL     1       9.733  12.795  19.774  0.00  0.00    +0.000 F 
ATOM     15  C   UNL     1       8.654  11.700  17.982  0.00  0.00    +0.000 A 
ATOM     16  C   UNL     1       8.211  10.512  17.389  0.00  0.00    +0.000 A 
ENDBRANCH   3  10
BRANCH   8  17
ATOM     17  C   UNL     1       5.040   5.054  18.452  0.00  0.00    +0.000 A 
ATOM     18  C   UNL     1       4.211   6.134  18.103  0.00  0.00    +0.000 A 
ATOM     19  C   UNL     1       3.022   6.365  18.794  0.00  0.00    +0.000 A 
ATOM     20  C   UNL     1       2.658   5.518  19.834  0.00  0.00    +0.000 A 
ATOM     21  F   UNL     1       1.518   5.744  20.500  0.00  0.00    +0.000 F 
ATOM     22  C   UNL     1       3.452   4.436  20.188  0.00  0.00    +0.000 A 
ATOM     23  C   UNL     1       4.641   4.199  19.495  0.00  0.00    +0.000 A 
ENDBRANCH   8  17
BRANCH   6  24
ATOM     24  C   UNL     1       6.697   4.504  13.952  0.00  0.00    +0.000 A 
ATOM     25  C   UNL     1       5.788   3.556  13.488  0.00  0.00    +0.000 A 
ATOM     26  C   UNL     1       5.844   3.205  12.151  0.00  0.00    +0.000 A 
ATOM     27  N   UNL     1       6.727   3.726  11.272  0.00  0.00    +0.000 NA
ATOM     28  C   UNL     1       7.595   4.642  11.745  0.00  0.00    +0.000 A 
ATOM     29  C   UNL     1       7.621   5.061  13.064  0.00  0.00    +0.000 A 
ENDBRANCH   6  24
TORSDOF 3
ENDMDL
MODEL 2
REMARK VINA RESULT:      -7.8      7.149     10.484
REMARK  Name = 
REMARK  3 active torsions:
REMARK  status: ('A' for Active; 'I' for Inactive)
REMARK    1  A    between atoms: N_3  and  C_4
REMARK    2  A    between atoms: C_13  and  C_14
REMARK    3  A    between atoms: C_21  and  C_22
REMARK                            x       y       z     vdW  Elec       q    Type
REMARK                         _______ _______ _______ _____ _____    ______ ____
ROOT
ATOM      1  O   UNL     1      -0.892   9.870  19.331  0.00  0.00    +0.000 OA
ATOM      2  C   UNL     1       0.180  10.471  19.292  0.00  0.00    +0.000 C 
ATOM      3  N   UNL     1       1.431   9.887  19.270  0.00  0.00    +0.000 N 
ATOM      4  N   UNL     1       0.225  11.864  19.300  0.00  0.00    +0.000 N 
ATOM      5  N   UNL     1       1.354  12.600  19.005  0.00  0.00    +0.000 NA
ATOM      6  C   UNL     1       0.954  13.835  18.890  0.00  0.00    +0.000 C 
ATOM      7  C   UNL     1      -0.517  14.071  19.131  0.00  0.00    +0.000 C 
ATOM      8  C   UNL     1      -0.992  12.653  19.392  0.00  0.00    +0.000 C 
ATOM      9  H   UNL     1       2.180  10.566  19.340  0.00  0.00    +0.000 HD
ENDROOT
BRANCH   3  10
ATOM     10  C   UNL     1       1.713   8.510  19.342  0.00  0.00    +0.000 A 
ATOM     11  C   UNL     1       1.543   7.751  20.508  0.00  0.00    +0.000 A 
ATOM     12  C   UNL     1       1.881   6.397  20.540  0.00  0.00    +0.000 A 
ATOM     13  C   UNL     1       2.388   5.793  19.401  0.00  0.00    +0.000 A 
ATOM     14  F   UNL     1       2.728   4.498  19.435  0.00  0.00    +0.000 F 
ATOM     15  C   UNL     1       2.549   6.519  18.226  0.00  0.00    +0.000 A 
ATOM     16  C   UNL     1       2.204   7.875  18.193  0.00  0.00    +0.000 A 
ENDBRANCH   3  10
BRANCH   8  17
ATOM     17  C   UNL     1      -1.680  12.510  20.738  0.00  0.00    +0.000 A 
ATOM     18  C   UNL     1      -3.070  12.696  20.831  0.00  0.00    +0.000 A 
ATOM     19  C   UNL     1      -3.722  12.556  22.057  0.00  0.00    +0.000 A 
ATOM     20  C   UNL     1      -2.986  12.230  23.190  0.00  0.00    +0.000 A 
ATOM     21  F   UNL     1      -3.613  12.101  24.367  0.00  0.00    +0.000 F 
ATOM     22  C   UNL     1      -1.615  12.028  23.121  0.00  0.00    +0.000 A 
ATOM     23  C   UNL     1      -0.961  12.162  21.895  0.00  0.00    +0.000 A 
ENDBRANCH   8  17
BRANCH   6  24
ATOM     24  C   UNL     1       1.841  14.969  18.534  0.00  0.00    +0.000 A 
ATOM     25  C   UNL     1       1.371  16.274  18.652  0.00  0.00    +0.000 A 
ATOM     26  C   UNL     1       2.233  17.305  18.328  0.00  0.00    +0.000 A 
ATOM     27  N   UNL     1       3.502  17.120  17.903  0.00  0.00    +0.000 NA
ATOM     28  C   UNL     1       3.934  15.848  17.798  0.00  0.00    +0.000 A 
ATOM     29  C   UNL     1       3.150  14.747  18.098  0.00  0.00    +0.000 A 
ENDBRANCH   6  24
TORSDOF 3
ENDMDL
MODEL 3
REMARK VINA RESULT:      -7.7      0.087      1.276
REMARK  Name = 
REMARK  3 active torsions:
REMARK  status: ('A' for Active; 'I' for Inactive)
REMARK    1  A    between atoms: N_3  and  C_4
REMARK    2  A    between atoms: C_13  and  C_14
REMARK    3  A    between atoms: C_21  and  C_22
REMARK                            x       y       z     vdW  Elec       q    Type
REMARK                         _______ _______ _______ _____ _____    ______ ____
ROOT
ATOM      1  O   UNL     1       7.427   6.848  19.245  0.00  0.00    +0.000 OA
ATOM      2  C   UNL     1       7.407   7.030  18.029  0.00  0.00    +0.000 C 
ATOM      3  N   UNL     1       7.846   8.165  17.376  0.00  0.00    +0.000 N 
ATOM      4  N   UNL     1       6.881   6.071  17.167  0.00  0.00    +0.000 N 
ATOM      5  N   UNL     1       7.051   6.088  15.798  0.00  0.00    +0.000 NA
ATOM      6  C   UNL     1       6.625   4.932  15.371  0.00  0.00    +0.000 C 
ATOM      7  C   UNL     1       6.082   4.004  16.429  0.00  0.00    +0.000 C 
ATOM      8  C   UNL     1       6.305   4.837  17.678  0.00  0.00    +0.000 C 
ATOM      9  H   UNL     1       7.645   8.146  16.384  0.00  0.00    +0.000 HD
ENDROOT
BRANCH   3  10
ATOM     10  C   UNL     1       8.346   9.336  17.977  0.00  0.00    +0.000 A 
ATOM     11  C   UNL     1       8.184  10.613  17.423  0.00  0.00    +0.000 A 
ATOM     12  C   UNL     1       8.738  11.739  18.035  0.00  0.00    +0.000 A 
ATOM     13  C   UNL     1       9.456  11.591  19.211  0.00  0.00    +0.000 A 
ATOM     14  F   UNL     1      10.002  12.667  19.791  0.00  0.00    +0.000 F 
ATOM     15  C   UNL     1       9.614  10.338  19.792  0.00  0.00    +0.000 A 
ATOM     16  C   UNL     1       9.052   9.211  19.181  0.00  0.00    +0.000 A 
ENDBRANCH   3  10
BRANCH   8  17
ATOM     17  C   UNL     1       5.022   5.070  18.455  0.00  0.00    +0.000 A 
ATOM     18  C   UNL     1       4.181   6.140  18.105  0.00  0.00    +0.000 A 
ATOM     19  C   UNL     1       2.991   6.362  18.800  0.00  0.00    +0.000 A 
ATOM     20  C   UNL     1       2.641   5.516  19.845  0.00  0.00    +0.000 A 
ATOM     21  F   UNL     1       1.501   5.734  20.514  0.00  0.00    +0.000 F 
ATOM     22  C   UNL     1       3.448   4.444  20.201  0.00  0.00    +0.000 A 
ATOM     23  C   UNL     1       4.636   4.217  19.504  0.00  0.00    +0.000 A 
ENDBRANCH   8  17
BRANCH   6  24
ATOM     24  C   UNL     1       6.664   4.504  13.952  0.00  0.00    +0.000 A 
ATOM     25  C   UNL     1       7.605   5.061  13.090  0.00  0.00    +0.000 A 
ATOM     26  C   UNL     1       7.622   4.623  11.779  0.00  0.00    +0.000 A 
ATOM     27  N   UNL     1       6.780   3.690  11.286  0.00  0.00    +0.000 NA
ATOM     28  C   UNL     1       5.879   3.165  12.139  0.00  0.00    +0.000 A 
ATOM     29  C   UNL     1       5.781   3.535  13.469  0.00  0.00    +0.000 A 
ENDBRANCH   6  24
TORSDOF 3
ENDMDL
MODEL 4
REMARK VINA RESULT:      -7.7      7.092     10.506
REMARK  Name = 
REMARK  3 active torsions:
REMARK  status: ('A' for Active; 'I' for Inactive)
REMARK    1  A    between atoms: N_3  and  C_4
REMARK    2  A    between atoms: C_13  and  C_14
REMARK    3  A    between atoms: C_21  and  C_22
REMARK                            x       y       z     vdW  Elec       q    Type
REMARK                         _______ _______ _______ _____ _____    ______ ____
ROOT
ATOM      1  O   UNL     1      -0.810   9.867  19.185  0.00  0.00    +0.000 OA
ATOM      2  C   UNL     1       0.259  10.472  19.175  0.00  0.00    +0.000 C 
ATOM      3  N   UNL     1       1.513   9.894  19.168  0.00  0.00    +0.000 N 
ATOM      4  N   UNL     1       0.298  11.865  19.205  0.00  0.00    +0.000 N 
ATOM      5  N   UNL     1       1.429  12.611  18.942  0.00  0.00    +0.000 NA
ATOM      6  C   UNL     1       1.026  13.846  18.838  0.00  0.00    +0.000 C 
ATOM      7  C   UNL     1      -0.451  14.072  19.055  0.00  0.00    +0.000 C 
ATOM      8  C   UNL     1      -0.924  12.648  19.286  0.00  0.00    +0.000 C 
ATOM      9  H   UNL     1       2.257  10.575  19.262  0.00  0.00    +0.000 HD
ENDROOT
BRANCH   3  10
ATOM     10  C   UNL     1       1.800   8.517  19.225  0.00  0.00    +0.000 A 
ATOM     11  C   UNL     1       2.252   7.781  18.121  0.00  0.00    +0.000 A 
ATOM     12  C   UNL     1       2.479   6.406  18.217  0.00  0.00    +0.000 A 
ATOM     13  C   UNL     1       2.257   5.762  19.423  0.00  0.00    +0.000 A 
ATOM     14  F   UNL     1       2.459   4.441  19.513  0.00  0.00    +0.000 F 
ATOM     15  C   UNL     1       1.828   6.472  20.538  0.00  0.00    +0.000 A 
ATOM     16  C   UNL     1       1.607   7.851  20.442  0.00  0.00    +0.000 A 
ENDBRANCH   3  10
BRANCH   8  17
ATOM     17  C   UNL     1      -1.637  12.482  20.616  0.00  0.00    +0.000 A 
ATOM     18  C   UNL     1      -0.894  12.175  21.769  0.00  0.00    +0.000 A 
ATOM     19  C   UNL     1      -1.531  12.031  23.002  0.00  0.00    +0.000 A 
ATOM     20  C   UNL     1      -2.908  12.195  23.086  0.00  0.00    +0.000 A 
ATOM     21  F   UNL     1      -3.518  12.052  24.270  0.00  0.00    +0.000 F 
ATOM     22  C   UNL     1      -3.661  12.513  21.964  0.00  0.00    +0.000 A 
ATOM     23  C   UNL     1      -3.027  12.662  20.729  0.00  0.00    +0.000 A 
ENDBRANCH   8  17
BRANCH   6  24
ATOM     24  C   UNL     1       1.915  14.988  18.516  0.00  0.00    +0.000 A 
ATOM     25  C   UNL     1       1.416  16.286  18.578  0.00  0.00    +0.000 A 
ATOM     26  C   UNL     1       2.280  17.326  18.287  0.00  0.00    +0.000 A 
ATOM     27  N   UNL     1       3.576  17.156  17.948  0.00  0.00    +0.000 NA
ATOM     28  C   UNL     1       4.035  15.891  17.896  0.00  0.00    +0.000 A 
ATOM     29  C   UNL     1       3.252  14.782  18.168  0.00  0.00    +0.000 A 
ENDBRANCH   6  24
TORSDOF 3
ENDMDL
MODEL 5
REMARK VINA RESULT:      -7.7      0.103      1.294
REMARK  Name = 
REMARK  3 active torsions:
REMARK  status: ('A' for Active; 'I' for Inactive)
REMARK    1  A    between atoms: N_3  and  C_4
REMARK    2  A    between atoms: C_13  and  C_14
REMARK    3  A    between atoms: C_21  and  C_22
REMARK                            x       y       z     vdW  Elec       q    Type
REMARK                         _______ _______ _______ _____ _____    ______ ____
ROOT
ATOM      1  O   UNL     1       7.384   6.845  19.231  0.00  0.00    +0.000 OA
ATOM      2  C   UNL     1       7.376   7.017  18.014  0.00  0.00    +0.000 C 
ATOM      3  N   UNL     1       7.828   8.143  17.356  0.00  0.00    +0.000 N 
ATOM      4  N   UNL     1       6.851   6.054  17.155  0.00  0.00    +0.000 N 
ATOM      5  N   UNL     1       7.034   6.058  15.788  0.00  0.00    +0.000 NA
ATOM      6  C   UNL     1       6.605   4.902  15.366  0.00  0.00    +0.000 C 
ATOM      7  C   UNL     1       6.047   3.985  16.427  0.00  0.00    +0.000 C 
ATOM      8  C   UNL     1       6.263   4.828  17.671  0.00  0.00    +0.000 C 
ATOM      9  H   UNL     1       7.635   8.118  16.362  0.00  0.00    +0.000 HD
ENDROOT
BRANCH   3  10
ATOM     10  C   UNL     1       8.329   9.316  17.952  0.00  0.00    +0.000 A 
ATOM     11  C   UNL     1       8.155  10.592  17.400  0.00  0.00    +0.000 A 
ATOM     12  C   UNL     1       8.712  11.721  18.007  0.00  0.00    +0.000 A 
ATOM     13  C   UNL     1       9.443  11.575  19.174  0.00  0.00    +0.000 A 
ATOM     14  F   UNL     1       9.991  12.654  19.748  0.00  0.00    +0.000 F 
ATOM     15  C   UNL     1       9.614  10.323  19.753  0.00  0.00    +0.000 A 
ATOM     16  C   UNL     1       9.050   9.194  19.147  0.00  0.00    +0.000 A 
ENDBRANCH   3  10
BRANCH   8  17
ATOM     17  C   UNL     1       4.975   5.075  18.435  0.00  0.00    +0.000 A 
ATOM     18  C   UNL     1       4.622   4.225  19.497  0.00  0.00    +0.000 A 
ATOM     19  C   UNL     1       3.448   4.445  20.218  0.00  0.00    +0.000 A 
ATOM     20  C   UNL     1       2.626   5.513  19.881  0.00  0.00    +0.000 A 
ATOM     21  F   UNL     1       1.497   5.720  20.572  0.00  0.00    +0.000 F 
ATOM     22  C   UNL     1       2.960   6.375  18.846  0.00  0.00    +0.000 A 
ATOM     23  C   UNL     1       4.136   6.161  18.125  0.00  0.00    +0.000 A 
ENDBRANCH   8  17
BRANCH   6  24
ATOM     24  C   UNL     1       6.654   4.461  13.951  0.00  0.00    +0.000 A 
ATOM     25  C   UNL     1       5.751   3.503  13.498  0.00  0.00    +0.000 A 
ATOM     26  C   UNL     1       5.815   3.130  12.168  0.00  0.00    +0.000 A 
ATOM     27  N   UNL     1       6.700   3.640  11.285  0.00  0.00    +0.000 NA
ATOM     28  C   UNL     1       7.563   4.566  11.747  0.00  0.00    +0.000 A 
ATOM     29  C   UNL     1       7.580   5.007  13.059  0.00  0.00    +0.000 A 
ENDBRANCH   6  24
TORSDOF 3
ENDMDL
MODEL 6
REMARK VINA RESULT:      -7.6      8.749     12.386
REMARK  Name = 
REMARK  3 active torsions:
REMARK  status: ('A' for Active; 'I' for Inactive)
REMARK    1  A    between atoms: N_3  and  C_4
REMARK    2  A    between atoms: C_13  and  C_14
REMARK    3  A    between atoms: C_21  and  C_22
REMARK                            x       y       z     vdW  Elec       q    Type
REMARK                         _______ _______ _______ _____ _____    ______ ____
ROOT
ATOM      1  O   UNL     1       1.824  12.008  20.906  0.00  0.00    +0.000 OA
ATOM      2  C   UNL     1       0.664  11.604  20.911  0.00  0.00    +0.000 C 
ATOM      3  N   UNL     1       0.225  10.402  20.393  0.00  0.00    +0.000 N 
ATOM      4  N   UNL     1      -0.366  12.383  21.436  0.00  0.00    +0.000 N 
ATOM      5  N   UNL     1      -1.632  11.906  21.707  0.00  0.00    +0.000 NA
ATOM      6  C   UNL     1      -2.228  12.842  22.389  0.00  0.00    +0.000 C 
ATOM      7  C   UNL     1      -1.417  14.092  22.631  0.00  0.00    +0.000 C 
ATOM      8  C   UNL     1      -0.108  13.713  21.964  0.00  0.00    +0.000 C 
ATOM      9  H   UNL     1      -0.784  10.314  20.411  0.00  0.00    +0.000 HD
ENDROOT
BRANCH   3  10
ATOM     10  C   UNL     1       1.009   9.445  19.722  0.00  0.00    +0.000 A 
ATOM     11  C   UNL     1       1.367   9.556  18.371  0.00  0.00    +0.000 A 
ATOM     12  C   UNL     1       2.109   8.556  17.739  0.00  0.00    +0.000 A 
ATOM     13  C   UNL     1       2.500   7.439  18.459  0.00  0.00    +0.000 A 
ATOM     14  F   UNL     1       3.197   6.471  17.850  0.00  0.00    +0.000 F 
ATOM     15  C   UNL     1       2.174   7.313  19.805  0.00  0.00    +0.000 A 
ATOM     16  C   UNL     1       1.436   8.320  20.439  0.00  0.00    +0.000 A 
ENDBRANCH   3  10
BRANCH   8  17
ATOM     17  C   UNL     1       0.300  14.700  20.885  0.00  0.00    +0.000 A 
ATOM     18  C   UNL     1      -0.528  14.886  19.764  0.00  0.00    +0.000 A 
ATOM     19  C   UNL     1      -0.175  15.798  18.768  0.00  0.00    +0.000 A 
ATOM     20  C   UNL     1       1.002  16.525  18.891  0.00  0.00    +0.000 A 
ATOM     21  F   UNL     1       1.342  17.397  17.932  0.00  0.00    +0.000 F 
ATOM     22  C   UNL     1       1.829  16.369  19.996  0.00  0.00    +0.000 A 
ATOM     23  C   UNL     1       1.477  15.461  20.996  0.00  0.00    +0.000 A 
ENDBRANCH   8  17
BRANCH   6  24
ATOM     24  C   UNL     1      -3.605  12.732  22.929  0.00  0.00    +0.000 A 
ATOM     25  C   UNL     1      -4.693  12.911  22.078  0.00  0.00    +0.000 A 
ATOM     26  C   UNL     1      -5.962  12.783  22.613  0.00  0.00    +0.000 A 
ATOM     27  N   UNL     1      -6.206  12.495  23.910  0.00  0.00    +0.000 NA
ATOM     28  C   UNL     1      -5.137  12.325  24.712  0.00  0.00    +0.000 A 
ATOM     29  C   UNL     1      -3.829  12.432  24.275  0.00  0.00    +0.000 A 
ENDBRANCH   6  24
TORSDOF 3
ENDMDL
MODEL 7
REMARK VINA RESULT:      -7.6      8.790     12.431
REMARK  Name = 
REMARK  3 active torsions:
REMARK  status: ('A' for Active; 'I' for Inactive)
REMARK    1  A    between atoms: N_3  and  C_4
REMARK    2  A    between atoms: C_13  and  C_14
REMARK    3  A    between atoms: C_21  and  C_22
REMARK                            x       y       z     vdW  Elec       q    Type
REMARK                         _______ _______ _______ _____ _____    ______ ____
ROOT
ATOM      1  O   UNL     1       1.756  12.054  20.888  0.00  0.00    +0.000 OA
ATOM      2  C   UNL     1       0.601  11.633  20.902  0.00  0.00    +0.000 C 
ATOM      3  N   UNL     1       0.180  10.415  20.407  0.00  0.00    +0.000 N 
ATOM      4  N   UNL     1      -0.439  12.405  21.416  0.00  0.00    +0.000 N 
ATOM      5  N   UNL     1      -1.697  11.914  21.698  0.00  0.00    +0.000 NA
ATOM      6  C   UNL     1      -2.306  12.854  22.366  0.00  0.00    +0.000 C 
ATOM      7  C   UNL     1      -1.513  14.120  22.583  0.00  0.00    +0.000 C 
ATOM      8  C   UNL     1      -0.200  13.748  21.919  0.00  0.00    +0.000 C 
ATOM      9  H   UNL     1      -0.828  10.313  20.429  0.00  0.00    +0.000 HD
ENDROOT
BRANCH   3  10
ATOM     10  C   UNL     1       0.976   9.459  19.751  0.00  0.00    +0.000 A 
ATOM     11  C   UNL     1       1.348   9.562  18.403  0.00  0.00    +0.000 A 
ATOM     12  C   UNL     1       2.102   8.562  17.786  0.00  0.00    +0.000 A 
ATOM     13  C   UNL     1       2.492   7.453  18.518  0.00  0.00    +0.000 A 
ATOM     14  F   UNL     1       3.202   6.485  17.924  0.00  0.00    +0.000 F 
ATOM     15  C   UNL     1       2.154   7.335  19.861  0.00  0.00    +0.000 A 
ATOM     16  C   UNL     1       1.403   8.341  20.481  0.00  0.00    +0.000 A 
ENDBRANCH   3  10
BRANCH   8  17
ATOM     17  C   UNL     1       0.191  14.722  20.822  0.00  0.00    +0.000 A 
ATOM     18  C   UNL     1       1.403  15.427  20.918  0.00  0.00    +0.000 A 
ATOM     19  C   UNL     1       1.785  16.316  19.913  0.00  0.00    +0.000 A 
ATOM     20  C   UNL     1       0.958  16.502  18.812  0.00  0.00    +0.000 A 
ATOM     21  F   UNL     1       1.324  17.360  17.850  0.00  0.00    +0.000 F 
ATOM     22  C   UNL     1      -0.237  15.807  18.688  0.00  0.00    +0.000 A 
ATOM     23  C   UNL     1      -0.620  14.912  19.689  0.00  0.00    +0.000 A 
ENDBRANCH   8  17
BRANCH   6  24
ATOM     24  C   UNL     1      -3.680  12.732  22.910  0.00  0.00    +0.000 A 
ATOM     25  C   UNL     1      -3.862  12.431  24.257  0.00  0.00    +0.000 A 
ATOM     26  C   UNL     1      -5.157  12.343  24.732  0.00  0.00    +0.000 A 
ATOM     27  N   UNL     1      -6.254  12.532  23.967  0.00  0.00    +0.000 NA
ATOM     28  C   UNL     1      -6.052  12.824  22.668  0.00  0.00    +0.000 A 
ATOM     29  C   UNL     1      -4.797  12.934  22.095  0.00  0.00    +0.000 A 
ENDBRANCH   6  24
TORSDOF 3
ENDMDL
MODEL 8
REMARK VINA RESULT:      -7.6      8.739     12.353
REMARK  Name = 
REMARK  3 active torsions:
REMARK  status: ('A' for Active; 'I' for Inactive)
REMARK    1  A    between atoms: N_3  and  C_4
REMARK    2  A    between atoms: C_13  and  C_14
REMARK    3  A    between atoms: C_21  and  C_22
REMARK                            x       y       z     vdW  Elec       q    Type
REMARK                         _______ _______ _______ _____ _____    ______ ____
ROOT
ATOM      1  O   UNL     1       1.799  11.948  20.929  0.00  0.00    +0.000 OA
ATOM      2  C   UNL     1       0.635  11.553  20.946  0.00  0.00    +0.000 C 
ATOM      3  N   UNL     1       0.184  10.346  20.449  0.00  0.00    +0.000 N 
ATOM      4  N   UNL     1      -0.386  12.347  21.465  0.00  0.00    +0.000 N 
ATOM      5  N   UNL     1      -1.654  11.884  21.750  0.00  0.00    +0.000 NA
ATOM      6  C   UNL     1      -2.240  12.836  22.421  0.00  0.00    +0.000 C 
ATOM      7  C   UNL     1      -1.418  14.083  22.639  0.00  0.00    +0.000 C 
ATOM      8  C   UNL     1      -0.115  13.683  21.971  0.00  0.00    +0.000 C 
ATOM      9  H   UNL     1      -0.825  10.266  20.474  0.00  0.00    +0.000 HD
ENDROOT
BRANCH   3  10
ATOM     10  C   UNL     1       0.957   9.373  19.788  0.00  0.00    +0.000 A 
ATOM     11  C   UNL     1       1.468   8.235  20.427  0.00  0.00    +0.000 A 
ATOM     12  C   UNL     1       2.269   7.321  19.738  0.00  0.00    +0.000 A 
ATOM     13  C   UNL     1       2.559   7.542  18.401  0.00  0.00    +0.000 A 
ATOM     14  F   UNL     1       3.339   6.676  17.743  0.00  0.00    +0.000 F 
ATOM     15  C   UNL     1       2.048   8.653  17.739  0.00  0.00    +0.000 A 
ATOM     16  C   UNL     1       1.241   9.565  18.430  0.00  0.00    +0.000 A 
ENDBRANCH   3  10
BRANCH   8  17
ATOM     17  C   UNL     1       0.294  14.650  20.875  0.00  0.00    +0.000 A 
ATOM     18  C   UNL     1       1.519  15.334  20.972  0.00  0.00    +0.000 A 
ATOM     19  C   UNL     1       1.918  16.217  19.968  0.00  0.00    +0.000 A 
ATOM     20  C   UNL     1       1.095  16.417  18.866  0.00  0.00    +0.000 A 
ATOM     21  F   UNL     1       1.478  17.269  17.905  0.00  0.00    +0.000 F 
ATOM     22  C   UNL     1      -0.112  15.743  18.740  0.00  0.00    +0.000 A 
ATOM     23  C   UNL     1      -0.511  14.856  19.740  0.00  0.00    +0.000 A 
ENDBRANCH   8  17
BRANCH   6  24
ATOM     24  C   UNL     1      -3.614  12.744  22.969  0.00  0.00    +0.000 A 
ATOM     25  C   UNL     1      -4.704  12.983  22.136  0.00  0.00    +0.000 A 
ATOM     26  C   UNL     1      -5.971  12.871  22.678  0.00  0.00    +0.000 A 
ATOM     27  N   UNL     1      -6.213  12.544  23.966  0.00  0.00    +0.000 NA
ATOM     28  C   UNL     1      -5.142  12.316  24.752  0.00  0.00    +0.000 A 
ATOM     29  C   UNL     1      -3.834  12.403  24.306  0.00  0.00    +0.000 A 
ENDBRANCH   6  24
TORSDOF 3
ENDMDL
MODEL 9
REMARK VINA RESULT:      -7.6      8.682     12.290
REMARK  Name = 
REMARK  3 active torsions:
REMARK  status: ('A' for Active; 'I' for Inactive)
REMARK    1  A    between atoms: N_3  and  C_4
REMARK    2  A    between atoms: C_13  and  C_14
REMARK    3  A    between atoms: C_21  and  C_22
REMARK                            x       y       z     vdW  Elec       q    Type
REMARK                         _______ _______ _______ _____ _____    ______ ____
ROOT
ATOM      1  O   UNL     1       1.849  11.855  20.958  0.00  0.00    +0.000 OA
ATOM      2  C   UNL     1       0.686  11.459  20.979  0.00  0.00    +0.000 C 
ATOM      3  N   UNL     1       0.241  10.239  20.511  0.00  0.00    +0.000 N 
ATOM      4  N   UNL     1      -0.339  12.264  21.472  0.00  0.00    +0.000 N 
ATOM      5  N   UNL     1      -1.608  11.806  21.762  0.00  0.00    +0.000 NA
ATOM      6  C   UNL     1      -2.198  12.773  22.406  0.00  0.00    +0.000 C 
ATOM      7  C   UNL     1      -1.380  14.027  22.596  0.00  0.00    +0.000 C 
ATOM      8  C   UNL     1      -0.073  13.613  21.945  0.00  0.00    +0.000 C 
ATOM      9  H   UNL     1      -0.769  10.157  20.532  0.00  0.00    +0.000 HD
ENDROOT
BRANCH   3  10
ATOM     10  C   UNL     1       1.019   9.251  19.880  0.00  0.00    +0.000 A 
ATOM     11  C   UNL     1       1.474   8.098  20.534  0.00  0.00    +0.000 A 
ATOM     12  C   UNL     1       2.283   7.169  19.875  0.00  0.00    +0.000 A 
ATOM     13  C   UNL     1       2.637   7.389  18.554  0.00  0.00    +0.000 A 
ATOM     14  F   UNL     1       3.425   6.507  17.926  0.00  0.00    +0.000 F 
ATOM     15  C   UNL     1       2.183   8.514  17.876  0.00  0.00    +0.000 A 
ATOM     16  C   UNL     1       1.367   9.442  18.536  0.00  0.00    +0.000 A 
ENDBRANCH   3  10
BRANCH   8  17
ATOM     17  C   UNL     1       0.340  14.552  20.826  0.00  0.00    +0.000 A 
ATOM     18  C   UNL     1      -0.503  14.724  19.715  0.00  0.00    +0.000 A 
ATOM     19  C   UNL     1      -0.145  15.592  18.683  0.00  0.00    +0.000 A 
ATOM     20  C   UNL     1       1.053  16.292  18.761  0.00  0.00    +0.000 A 
ATOM     21  F   UNL     1       1.397  17.122  17.767  0.00  0.00    +0.000 F 
ATOM     22  C   UNL     1       1.895  16.151  19.855  0.00  0.00    +0.000 A 
ATOM     23  C   UNL     1       1.539  15.286  20.891  0.00  0.00    +0.000 A 
ENDBRANCH   8  17
BRANCH   6  24
ATOM     24  C   UNL     1      -3.576  12.692  22.949  0.00  0.00    +0.000 A 
ATOM     25  C   UNL     1      -3.768  12.375  24.291  0.00  0.00    +0.000 A 
ATOM     26  C   UNL     1      -5.066  12.327  24.766  0.00  0.00    +0.000 A 
ATOM     27  N   UNL     1      -6.155  12.569  24.005  0.00  0.00    +0.000 NA
ATOM     28  C   UNL     1      -5.943  12.874  22.710  0.00  0.00    +0.000 A 
ATOM     29  C   UNL     1      -4.685  12.948  22.138  0.00  0.00    +0.000 A 
ENDBRANCH   6  24
TORSDOF 3
ENDMDL
