MODEL 1
REMARK VINA RESULT:      -8.4      0.000      0.000
REMARK  Name = 
REMARK  6 active torsions:
REMARK  status: ('A' for Active; 'I' for Inactive)
REMARK    1  A    between atoms: C_1  and  O_2
REMARK    2  A    between atoms: O_2  and  C_3
REMARK    3  A    between atoms: C_7  and  N_8
REMARK    4  A    between atoms: N_11  and  C_12
REMARK    5  A    between atoms: C_17  and  C_18
REMARK    6  A    between atoms: C_19  and  C_20
REMARK                            x       y       z     vdW  Elec       q    Type
REMARK                         _______ _______ _______ _____ _____    ______ ____
ROOT
ATOM      1  N   UNL     1       9.023   8.901  19.017  0.00  0.00    +0.000 N 
ATOM      2  C   UNL     1       8.126   8.354  18.106  0.00  0.00    +0.000 C 
ATOM      3  O   UNL     1       7.486   8.973  17.266  0.00  0.00    +0.000 OA
ATOM      4  N   UNL     1       7.980   6.975  18.335  0.00  0.00    +0.000 N 
ATOM      5  H   UNL     1       9.629   8.249  19.490  0.00  0.00    +0.000 HD
ATOM      6  H   UNL     1       8.066   6.771  19.321  0.00  0.00    +0.000 HD
ENDROOT
BRANCH   4   7
ATOM      7  C   UNL     1       6.922   6.272  17.697  0.00  0.00    +0.000 A 
ATOM      8  C   UNL     1       7.252   5.478  16.604  0.00  0.00    +0.000 A 
ATOM      9  C   UNL     1       6.381   4.456  16.239  0.00  0.00    +0.000 A 
ATOM     10  C   UNL     1       5.176   4.285  16.891  0.00  0.00    +0.000 A 
ATOM     11  N   UNL     1       4.563   3.096  16.855  0.00  0.00    +0.000 NA
ATOM     12  C   UNL     1       3.485   2.992  17.660  0.00  0.00    +0.000 A 
ATOM     13  C   UNL     1       3.757   2.232  18.961  0.00  0.00    +0.000 C 
ATOM     14  C   UNL     1       2.722   4.119  17.880  0.00  0.00    +0.000 A 
ATOM     15  C   UNL     1       1.235   3.963  17.969  0.00  0.00    +0.000 C 
ATOM     16  N   UNL     1       3.355   5.297  18.074  0.00  0.00    +0.000 NA
ATOM     17  C   UNL     1       4.673   5.326  17.711  0.00  0.00    +0.000 A 
ATOM     18  C   UNL     1       5.604   6.266  18.179  0.00  0.00    +0.000 A 
ENDBRANCH   4   7
BRANCH   1  23
ATOM     19  C   UNL     1       9.924  12.449  18.299  0.00  0.00    +0.000 A 
ATOM     20  C   UNL     1       9.891  13.010  19.576  0.00  0.00    +0.000 A 
ATOM     21  C   UNL     1       9.576  12.222  20.680  0.00  0.00    +0.000 A 
ATOM     22  C   UNL     1       9.283  10.867  20.513  0.00  0.00    +0.000 A 
ATOM     23  C   UNL     1       9.294  10.278  19.245  0.00  0.00    +0.000 A 
ATOM     24  C   UNL     1       9.628  11.085  18.137  0.00  0.00    +0.000 A 
BRANCH  19  26
ATOM     25  C   UNL     1      11.577  13.252  16.774  0.00  0.00    +0.000 C 
ATOM     26  O   UNL     1      10.266  13.332  17.311  0.00  0.00    +0.000 OA
ENDBRANCH  19  26
ENDBRANCH   1  23
TORSDOF 3
ENDMDL
MODEL 2
REMARK VINA RESULT:      -8.1      1.095      1.953
REMARK  Name = 
REMARK  6 active torsions:
REMARK  status: ('A' for Active; 'I' for Inactive)
REMARK    1  A    between atoms: C_1  and  O_2
REMARK    2  A    between atoms: O_2  and  C_3
REMARK    3  A    between atoms: C_7  and  N_8
REMARK    4  A    between atoms: N_11  and  C_12
REMARK    5  A    between atoms: C_17  and  C_18
REMARK    6  A    between atoms: C_19  and  C_20
REMARK                            x       y       z     vdW  Elec       q    Type
REMARK                         _______ _______ _______ _____ _____    ______ ____
ROOT
ATOM      1  N   UNL     1       8.988   8.812  19.004  0.00  0.00    +0.000 N 
ATOM      2  C   UNL     1       8.102   8.236  18.099  0.00  0.00    +0.000 C 
ATOM      3  O   UNL     1       7.499   8.822  17.210  0.00  0.00    +0.000 OA
ATOM      4  N   UNL     1       7.918   6.875  18.399  0.00  0.00    +0.000 N 
ATOM      5  H   UNL     1       9.566   8.174  19.527  0.00  0.00    +0.000 HD
ATOM      6  H   UNL     1       7.974   6.723  19.396  0.00  0.00    +0.000 HD
ENDROOT
BRANCH   4   7
ATOM      7  C   UNL     1       6.861   6.161  17.771  0.00  0.00    +0.000 A 
ATOM      8  C   UNL     1       7.188   5.368  16.677  0.00  0.00    +0.000 A 
ATOM      9  C   UNL     1       6.323   4.337  16.322  0.00  0.00    +0.000 A 
ATOM     10  C   UNL     1       5.125   4.157  16.984  0.00  0.00    +0.000 A 
ATOM     11  N   UNL     1       4.522   2.963  16.957  0.00  0.00    +0.000 NA
ATOM     12  C   UNL     1       3.452   2.852  17.771  0.00  0.00    +0.000 A 
ATOM     13  C   UNL     1       3.741   2.098  19.071  0.00  0.00    +0.000 C 
ATOM     14  C   UNL     1       2.681   3.973  17.994  0.00  0.00    +0.000 A 
ATOM     15  C   UNL     1       1.196   3.805  18.096  0.00  0.00    +0.000 C 
ATOM     16  N   UNL     1       3.305   5.157  18.181  0.00  0.00    +0.000 NA
ATOM     17  C   UNL     1       4.620   5.197  17.807  0.00  0.00    +0.000 A 
ATOM     18  C   UNL     1       5.547   6.145  18.264  0.00  0.00    +0.000 A 
ENDBRANCH   4   7
BRANCH   1  23
ATOM     19  C   UNL     1       9.611  12.078  20.696  0.00  0.00    +0.000 A 
ATOM     20  C   UNL     1       9.824  12.922  19.606  0.00  0.00    +0.000 A 
ATOM     21  C   UNL     1       9.760  12.420  18.308  0.00  0.00    +0.000 A 
ATOM     22  C   UNL     1       9.489  11.067  18.092  0.00  0.00    +0.000 A 
ATOM     23  C   UNL     1       9.285  10.192  19.164  0.00  0.00    +0.000 A 
ATOM     24  C   UNL     1       9.339  10.717  20.472  0.00  0.00    +0.000 A 
BRANCH  19  26
ATOM     25  C   UNL     1       8.618  12.507  22.825  0.00  0.00    +0.000 C 
ATOM     26  O   UNL     1       9.685  12.705  21.910  0.00  0.00    +0.000 OA
ENDBRANCH  19  26
ENDBRANCH   1  23
TORSDOF 3
ENDMDL
MODEL 3
REMARK VINA RESULT:      -7.8      1.658      1.892
REMARK  Name = 
REMARK  6 active torsions:
REMARK  status: ('A' for Active; 'I' for Inactive)
REMARK    1  A    between atoms: C_1  and  O_2
REMARK    2  A    between atoms: O_2  and  C_3
REMARK    3  A    between atoms: C_7  and  N_8
REMARK    4  A    between atoms: N_11  and  C_12
REMARK    5  A    between atoms: C_17  and  C_18
REMARK    6  A    between atoms: C_19  and  C_20
REMARK                            x       y       z     vdW  Elec       q    Type
REMARK                         _______ _______ _______ _____ _____    ______ ____
ROOT
ATOM      1  N   UNL     1       8.798  10.507  17.833  0.00  0.00    +0.000 N 
ATOM      2  C   UNL     1       8.384   9.251  18.260  0.00  0.00    +0.000 C 
ATOM      3  O   UNL     1       8.837   8.629  19.213  0.00  0.00    +0.000 OA
ATOM      4  N   UNL     1       7.412   8.735  17.386  0.00  0.00    +0.000 N 
ATOM      5  H   UNL     1       8.189  10.978  17.182  0.00  0.00    +0.000 HD
ATOM      6  H   UNL     1       7.590   9.042  16.441  0.00  0.00    +0.000 HD
ENDROOT
BRANCH   4   7
ATOM      7  C   UNL     1       7.045   7.365  17.483  0.00  0.00    +0.000 A 
ATOM      8  C   UNL     1       7.918   6.517  18.157  0.00  0.00    +0.000 A 
ATOM      9  C   UNL     1       7.422   5.318  18.660  0.00  0.00    +0.000 A 
ATOM     10  C   UNL     1       6.117   4.935  18.423  0.00  0.00    +0.000 A 
ATOM     11  N   UNL     1       5.525   4.051  19.234  0.00  0.00    +0.000 NA
ATOM     12  C   UNL     1       4.205   3.878  19.014  0.00  0.00    +0.000 A 
ATOM     13  C   UNL     1       3.310   4.613  20.014  0.00  0.00    +0.000 C 
ATOM     14  C   UNL     1       3.736   4.004  17.724  0.00  0.00    +0.000 A 
ATOM     15  C   UNL     1       2.653   3.074  17.268  0.00  0.00    +0.000 C 
ATOM     16  N   UNL     1       4.224   5.003  16.956  0.00  0.00    +0.000 NA
ATOM     17  C   UNL     1       5.370   5.593  17.412  0.00  0.00    +0.000 A 
ATOM     18  C   UNL     1       5.817   6.865  17.025  0.00  0.00    +0.000 A 
ENDBRANCH   4   7
BRANCH   1  23
ATOM     19  C   UNL     1      11.628  12.937  17.858  0.00  0.00    +0.000 A 
ATOM     20  C   UNL     1      12.096  12.808  19.166  0.00  0.00    +0.000 A 
ATOM     21  C   UNL     1      11.484  11.918  20.044  0.00  0.00    +0.000 A 
ATOM     22  C   UNL     1      10.393  11.155  19.623  0.00  0.00    +0.000 A 
ATOM     23  C   UNL     1       9.892  11.271  18.322  0.00  0.00    +0.000 A 
ATOM     24  C   UNL     1      10.530  12.167  17.439  0.00  0.00    +0.000 A 
BRANCH  19  26
ATOM     25  C   UNL     1      11.944  15.196  17.150  0.00  0.00    +0.000 C 
ATOM     26  O   UNL     1      12.333  13.832  17.099  0.00  0.00    +0.000 OA
ENDBRANCH  19  26
ENDBRANCH   1  23
TORSDOF 3
ENDMDL
MODEL 4
REMARK VINA RESULT:      -7.7      5.579      7.839
REMARK  Name = 
REMARK  6 active torsions:
REMARK  status: ('A' for Active; 'I' for Inactive)
REMARK    1  A    between atoms: C_1  and  O_2
REMARK    2  A    between atoms: O_2  and  C_3
REMARK    3  A    between atoms: C_7  and  N_8
REMARK    4  A    between atoms: N_11  and  C_12
REMARK    5  A    between atoms: C_17  and  C_18
REMARK    6  A    between atoms: C_19  and  C_20
REMARK                            x       y       z     vdW  Elec       q    Type
REMARK                         _______ _______ _______ _____ _____    ______ ____
ROOT
ATOM      1  N   UNL     1       0.429   8.126  21.367  0.00  0.00    +0.000 N 
ATOM      2  C   UNL     1       1.446   7.558  20.607  0.00  0.00    +0.000 C 
ATOM      3  O   UNL     1       2.117   8.131  19.759  0.00  0.00    +0.000 OA
ATOM      4  N   UNL     1       1.550   6.184  20.884  0.00  0.00    +0.000 N 
ATOM      5  H   UNL     1       0.123   7.596  22.167  0.00  0.00    +0.000 HD
ATOM      6  H   UNL     1       0.640   5.797  21.094  0.00  0.00    +0.000 HD
ENDROOT
BRANCH   4   7
ATOM      7  C   UNL     1       2.338   5.360  20.035  0.00  0.00    +0.000 A 
ATOM      8  C   UNL     1       1.667   4.448  19.229  0.00  0.00    +0.000 A 
ATOM      9  C   UNL     1       2.315   3.959  18.097  0.00  0.00    +0.000 A 
ATOM     10  C   UNL     1       3.624   4.304  17.826  0.00  0.00    +0.000 A 
ATOM     11  N   UNL     1       4.091   4.211  16.575  0.00  0.00    +0.000 NA
ATOM     12  C   UNL     1       5.323   4.730  16.392  0.00  0.00    +0.000 A 
ATOM     13  C   UNL     1       5.319   6.112  15.735  0.00  0.00    +0.000 C 
ATOM     14  C   UNL     1       6.221   4.666  17.436  0.00  0.00    +0.000 A 
ATOM     15  C   UNL     1       7.660   4.396  17.119  0.00  0.00    +0.000 C 
ATOM     16  N   UNL     1       5.774   4.919  18.687  0.00  0.00    +0.000 NA
ATOM     17  C   UNL     1       4.416   4.892  18.845  0.00  0.00    +0.000 A 
ATOM     18  C   UNL     1       3.728   5.501  19.905  0.00  0.00    +0.000 A 
ENDBRANCH   4   7
BRANCH   1  23
ATOM     19  C   UNL     1      -0.802  11.507  22.351  0.00  0.00    +0.000 A 
ATOM     20  C   UNL     1      -1.227  12.018  21.125  0.00  0.00    +0.000 A 
ATOM     21  C   UNL     1      -1.114  11.250  19.968  0.00  0.00    +0.000 A 
ATOM     22  C   UNL     1      -0.567   9.967  20.029  0.00  0.00    +0.000 A 
ATOM     23  C   UNL     1      -0.119   9.431  21.241  0.00  0.00    +0.000 A 
ATOM     24  C   UNL     1      -0.252  10.215  22.407  0.00  0.00    +0.000 A 
BRANCH  19  26
ATOM     25  C   UNL     1      -1.585  13.620  23.142  0.00  0.00    +0.000 C 
ATOM     26  O   UNL     1      -0.989  12.360  23.406  0.00  0.00    +0.000 OA
ENDBRANCH  19  26
ENDBRANCH   1  23
TORSDOF 3
ENDMDL
MODEL 5
REMARK VINA RESULT:      -7.6      5.329      7.696
REMARK  Name = 
REMARK  6 active torsions:
REMARK  status: ('A' for Active; 'I' for Inactive)
REMARK    1  A    between atoms: C_1  and  O_2
REMARK    2  A    between atoms: O_2  and  C_3
REMARK    3  A    between atoms: C_7  and  N_8
REMARK    4  A    between atoms: N_11  and  C_12
REMARK    5  A    between atoms: C_17  and  C_18
REMARK    6  A    between atoms: C_19  and  C_20
REMARK                            x       y       z     vdW  Elec       q    Type
REMARK                         _______ _______ _______ _____ _____    ______ ____
ROOT
ATOM      1  N   UNL     1       0.451   8.078  21.497  0.00  0.00    +0.000 N 
ATOM      2  C   UNL     1       1.444   7.532  20.691  0.00  0.00    +0.000 C 
ATOM      3  O   UNL     1       2.080   8.126  19.830  0.00  0.00    +0.000 OA
ATOM      4  N   UNL     1       1.568   6.153  20.937  0.00  0.00    +0.000 N 
ATOM      5  H   UNL     1       0.178   7.529  22.298  0.00  0.00    +0.000 HD
ATOM      6  H   UNL     1       0.669   5.756  21.172  0.00  0.00    +0.000 HD
ENDROOT
BRANCH   4   7
ATOM      7  C   UNL     1       2.331   5.353  20.045  0.00  0.00    +0.000 A 
ATOM      8  C   UNL     1       1.635   4.480  19.216  0.00  0.00    +0.000 A 
ATOM      9  C   UNL     1       2.258   4.027  18.056  0.00  0.00    +0.000 A 
ATOM     10  C   UNL     1       3.567   4.364  17.776  0.00  0.00    +0.000 A 
ATOM     11  N   UNL     1       4.012   4.313  16.515  0.00  0.00    +0.000 NA
ATOM     12  C   UNL     1       5.248   4.823  16.331  0.00  0.00    +0.000 A 
ATOM     13  C   UNL     1       5.253   6.229  15.728  0.00  0.00    +0.000 C 
ATOM     14  C   UNL     1       6.162   4.707  17.358  0.00  0.00    +0.000 A 
ATOM     15  C   UNL     1       7.592   4.431  17.007  0.00  0.00    +0.000 C 
ATOM     16  N   UNL     1       5.738   4.918  18.624  0.00  0.00    +0.000 NA
ATOM     17  C   UNL     1       4.383   4.903  18.803  0.00  0.00    +0.000 A 
ATOM     18  C   UNL     1       3.721   5.480  19.897  0.00  0.00    +0.000 A 
ENDBRANCH   4   7
BRANCH   1  23
ATOM     19  C   UNL     1      -0.979  11.178  19.994  0.00  0.00    +0.000 A 
ATOM     20  C   UNL     1      -1.191  11.966  21.125  0.00  0.00    +0.000 A 
ATOM     21  C   UNL     1      -0.860  11.481  22.388  0.00  0.00    +0.000 A 
ATOM     22  C   UNL     1      -0.322  10.200  22.530  0.00  0.00    +0.000 A 
ATOM     23  C   UNL     1      -0.111   9.380  21.416  0.00  0.00    +0.000 A 
ATOM     24  C   UNL     1      -0.437   9.889  20.141  0.00  0.00    +0.000 A 
BRANCH  19  26
ATOM     25  C   UNL     1      -2.631  11.538  18.308  0.00  0.00    +0.000 C 
ATOM     26  O   UNL     1      -1.330  11.784  18.818  0.00  0.00    +0.000 OA
ENDBRANCH  19  26
ENDBRANCH   1  23
TORSDOF 3
ENDMDL
MODEL 6
REMARK VINA RESULT:      -7.4      1.895      2.589
REMARK  Name = 
REMARK  6 active torsions:
REMARK  status: ('A' for Active; 'I' for Inactive)
REMARK    1  A    between atoms: C_1  and  O_2
REMARK    2  A    between atoms: O_2  and  C_3
REMARK    3  A    between atoms: C_7  and  N_8
REMARK    4  A    between atoms: N_11  and  C_12
REMARK    5  A    between atoms: C_17  and  C_18
REMARK    6  A    between atoms: C_19  and  C_20
REMARK                            x       y       z     vdW  Elec       q    Type
REMARK                         _______ _______ _______ _____ _____    ______ ____
ROOT
ATOM      1  N   UNL     1       9.032  10.852  17.883  0.00  0.00    +0.000 N 
ATOM      2  C   UNL     1       8.574   9.631  18.365  0.00  0.00    +0.000 C 
ATOM      3  O   UNL     1       8.903   9.104  19.420  0.00  0.00    +0.000 OA
ATOM      4  N   UNL     1       7.727   9.023  17.423  0.00  0.00    +0.000 N 
ATOM      5  H   UNL     1       8.511  11.252  17.119  0.00  0.00    +0.000 HD
ATOM      6  H   UNL     1       8.026   9.248  16.484  0.00  0.00    +0.000 HD
ENDROOT
BRANCH   4   7
ATOM      7  C   UNL     1       7.360   7.660  17.594  0.00  0.00    +0.000 A 
ATOM      8  C   UNL     1       8.145   6.890  18.445  0.00  0.00    +0.000 A 
ATOM      9  C   UNL     1       7.597   5.731  18.987  0.00  0.00    +0.000 A 
ATOM     10  C   UNL     1       6.334   5.307  18.623  0.00  0.00    +0.000 A 
ATOM     11  N   UNL     1       5.650   4.487  19.429  0.00  0.00    +0.000 NA
ATOM     12  C   UNL     1       4.370   4.272  19.062  0.00  0.00    +0.000 A 
ATOM     13  C   UNL     1       3.351   5.077  19.873  0.00  0.00    +0.000 C 
ATOM     14  C   UNL     1       4.066   4.277  17.717  0.00  0.00    +0.000 A 
ATOM     15  C   UNL     1       3.055   3.293  17.214  0.00  0.00    +0.000 C 
ATOM     16  N   UNL     1       4.642   5.214  16.930  0.00  0.00    +0.000 NA
ATOM     17  C   UNL     1       5.718   5.860  17.472  0.00  0.00    +0.000 A 
ATOM     18  C   UNL     1       6.202   7.101  17.032  0.00  0.00    +0.000 A 
ENDBRANCH   4   7
BRANCH   1  23
ATOM     19  C   UNL     1      10.691  13.294  20.165  0.00  0.00    +0.000 A 
ATOM     20  C   UNL     1      11.967  13.376  19.607  0.00  0.00    +0.000 A 
ATOM     21  C   UNL     1      12.286  12.630  18.474  0.00  0.00    +0.000 A 
ATOM     22  C   UNL     1      11.332  11.791  17.896  0.00  0.00    +0.000 A 
ATOM     23  C   UNL     1      10.048  11.675  18.439  0.00  0.00    +0.000 A 
ATOM     24  C   UNL     1       9.734  12.447  19.578  0.00  0.00    +0.000 A 
BRANCH  19  26
ATOM     25  C   UNL     1      10.320  15.483  21.045  0.00  0.00    +0.000 C 
ATOM     26  O   UNL     1      10.509  14.093  21.261  0.00  0.00    +0.000 OA
ENDBRANCH  19  26
ENDBRANCH   1  23
TORSDOF 3
ENDMDL
MODEL 7
REMARK VINA RESULT:      -7.4      6.370      9.215
REMARK  Name = 
REMARK  6 active torsions:
REMARK  status: ('A' for Active; 'I' for Inactive)
REMARK    1  A    between atoms: C_1  and  O_2
REMARK    2  A    between atoms: O_2  and  C_3
REMARK    3  A    between atoms: C_7  and  N_8
REMARK    4  A    between atoms: N_11  and  C_12
REMARK    5  A    between atoms: C_17  and  C_18
REMARK    6  A    between atoms: C_19  and  C_20
REMARK                            x       y       z     vdW  Elec       q    Type
REMARK                         _______ _______ _______ _____ _____    ______ ____
ROOT
ATOM      1  N   UNL     1       2.938   7.545  17.653  0.00  0.00    +0.000 N 
ATOM      2  C   UNL     1       2.211   8.395  18.479  0.00  0.00    +0.000 C 
ATOM      3  O   UNL     1       1.864   8.159  19.629  0.00  0.00    +0.000 OA
ATOM      4  N   UNL     1       1.841   9.556  17.779  0.00  0.00    +0.000 N 
ATOM      5  H   UNL     1       3.332   7.961  16.824  0.00  0.00    +0.000 HD
ATOM      6  H   UNL     1       1.674   9.342  16.806  0.00  0.00    +0.000 HD
ENDROOT
BRANCH   4   7
ATOM      7  C   UNL     1       0.876  10.433  18.345  0.00  0.00    +0.000 A 
ATOM      8  C   UNL     1      -0.449  10.255  17.963  0.00  0.00    +0.000 A 
ATOM      9  C   UNL     1      -1.451  10.755  18.791  0.00  0.00    +0.000 A 
ATOM     10  C   UNL     1      -1.139  11.487  19.919  0.00  0.00    +0.000 A 
ATOM     11  N   UNL     1      -2.027  11.585  20.915  0.00  0.00    +0.000 NA
ATOM     12  C   UNL     1      -1.558  12.176  22.034  0.00  0.00    +0.000 A 
ATOM     13  C   UNL     1      -1.196  11.191  23.148  0.00  0.00    +0.000 C 
ATOM     14  C   UNL     1      -0.607  13.165  21.900  0.00  0.00    +0.000 A 
ATOM     15  C   UNL     1      -0.680  14.348  22.817  0.00  0.00    +0.000 C 
ATOM     16  N   UNL     1       0.384  12.988  20.999  0.00  0.00    +0.000 NA
ATOM     17  C   UNL     1       0.173  12.003  20.075  0.00  0.00    +0.000 A 
ATOM     18  C   UNL     1       1.187  11.383  19.329  0.00  0.00    +0.000 A 
ENDBRANCH   4   7
BRANCH   1  23
ATOM     19  C   UNL     1       5.135   4.623  18.394  0.00  0.00    +0.000 A 
ATOM     20  C   UNL     1       4.213   3.576  18.409  0.00  0.00    +0.000 A 
ATOM     21  C   UNL     1       2.863   3.827  18.172  0.00  0.00    +0.000 A 
ATOM     22  C   UNL     1       2.425   5.130  17.925  0.00  0.00    +0.000 A 
ATOM     23  C   UNL     1       3.323   6.203  17.917  0.00  0.00    +0.000 A 
ATOM     24  C   UNL     1       4.689   5.932  18.145  0.00  0.00    +0.000 A 
BRANCH  19  26
ATOM     25  C   UNL     1       7.421   4.656  17.705  0.00  0.00    +0.000 C 
ATOM     26  O   UNL     1       6.426   4.232  18.624  0.00  0.00    +0.000 OA
ENDBRANCH  19  26
ENDBRANCH   1  23
TORSDOF 3
ENDMDL
MODEL 8
REMARK VINA RESULT:      -7.4      6.420      9.760
REMARK  Name = 
REMARK  6 active torsions:
REMARK  status: ('A' for Active; 'I' for Inactive)
REMARK    1  A    between atoms: C_1  and  O_2
REMARK    2  A    between atoms: O_2  and  C_3
REMARK    3  A    between atoms: C_7  and  N_8
REMARK    4  A    between atoms: N_11  and  C_12
REMARK    5  A    between atoms: C_17  and  C_18
REMARK    6  A    between atoms: C_19  and  C_20
REMARK                            x       y       z     vdW  Elec       q    Type
REMARK                         _______ _______ _______ _____ _____    ______ ____
ROOT
ATOM      1  N   UNL     1       2.974   7.234  17.773  0.00  0.00    +0.000 N 
ATOM      2  C   UNL     1       2.246   8.120  18.560  0.00  0.00    +0.000 C 
ATOM      3  O   UNL     1       1.834   7.905  19.693  0.00  0.00    +0.000 OA
ATOM      4  N   UNL     1       1.961   9.292  17.839  0.00  0.00    +0.000 N 
ATOM      5  H   UNL     1       3.426   7.629  16.963  0.00  0.00    +0.000 HD
ATOM      6  H   UNL     1       1.831   9.079  16.860  0.00  0.00    +0.000 HD
ENDROOT
BRANCH   4   7
ATOM      7  C   UNL     1       1.009  10.213  18.354  0.00  0.00    +0.000 A 
ATOM      8  C   UNL     1      -0.310  10.067  17.937  0.00  0.00    +0.000 A 
ATOM      9  C   UNL     1      -1.319  10.619  18.721  0.00  0.00    +0.000 A 
ATOM     10  C   UNL     1      -1.017  11.368  19.841  0.00  0.00    +0.000 A 
ATOM     11  N   UNL     1      -1.930  11.518  20.807  0.00  0.00    +0.000 NA
ATOM     12  C   UNL     1      -1.476  12.121  21.925  0.00  0.00    +0.000 A 
ATOM     13  C   UNL     1      -1.179  11.153  23.072  0.00  0.00    +0.000 C 
ATOM     14  C   UNL     1      -0.490  13.076  21.798  0.00  0.00    +0.000 A 
ATOM     15  C   UNL     1      -0.551  14.283  22.684  0.00  0.00    +0.000 C 
ATOM     16  N   UNL     1       0.522  12.846  20.931  0.00  0.00    +0.000 NA
ATOM     17  C   UNL     1       0.306  11.846  20.025  0.00  0.00    +0.000 A 
ATOM     18  C   UNL     1       1.321  11.176  19.325  0.00  0.00    +0.000 A 
ENDBRANCH   4   7
BRANCH   1  23
ATOM     19  C   UNL     1       2.543   3.543  18.100  0.00  0.00    +0.000 A 
ATOM     20  C   UNL     1       3.777   3.163  18.627  0.00  0.00    +0.000 A 
ATOM     21  C   UNL     1       4.756   4.121  18.881  0.00  0.00    +0.000 A 
ATOM     22  C   UNL     1       4.510   5.466  18.602  0.00  0.00    +0.000 A 
ATOM     23  C   UNL     1       3.288   5.878  18.060  0.00  0.00    +0.000 A 
ATOM     24  C   UNL     1       2.300   4.899  17.821  0.00  0.00    +0.000 A 
BRANCH  19  26
ATOM     25  C   UNL     1       0.712   2.258  18.937  0.00  0.00    +0.000 C 
ATOM     26  O   UNL     1       1.670   2.505  17.919  0.00  0.00    +0.000 OA
ENDBRANCH  19  26
ENDBRANCH   1  23
TORSDOF 3
ENDMDL
MODEL 9
REMARK VINA RESULT:      -7.3      5.434      8.337
REMARK  Name = 
REMARK  6 active torsions:
REMARK  status: ('A' for Active; 'I' for Inactive)
REMARK    1  A    between atoms: C_1  and  O_2
REMARK    2  A    between atoms: O_2  and  C_3
REMARK    3  A    between atoms: C_7  and  N_8
REMARK    4  A    between atoms: N_11  and  C_12
REMARK    5  A    between atoms: C_17  and  C_18
REMARK    6  A    between atoms: C_19  and  C_20
REMARK                            x       y       z     vdW  Elec       q    Type
REMARK                         _______ _______ _______ _____ _____    ______ ____
ROOT
ATOM      1  N   UNL     1       4.004   5.726  19.567  0.00  0.00    +0.000 N 
ATOM      2  C   UNL     1       3.071   6.736  19.360  0.00  0.00    +0.000 C 
ATOM      3  O   UNL     1       2.959   7.415  18.347  0.00  0.00    +0.000 OA
ATOM      4  N   UNL     1       2.309   6.942  20.523  0.00  0.00    +0.000 N 
ATOM      5  H   UNL     1       3.832   5.117  20.352  0.00  0.00    +0.000 HD
ATOM      6  H   UNL     1       2.871   6.774  21.345  0.00  0.00    +0.000 HD
ENDROOT
BRANCH   4   7
ATOM      7  C   UNL     1       1.484   8.095  20.620  0.00  0.00    +0.000 A 
ATOM      8  C   UNL     1       0.953   8.396  21.869  0.00  0.00    +0.000 A 
ATOM      9  C   UNL     1       0.536   9.701  22.116  0.00  0.00    +0.000 A 
ATOM     10  C   UNL     1       0.567  10.656  21.120  0.00  0.00    +0.000 A 
ATOM     11  N   UNL     1       0.594  11.954  21.442  0.00  0.00    +0.000 NA
ATOM     12  C   UNL     1       0.793  12.791  20.403  0.00  0.00    +0.000 A 
ATOM     13  C   UNL     1       2.226  13.318  20.301  0.00  0.00    +0.000 C 
ATOM     14  C   UNL     1       0.296  12.430  19.169  0.00  0.00    +0.000 A 
ATOM     15  C   UNL     1      -0.280  13.501  18.294  0.00  0.00    +0.000 C 
ATOM     16  N   UNL     1       0.414  11.141  18.778  0.00  0.00    +0.000 NA
ATOM     17  C   UNL     1       0.718  10.249  19.769  0.00  0.00    +0.000 A 
ATOM     18  C   UNL     1       1.274   8.980  19.552  0.00  0.00    +0.000 A 
ENDBRANCH   4   7
BRANCH   1  23
ATOM     19  C   UNL     1       5.794   4.350  16.597  0.00  0.00    +0.000 A 
ATOM     20  C   UNL     1       7.127   4.536  16.964  0.00  0.00    +0.000 A 
ATOM     21  C   UNL     1       7.443   5.111  18.192  0.00  0.00    +0.000 A 
ATOM     22  C   UNL     1       6.426   5.513  19.060  0.00  0.00    +0.000 A 
ATOM     23  C   UNL     1       5.080   5.353  18.717  0.00  0.00    +0.000 A 
ATOM     24  C   UNL     1       4.774   4.756  17.475  0.00  0.00    +0.000 A 
BRANCH  19  26
ATOM     25  C   UNL     1       6.503   4.146  14.326  0.00  0.00    +0.000 C 
ATOM     26  O   UNL     1       5.629   3.757  15.375  0.00  0.00    +0.000 OA
ENDBRANCH  19  26
ENDBRANCH   1  23
TORSDOF 3
ENDMDL
