MODEL 1
REMARK VINA RESULT:      -7.9      0.000      0.000
REMARK  Name = 
REMARK  9 active torsions:
REMARK  status: ('A' for Active; 'I' for Inactive)
REMARK    1  A    between atoms: C_1  and  C_2
REMARK    2  A    between atoms: C_5  and  C_6
REMARK    3  A    between atoms: C_6  and  C_7
REMARK    4  A    between atoms: C_6  and  N_11
REMARK    5  A    between atoms: C_7  and  C_8
REMARK    6  A    between atoms: C_8  and  O_10
REMARK    7  A    between atoms: C_12  and  C_14
REMARK    8  A    between atoms: C_16  and  C_17
REMARK    9  A    between atoms: C_19  and  C_20
REMARK                            x       y       z     vdW  Elec       q    Type
REMARK                         _______ _______ _______ _____ _____    ______ ____
ROOT
ATOM      1  C   UNL     1       2.880   5.924  19.564  0.00  0.00    +0.000 C 
ENDROOT
BRANCH   1   6
ATOM      2  C   UNL     1       0.151  11.106  19.796  0.00  0.00    +0.000 C 
ATOM      3  C   UNL     1       0.842   9.777  19.730  0.00  0.00    +0.000 A 
ATOM      4  C   UNL     1       1.474   9.343  18.560  0.00  0.00    +0.000 A 
ATOM      5  C   UNL     1       2.111   8.098  18.516  0.00  0.00    +0.000 A 
ATOM      6  C   UNL     1       2.136   7.255  19.640  0.00  0.00    +0.000 A 
ATOM      7  C   UNL     1       1.502   7.704  20.809  0.00  0.00    +0.000 A 
ATOM      8  C   UNL     1       0.855   8.943  20.849  0.00  0.00    +0.000 A 
ENDBRANCH   1   6
BRANCH   1   9
ATOM      9  N   UNL     1       3.794   5.855  18.432  0.00  0.00    +0.000 N 
ATOM     10  C   UNL     1       5.122   5.514  18.555  0.00  0.00    +0.000 C 
ATOM     11  O   UNL     1       5.653   5.321  19.644  0.00  0.00    +0.000 OA
ATOM     12  H   UNL     1       3.386   5.828  17.510  0.00  0.00    +0.000 HD
BRANCH  10  13
ATOM     13  C   UNL     1       5.843   5.404  17.286  0.00  0.00    +0.000 A 
ATOM     14  C   UNL     1       5.634   4.521  16.179  0.00  0.00    +0.000 A 
ATOM     15  C   UNL     1       6.555   4.856  15.212  0.00  0.00    +0.000 A 
ATOM     16  C   UNL     1       6.830   4.364  13.848  0.00  0.00    +0.000 C 
ATOM     17  O   UNL     1       7.344   5.869  15.657  0.00  0.00    +0.000 OA
ATOM     18  C   UNL     1       6.918   6.196  16.909  0.00  0.00    +0.000 A 
ATOM     19  C   UNL     1       7.656   7.296  17.565  0.00  0.00    +0.000 C 
ENDBRANCH  10  13
ENDBRANCH   1   9
BRANCH   1  20
ATOM     20  C   UNL     1       1.926   4.720  19.647  0.00  0.00    +0.000 C 
BRANCH  20  21
ATOM     21  C   UNL     1       1.857   3.913  18.372  0.00  0.00    +0.000 C 
ATOM     22  O   UNL     1       1.163   4.190  17.405  0.00  0.00    +0.000 OA
BRANCH  21  23
ATOM     23  O   UNL     1       2.707   2.859  18.362  0.00  0.00    +0.000 OA
ATOM     24  H   UNL     1       3.357   2.863  17.634  0.00  0.00    +0.000 HD
ENDBRANCH  21  23
ENDBRANCH  20  21
ENDBRANCH   1  20
TORSDOF 6
ENDMDL
MODEL 2
REMARK VINA RESULT:      -7.8      0.099      1.233
REMARK  Name = 
REMARK  9 active torsions:
REMARK  status: ('A' for Active; 'I' for Inactive)
REMARK    1  A    between atoms: C_1  and  C_2
REMARK    2  A    between atoms: C_5  and  C_6
REMARK    3  A    between atoms: C_6  and  C_7
REMARK    4  A    between atoms: C_6  and  N_11
REMARK    5  A    between atoms: C_7  and  C_8
REMARK    6  A    between atoms: C_8  and  O_10
REMARK    7  A    between atoms: C_12  and  C_14
REMARK    8  A    between atoms: C_16  and  C_17
REMARK    9  A    between atoms: C_19  and  C_20
REMARK                            x       y       z     vdW  Elec       q    Type
REMARK                         _______ _______ _______ _____ _____    ______ ____
ROOT
ATOM      1  C   UNL     1       2.871   5.904  19.550  0.00  0.00    +0.000 C 
ENDROOT
BRANCH   1   6
ATOM      2  C   UNL     1       0.005  11.000  19.975  0.00  0.00    +0.000 C 
ATOM      3  C   UNL     1       0.745   9.699  19.873  0.00  0.00    +0.000 A 
ATOM      4  C   UNL     1       0.814   8.815  20.954  0.00  0.00    +0.000 A 
ATOM      5  C   UNL     1       1.512   7.607  20.841  0.00  0.00    +0.000 A 
ATOM      6  C   UNL     1       2.158   7.251  19.645  0.00  0.00    +0.000 A 
ATOM      7  C   UNL     1       2.077   8.145  18.567  0.00  0.00    +0.000 A 
ATOM      8  C   UNL     1       1.390   9.358  18.683  0.00  0.00    +0.000 A 
ENDBRANCH   1   6
BRANCH   1   9
ATOM      9  N   UNL     1       3.784   5.831  18.418  0.00  0.00    +0.000 N 
ATOM     10  C   UNL     1       5.118   5.513  18.545  0.00  0.00    +0.000 C 
ATOM     11  O   UNL     1       5.653   5.345  19.636  0.00  0.00    +0.000 OA
ATOM     12  H   UNL     1       3.375   5.783  17.497  0.00  0.00    +0.000 HD
BRANCH  10  13
ATOM     13  C   UNL     1       5.839   5.392  17.277  0.00  0.00    +0.000 A 
ATOM     14  C   UNL     1       5.626   4.506  16.174  0.00  0.00    +0.000 A 
ATOM     15  C   UNL     1       6.549   4.832  15.206  0.00  0.00    +0.000 A 
ATOM     16  C   UNL     1       6.823   4.333  13.844  0.00  0.00    +0.000 C 
ATOM     17  O   UNL     1       7.343   5.842  15.647  0.00  0.00    +0.000 OA
ATOM     18  C   UNL     1       6.919   6.177  16.897  0.00  0.00    +0.000 A 
ATOM     19  C   UNL     1       7.662   7.276  17.549  0.00  0.00    +0.000 C 
ENDBRANCH  10  13
ENDBRANCH   1   9
BRANCH   1  20
ATOM     20  C   UNL     1       1.889   4.722  19.614  0.00  0.00    +0.000 C 
BRANCH  20  21
ATOM     21  C   UNL     1       1.954   3.815  18.407  0.00  0.00    +0.000 C 
ATOM     22  O   UNL     1       2.609   2.786  18.339  0.00  0.00    +0.000 OA
BRANCH  21  23
ATOM     23  O   UNL     1       1.147   4.216  17.397  0.00  0.00    +0.000 OA
ATOM     24  H   UNL     1       0.800   5.125  17.485  0.00  0.00    +0.000 HD
ENDBRANCH  21  23
ENDBRANCH  20  21
ENDBRANCH   1  20
TORSDOF 6
ENDMDL
MODEL 3
REMARK VINA RESULT:      -7.7      1.038      1.243
REMARK  Name = 
REMARK  9 active torsions:
REMARK  status: ('A' for Active; 'I' for Inactive)
REMARK    1  A    between atoms: C_1  and  C_2
REMARK    2  A    between atoms: C_5  and  C_6
REMARK    3  A    between atoms: C_6  and  C_7
REMARK    4  A    between atoms: C_6  and  N_11
REMARK    5  A    between atoms: C_7  and  C_8
REMARK    6  A    between atoms: C_8  and  O_10
REMARK    7  A    between atoms: C_12  and  C_14
REMARK    8  A    between atoms: C_16  and  C_17
REMARK    9  A    between atoms: C_19  and  C_20
REMARK                            x       y       z     vdW  Elec       q    Type
REMARK                         _______ _______ _______ _____ _____    ______ ____
ROOT
ATOM      1  C   UNL     1       2.930   5.943  19.713  0.00  0.00    +0.000 C 
ENDROOT
BRANCH   1   6
ATOM      2  C   UNL     1       0.043  11.044  19.792  0.00  0.00    +0.000 C 
ATOM      3  C   UNL     1       0.775   9.735  19.765  0.00  0.00    +0.000 A 
ATOM      4  C   UNL     1       1.458   9.307  18.622  0.00  0.00    +0.000 A 
ATOM      5  C   UNL     1       2.132   8.081  18.614  0.00  0.00    +0.000 A 
ATOM      6  C   UNL     1       2.145   7.252  19.749  0.00  0.00    +0.000 A 
ATOM      7  C   UNL     1       1.460   7.696  20.891  0.00  0.00    +0.000 A 
ATOM      8  C   UNL     1       0.775   8.915  20.895  0.00  0.00    +0.000 A 
ENDBRANCH   1   6
BRANCH   1   9
ATOM      9  N   UNL     1       3.802   5.843  18.552  0.00  0.00    +0.000 N 
ATOM     10  C   UNL     1       5.120   5.450  18.631  0.00  0.00    +0.000 C 
ATOM     11  O   UNL     1       5.678   5.233  19.700  0.00  0.00    +0.000 OA
ATOM     12  H   UNL     1       3.363   5.835  17.643  0.00  0.00    +0.000 HD
BRANCH  10  13
ATOM     13  C   UNL     1       5.793   5.316  17.338  0.00  0.00    +0.000 A 
ATOM     14  C   UNL     1       5.558   4.400  16.264  0.00  0.00    +0.000 A 
ATOM     15  C   UNL     1       6.435   4.722  15.254  0.00  0.00    +0.000 A 
ATOM     16  C   UNL     1       6.666   4.197  13.893  0.00  0.00    +0.000 C 
ATOM     17  O   UNL     1       7.223   5.759  15.640  0.00  0.00    +0.000 OA
ATOM     18  C   UNL     1       6.841   6.114  16.898  0.00  0.00    +0.000 A 
ATOM     19  C   UNL     1       7.585   7.243  17.496  0.00  0.00    +0.000 C 
ENDBRANCH  10  13
ENDBRANCH   1   9
BRANCH   1  20
ATOM     20  C   UNL     1       2.020   4.716  19.896  0.00  0.00    +0.000 C 
BRANCH  20  21
ATOM     21  C   UNL     1       2.582   3.683  20.845  0.00  0.00    +0.000 C 
ATOM     22  O   UNL     1       2.159   3.460  21.969  0.00  0.00    +0.000 OA
BRANCH  21  23
ATOM     23  O   UNL     1       3.586   2.954  20.303  0.00  0.00    +0.000 OA
ATOM     24  H   UNL     1       3.321   2.382  19.557  0.00  0.00    +0.000 HD
ENDBRANCH  21  23
ENDBRANCH  20  21
ENDBRANCH   1  20
TORSDOF 6
ENDMDL
MODEL 4
REMARK VINA RESULT:      -7.5      3.409      4.834
REMARK  Name = 
REMARK  9 active torsions:
REMARK  status: ('A' for Active; 'I' for Inactive)
REMARK    1  A    between atoms: C_1  and  C_2
REMARK    2  A    between atoms: C_5  and  C_6
REMARK    3  A    between atoms: C_6  and  C_7
REMARK    4  A    between atoms: C_6  and  N_11
REMARK    5  A    between atoms: C_7  and  C_8
REMARK    6  A    between atoms: C_8  and  O_10
REMARK    7  A    between atoms: C_12  and  C_14
REMARK    8  A    between atoms: C_16  and  C_17
REMARK    9  A    between atoms: C_19  and  C_20
REMARK                            x       y       z     vdW  Elec       q    Type
REMARK                         _______ _______ _______ _____ _____    ______ ____
ROOT
ATOM      1  C   UNL     1       5.850   5.139  17.688  0.00  0.00    +0.000 C 
ENDROOT
BRANCH   1   6
ATOM      2  C   UNL     1       0.764   3.852  20.304  0.00  0.00    +0.000 C 
ATOM      3  C   UNL     1       2.069   4.172  19.637  0.00  0.00    +0.000 A 
ATOM      4  C   UNL     1       2.463   3.524  18.462  0.00  0.00    +0.000 A 
ATOM      5  C   UNL     1       3.686   3.833  17.856  0.00  0.00    +0.000 A 
ATOM      6  C   UNL     1       4.545   4.799  18.405  0.00  0.00    +0.000 A 
ATOM      7  C   UNL     1       4.135   5.446  19.582  0.00  0.00    +0.000 A 
ATOM      8  C   UNL     1       2.919   5.128  20.195  0.00  0.00    +0.000 A 
ENDBRANCH   1   6
BRANCH   1   9
ATOM      9  N   UNL     1       5.859   4.697  16.301  0.00  0.00    +0.000 N 
ATOM     10  C   UNL     1       6.768   5.152  15.371  0.00  0.00    +0.000 C 
ATOM     11  O   UNL     1       7.587   6.027  15.627  0.00  0.00    +0.000 OA
ATOM     12  H   UNL     1       5.336   3.863  16.078  0.00  0.00    +0.000 HD
BRANCH  10  13
ATOM     13  C   UNL     1       6.672   4.507  14.061  0.00  0.00    +0.000 A 
ATOM     14  C   UNL     1       5.830   3.438  13.616  0.00  0.00    +0.000 A 
ATOM     15  C   UNL     1       6.099   3.237  12.281  0.00  0.00    +0.000 A 
ATOM     16  C   UNL     1       5.552   2.331  11.252  0.00  0.00    +0.000 C 
ATOM     17  O   UNL     1       7.076   4.089  11.873  0.00  0.00    +0.000 OA
ATOM     18  C   UNL     1       7.425   4.851  12.947  0.00  0.00    +0.000 A 
ATOM     19  C   UNL     1       8.481   5.856  12.699  0.00  0.00    +0.000 C 
ENDBRANCH  10  13
ENDBRANCH   1   9
BRANCH   1  20
ATOM     20  C   UNL     1       7.084   4.678  18.481  0.00  0.00    +0.000 C 
BRANCH  20  21
ATOM     21  C   UNL     1       7.785   5.797  19.214  0.00  0.00    +0.000 C 
ATOM     22  O   UNL     1       8.092   6.872  18.721  0.00  0.00    +0.000 OA
BRANCH  21  23
ATOM     23  O   UNL     1       7.994   5.526  20.524  0.00  0.00    +0.000 OA
ATOM     24  H   UNL     1       8.657   6.095  20.959  0.00  0.00    +0.000 HD
ENDBRANCH  21  23
ENDBRANCH  20  21
ENDBRANCH   1  20
TORSDOF 6
ENDMDL
MODEL 5
REMARK VINA RESULT:      -7.5      1.030      1.505
REMARK  Name = 
REMARK  9 active torsions:
REMARK  status: ('A' for Active; 'I' for Inactive)
REMARK    1  A    between atoms: C_1  and  C_2
REMARK    2  A    between atoms: C_5  and  C_6
REMARK    3  A    between atoms: C_6  and  C_7
REMARK    4  A    between atoms: C_6  and  N_11
REMARK    5  A    between atoms: C_7  and  C_8
REMARK    6  A    between atoms: C_8  and  O_10
REMARK    7  A    between atoms: C_12  and  C_14
REMARK    8  A    between atoms: C_16  and  C_17
REMARK    9  A    between atoms: C_19  and  C_20
REMARK                            x       y       z     vdW  Elec       q    Type
REMARK                         _______ _______ _______ _____ _____    ______ ____
ROOT
ATOM      1  C   UNL     1       2.920   5.601  18.973  0.00  0.00    +0.000 C 
ENDROOT
BRANCH   1   6
ATOM      2  C   UNL     1       0.428  10.810  19.982  0.00  0.00    +0.000 C 
ATOM      3  C   UNL     1       1.074   9.480  19.731  0.00  0.00    +0.000 A 
ATOM      4  C   UNL     1       1.172   8.517  20.739  0.00  0.00    +0.000 A 
ATOM      5  C   UNL     1       1.781   7.282  20.487  0.00  0.00    +0.000 A 
ATOM      6  C   UNL     1       2.304   6.976  19.219  0.00  0.00    +0.000 A 
ATOM      7  C   UNL     1       2.194   7.949  18.214  0.00  0.00    +0.000 A 
ATOM      8  C   UNL     1       1.597   9.188  18.470  0.00  0.00    +0.000 A 
ENDBRANCH   1   6
BRANCH   1   9
ATOM      9  N   UNL     1       3.906   5.611  17.902  0.00  0.00    +0.000 N 
ATOM     10  C   UNL     1       4.997   4.771  17.875  0.00  0.00    +0.000 C 
ATOM     11  O   UNL     1       5.261   4.006  18.796  0.00  0.00    +0.000 OA
ATOM     12  H   UNL     1       3.654   6.081  17.046  0.00  0.00    +0.000 HD
BRANCH  10  13
ATOM     13  C   UNL     1       5.810   4.869  16.662  0.00  0.00    +0.000 A 
ATOM     14  C   UNL     1       5.723   4.145  15.430  0.00  0.00    +0.000 A 
ATOM     15  C   UNL     1       6.693   4.648  14.593  0.00  0.00    +0.000 A 
ATOM     16  C   UNL     1       7.087   4.366  13.199  0.00  0.00    +0.000 C 
ATOM     17  O   UNL     1       7.399   5.616  15.234  0.00  0.00    +0.000 OA
ATOM     18  C   UNL     1       6.871   5.746  16.482  0.00  0.00    +0.000 A 
ATOM     19  C   UNL     1       7.507   6.768  17.341  0.00  0.00    +0.000 C 
ENDBRANCH  10  13
ENDBRANCH   1   9
BRANCH   1  20
ATOM     20  C   UNL     1       1.850   4.509  18.803  0.00  0.00    +0.000 C 
BRANCH  20  21
ATOM     21  C   UNL     1       1.842   3.490  19.918  0.00  0.00    +0.000 C 
ATOM     22  O   UNL     1       1.030   3.457  20.831  0.00  0.00    +0.000 OA
BRANCH  21  23
ATOM     23  O   UNL     1       2.803   2.546  19.783  0.00  0.00    +0.000 OA
ATOM     24  H   UNL     1       2.621   1.706  20.248  0.00  0.00    +0.000 HD
ENDBRANCH  21  23
ENDBRANCH  20  21
ENDBRANCH   1  20
TORSDOF 6
ENDMDL
MODEL 6
REMARK VINA RESULT:      -7.5      1.352      1.872
REMARK  Name = 
REMARK  9 active torsions:
REMARK  status: ('A' for Active; 'I' for Inactive)
REMARK    1  A    between atoms: C_1  and  C_2
REMARK    2  A    between atoms: C_5  and  C_6
REMARK    3  A    between atoms: C_6  and  C_7
REMARK    4  A    between atoms: C_6  and  N_11
REMARK    5  A    between atoms: C_7  and  C_8
REMARK    6  A    between atoms: C_8  and  O_10
REMARK    7  A    between atoms: C_12  and  C_14
REMARK    8  A    between atoms: C_16  and  C_17
REMARK    9  A    between atoms: C_19  and  C_20
REMARK                            x       y       z     vdW  Elec       q    Type
REMARK                         _______ _______ _______ _____ _____    ______ ____
ROOT
ATOM      1  C   UNL     1       2.859   4.990  18.258  0.00  0.00    +0.000 C 
ENDROOT
BRANCH   1   6
ATOM      2  C   UNL     1       0.869   9.954  20.659  0.00  0.00    +0.000 C 
ATOM      3  C   UNL     1       1.387   8.684  20.050  0.00  0.00    +0.000 A 
ATOM      4  C   UNL     1       1.469   7.503  20.794  0.00  0.00    +0.000 A 
ATOM      5  C   UNL     1       1.958   6.329  20.211  0.00  0.00    +0.000 A 
ATOM      6  C   UNL     1       2.374   6.303  18.869  0.00  0.00    +0.000 A 
ATOM      7  C   UNL     1       2.281   7.494  18.132  0.00  0.00    +0.000 A 
ATOM      8  C   UNL     1       1.805   8.671  18.719  0.00  0.00    +0.000 A 
ENDBRANCH   1   6
BRANCH   1   9
ATOM      9  N   UNL     1       3.952   5.180  17.314  0.00  0.00    +0.000 N 
ATOM     10  C   UNL     1       4.815   4.171  16.949  0.00  0.00    +0.000 C 
ATOM     11  O   UNL     1       4.775   3.056  17.456  0.00  0.00    +0.000 OA
ATOM     12  H   UNL     1       3.927   6.009  16.740  0.00  0.00    +0.000 HD
BRANCH  10  13
ATOM     13  C   UNL     1       5.779   4.542  15.912  0.00  0.00    +0.000 A 
ATOM     14  C   UNL     1       5.883   4.112  14.550  0.00  0.00    +0.000 A 
ATOM     15  C   UNL     1       6.937   4.794  13.987  0.00  0.00    +0.000 A 
ATOM     16  C   UNL     1       7.524   4.832  12.633  0.00  0.00    +0.000 C 
ATOM     17  O   UNL     1       7.517   5.597  14.917  0.00  0.00    +0.000 OA
ATOM     18  C   UNL     1       6.823   5.442  16.078  0.00  0.00    +0.000 A 
ATOM     19  C   UNL     1       7.303   6.249  17.220  0.00  0.00    +0.000 C 
ENDBRANCH  10  13
ENDBRANCH   1   9
BRANCH   1  20
ATOM     20  C   UNL     1       1.701   4.154  17.686  0.00  0.00    +0.000 C 
BRANCH  20  21
ATOM     21  C   UNL     1       1.399   2.911  18.489  0.00  0.00    +0.000 C 
ATOM     22  O   UNL     1       0.282   2.458  18.684  0.00  0.00    +0.000 OA
BRANCH  21  23
ATOM     23  O   UNL     1       2.512   2.282  18.934  0.00  0.00    +0.000 OA
ATOM     24  H   UNL     1       2.970   1.737  18.266  0.00  0.00    +0.000 HD
ENDBRANCH  21  23
ENDBRANCH  20  21
ENDBRANCH   1  20
TORSDOF 6
ENDMDL
MODEL 7
REMARK VINA RESULT:      -7.5      1.184      1.393
REMARK  Name = 
REMARK  9 active torsions:
REMARK  status: ('A' for Active; 'I' for Inactive)
REMARK    1  A    between atoms: C_1  and  C_2
REMARK    2  A    between atoms: C_5  and  C_6
REMARK    3  A    between atoms: C_6  and  C_7
REMARK    4  A    between atoms: C_6  and  N_11
REMARK    5  A    between atoms: C_7  and  C_8
REMARK    6  A    between atoms: C_8  and  O_10
REMARK    7  A    between atoms: C_12  and  C_14
REMARK    8  A    between atoms: C_16  and  C_17
REMARK    9  A    between atoms: C_19  and  C_20
REMARK                            x       y       z     vdW  Elec       q    Type
REMARK                         _______ _______ _______ _____ _____    ______ ____
ROOT
ATOM      1  C   UNL     1       2.667   4.836  18.421  0.00  0.00    +0.000 C 
ENDROOT
BRANCH   1   6
ATOM      2  C   UNL     1       1.005   9.911  20.838  0.00  0.00    +0.000 C 
ATOM      3  C   UNL     1       1.422   8.613  20.213  0.00  0.00    +0.000 A 
ATOM      4  C   UNL     1       1.876   8.554  18.891  0.00  0.00    +0.000 A 
ATOM      5  C   UNL     1       2.257   7.333  18.324  0.00  0.00    +0.000 A 
ATOM      6  C   UNL     1       2.199   6.140  19.063  0.00  0.00    +0.000 A 
ATOM      7  C   UNL     1       1.747   6.213  20.389  0.00  0.00    +0.000 A 
ATOM      8  C   UNL     1       1.354   7.431  20.953  0.00  0.00    +0.000 A 
ENDBRANCH   1   6
BRANCH   1   9
ATOM      9  N   UNL     1       3.714   5.042  17.430  0.00  0.00    +0.000 N 
ATOM     10  C   UNL     1       4.994   4.555  17.574  0.00  0.00    +0.000 C 
ATOM     11  O   UNL     1       5.368   3.979  18.589  0.00  0.00    +0.000 OA
ATOM     12  H   UNL     1       3.428   5.347  16.512  0.00  0.00    +0.000 HD
BRANCH  10  13
ATOM     13  C   UNL     1       5.866   4.783  16.420  0.00  0.00    +0.000 A 
ATOM     14  C   UNL     1       5.873   4.162  15.130  0.00  0.00    +0.000 A 
ATOM     15  C   UNL     1       6.864   4.768  14.393  0.00  0.00    +0.000 A 
ATOM     16  C   UNL     1       7.343   4.618  13.004  0.00  0.00    +0.000 C 
ATOM     17  O   UNL     1       7.496   5.704  15.148  0.00  0.00    +0.000 OA
ATOM     18  C   UNL     1       6.898   5.710  16.372  0.00  0.00    +0.000 A 
ATOM     19  C   UNL     1       7.447   6.678  17.345  0.00  0.00    +0.000 C 
ENDBRANCH  10  13
ENDBRANCH   1   9
BRANCH   1  20
ATOM     20  C   UNL     1       1.493   3.993  17.895  0.00  0.00    +0.000 C 
BRANCH  20  21
ATOM     21  C   UNL     1       1.568   2.537  18.291  0.00  0.00    +0.000 C 
ATOM     22  O   UNL     1       0.746   1.956  18.983  0.00  0.00    +0.000 OA
BRANCH  21  23
ATOM     23  O   UNL     1       2.623   1.891  17.742  0.00  0.00    +0.000 OA
ATOM     24  H   UNL     1       3.032   1.213  18.314  0.00  0.00    +0.000 HD
ENDBRANCH  21  23
ENDBRANCH  20  21
ENDBRANCH   1  20
TORSDOF 6
ENDMDL
MODEL 8
REMARK VINA RESULT:      -7.3      3.349      4.943
REMARK  Name = 
REMARK  9 active torsions:
REMARK  status: ('A' for Active; 'I' for Inactive)
REMARK    1  A    between atoms: C_1  and  C_2
REMARK    2  A    between atoms: C_5  and  C_6
REMARK    3  A    between atoms: C_6  and  C_7
REMARK    4  A    between atoms: C_6  and  N_11
REMARK    5  A    between atoms: C_7  and  C_8
REMARK    6  A    between atoms: C_8  and  O_10
REMARK    7  A    between atoms: C_12  and  C_14
REMARK    8  A    between atoms: C_16  and  C_17
REMARK    9  A    between atoms: C_19  and  C_20
REMARK                            x       y       z     vdW  Elec       q    Type
REMARK                         _______ _______ _______ _____ _____    ______ ____
ROOT
ATOM      1  C   UNL     1       5.437   5.467  17.450  0.00  0.00    +0.000 C 
ENDROOT
BRANCH   1   6
ATOM      2  C   UNL     1       0.735   3.516  20.358  0.00  0.00    +0.000 C 
ATOM      3  C   UNL     1       1.934   4.025  19.614  0.00  0.00    +0.000 A 
ATOM      4  C   UNL     1       2.872   4.859  20.230  0.00  0.00    +0.000 A 
ATOM      5  C   UNL     1       3.983   5.327  19.520  0.00  0.00    +0.000 A 
ATOM      6  C   UNL     1       4.188   4.971  18.176  0.00  0.00    +0.000 A 
ATOM      7  C   UNL     1       3.242   4.129  17.571  0.00  0.00    +0.000 A 
ATOM      8  C   UNL     1       2.125   3.672  18.277  0.00  0.00    +0.000 A 
ENDBRANCH   1   6
BRANCH   1   9
ATOM      9  N   UNL     1       5.666   4.774  16.190  0.00  0.00    +0.000 N 
ATOM     10  C   UNL     1       5.670   5.411  14.969  0.00  0.00    +0.000 C 
ATOM     11  O   UNL     1       5.399   6.600  14.848  0.00  0.00    +0.000 OA
ATOM     12  H   UNL     1       6.063   3.848  16.238  0.00  0.00    +0.000 HD
BRANCH  10  13
ATOM     13  C   UNL     1       6.021   4.554  13.837  0.00  0.00    +0.000 A 
ATOM     14  C   UNL     1       5.351   3.407  13.302  0.00  0.00    +0.000 A 
ATOM     15  C   UNL     1       6.069   2.991  12.204  0.00  0.00    +0.000 A 
ATOM     16  C   UNL     1       5.888   1.913  11.211  0.00  0.00    +0.000 C 
ATOM     17  O   UNL     1       7.161   3.783  12.039  0.00  0.00    +0.000 OA
ATOM     18  C   UNL     1       7.135   4.722  13.025  0.00  0.00    +0.000 A 
ATOM     19  C   UNL     1       8.249   5.693  13.009  0.00  0.00    +0.000 C 
ENDBRANCH  10  13
ENDBRANCH   1   9
BRANCH   1  20
ATOM     20  C   UNL     1       6.672   5.484  18.366  0.00  0.00    +0.000 C 
BRANCH  20  21
ATOM     21  C   UNL     1       7.667   6.566  18.019  0.00  0.00    +0.000 C 
ATOM     22  O   UNL     1       7.762   7.106  16.927  0.00  0.00    +0.000 OA
BRANCH  21  23
ATOM     23  O   UNL     1       8.429   6.946  19.072  0.00  0.00    +0.000 OA
ATOM     24  H   UNL     1       7.934   7.110  19.898  0.00  0.00    +0.000 HD
ENDBRANCH  21  23
ENDBRANCH  20  21
ENDBRANCH   1  20
TORSDOF 6
ENDMDL
MODEL 9
REMARK VINA RESULT:      -7.2      3.417      5.025
REMARK  Name = 
REMARK  9 active torsions:
REMARK  status: ('A' for Active; 'I' for Inactive)
REMARK    1  A    between atoms: C_1  and  C_2
REMARK    2  A    between atoms: C_5  and  C_6
REMARK    3  A    between atoms: C_6  and  C_7
REMARK    4  A    between atoms: C_6  and  N_11
REMARK    5  A    between atoms: C_7  and  C_8
REMARK    6  A    between atoms: C_8  and  O_10
REMARK    7  A    between atoms: C_12  and  C_14
REMARK    8  A    between atoms: C_16  and  C_17
REMARK    9  A    between atoms: C_19  and  C_20
REMARK                            x       y       z     vdW  Elec       q    Type
REMARK                         _______ _______ _______ _____ _____    ______ ____
ROOT
ATOM      1  C   UNL     1       5.540   5.262  17.442  0.00  0.00    +0.000 C 
ENDROOT
BRANCH   1   6
ATOM      2  C   UNL     1       0.883   3.251  20.379  0.00  0.00    +0.000 C 
ATOM      3  C   UNL     1       2.072   3.760  19.620  0.00  0.00    +0.000 A 
ATOM      4  C   UNL     1       1.921   4.592  18.506  0.00  0.00    +0.000 A 
ATOM      5  C   UNL     1       3.042   5.055  17.808  0.00  0.00    +0.000 A 
ATOM      6  C   UNL     1       4.343   4.700  18.205  0.00  0.00    +0.000 A 
ATOM      7  C   UNL     1       4.480   3.868  19.327  0.00  0.00    +0.000 A 
ATOM      8  C   UNL     1       3.359   3.396  20.018  0.00  0.00    +0.000 A 
ENDBRANCH   1   6
BRANCH   1   9
ATOM      9  N   UNL     1       5.753   4.600  16.163  0.00  0.00    +0.000 N 
ATOM     10  C   UNL     1       5.707   5.261  14.956  0.00  0.00    +0.000 C 
ATOM     11  O   UNL     1       5.403   6.445  14.866  0.00  0.00    +0.000 OA
ATOM     12  H   UNL     1       6.175   3.684  16.182  0.00  0.00    +0.000 HD
BRANCH  10  13
ATOM     13  C   UNL     1       6.049   4.435  13.797  0.00  0.00    +0.000 A 
ATOM     14  C   UNL     1       5.398   3.278  13.262  0.00  0.00    +0.000 A 
ATOM     15  C   UNL     1       6.095   2.904  12.135  0.00  0.00    +0.000 A 
ATOM     16  C   UNL     1       5.916   1.839  11.128  0.00  0.00    +0.000 C 
ATOM     17  O   UNL     1       7.155   3.733  11.951  0.00  0.00    +0.000 OA
ATOM     18  C   UNL     1       7.131   4.653  12.955  0.00  0.00    +0.000 A 
ATOM     19  C   UNL     1       8.214   5.659  12.924  0.00  0.00    +0.000 C 
ENDBRANCH  10  13
ENDBRANCH   1   9
BRANCH   1  20
ATOM     20  C   UNL     1       6.807   5.321  18.313  0.00  0.00    +0.000 C 
BRANCH  20  21
ATOM     21  C   UNL     1       7.666   6.535  18.051  0.00  0.00    +0.000 C 
ATOM     22  O   UNL     1       8.331   7.118  18.894  0.00  0.00    +0.000 OA
BRANCH  21  23
ATOM     23  O   UNL     1       7.690   6.898  16.747  0.00  0.00    +0.000 OA
ATOM     24  H   UNL     1       7.674   6.154  16.114  0.00  0.00    +0.000 HD
ENDBRANCH  21  23
ENDBRANCH  20  21
ENDBRANCH   1  20
TORSDOF 6
ENDMDL
