MODEL 1
REMARK VINA RESULT:      -5.6      0.000      0.000
REMARK  Name = 
REMARK  2 active torsions:
REMARK  status: ('A' for Active; 'I' for Inactive)
REMARK    1  A    between atoms: S_1  and  C_2
REMARK    2  A    between atoms: C_10  and  S_11
REMARK                            x       y       z     vdW  Elec       q    Type
REMARK                         _______ _______ _______ _____ _____    ______ ____
ROOT
ATOM      1  C   UNL     1      -1.817  11.992  19.248  0.00  0.00    +0.000 C 
ATOM      2  N   UNL     1      -0.656  12.019  19.821  0.00  0.00    +0.000 NA
ATOM      3  C   UNL     1       0.673  11.408  19.453  0.00  0.00    +0.000 C 
ATOM      4  C   UNL     1       0.915   9.868  19.674  0.00  0.00    +0.000 C 
ATOM      5  O   UNL     1       0.846   9.393  21.020  0.00  0.00    +0.000 OA
ATOM      6  C   UNL     1      -0.435   9.587  21.594  0.00  0.00    +0.000 C 
ATOM      7  C   UNL     1      -0.362  10.806  22.529  0.00  0.00    +0.000 C 
ATOM      8  N   UNL     1      -1.730  11.200  22.807  0.00  0.00    +0.000 NA
ATOM      9  C   UNL     1      -2.091  12.409  23.038  0.00  0.00    +0.000 C 
ATOM     10  N   UNL     1      -3.431  12.489  22.984  0.00  0.00    +0.000 N 
ATOM     11  C   UNL     1      -4.242  13.028  24.063  0.00  0.00    +0.000 C 
ATOM     12  C   UNL     1      -5.624  12.790  23.555  0.00  0.00    +0.000 C 
ATOM     13  O   UNL     1      -6.781  13.088  24.293  0.00  0.00    +0.000 OA
ATOM     14  C   UNL     1      -7.891  12.932  23.360  0.00  0.00    +0.000 C 
ATOM     15  C   UNL     1      -7.614  13.556  21.905  0.00  0.00    +0.000 C 
ATOM     16  O   UNL     1      -6.667  12.731  21.081  0.00  0.00    +0.000 OA
ATOM     17  C   UNL     1      -5.567  13.400  20.317  0.00  0.00    +0.000 C 
ATOM     18  C   UNL     1      -4.419  12.373  19.688  0.00  0.00    +0.000 C 
ATOM     19  N   UNL     1      -2.933  12.715  19.779  0.00  0.00    +0.000 N 
ATOM     20  H   UNL     1      -3.739  11.526  22.750  0.00  0.00    +0.000 HD
ATOM     21  H   UNL     1      -2.679  13.134  20.671  0.00  0.00    +0.000 HD
ENDROOT
BRANCH   1  22
ATOM     22  S   UNL     1      -2.048  11.077  17.772  0.00  0.00    +0.000 S 
ATOM     23  H   UNL     1      -3.322  10.714  17.978  0.00  0.00    +0.000 HD
ENDBRANCH   1  22
BRANCH   9  24
ATOM     24  S   UNL     1      -1.175  13.850  23.176  0.00  0.00    +0.000 S 
ATOM     25  H   UNL     1      -0.219  13.514  22.318  0.00  0.00    +0.000 HD
ENDBRANCH   9  24
TORSDOF 2
ENDMDL
MODEL 2
REMARK VINA RESULT:      -5.1     10.088     12.484
REMARK  Name = 
REMARK  2 active torsions:
REMARK  status: ('A' for Active; 'I' for Inactive)
REMARK    1  A    between atoms: S_1  and  C_2
REMARK    2  A    between atoms: C_10  and  S_11
REMARK                            x       y       z     vdW  Elec       q    Type
REMARK                         _______ _______ _______ _____ _____    ______ ____
ROOT
ATOM      1  C   UNL     1      10.457  12.512  19.122  0.00  0.00    +0.000 C 
ATOM      2  N   UNL     1      10.315  13.077  17.965  0.00  0.00    +0.000 NA
ATOM      3  C   UNL     1      11.292  13.381  16.857  0.00  0.00    +0.000 C 
ATOM      4  C   UNL     1      12.293  14.587  17.006  0.00  0.00    +0.000 C 
ATOM      5  O   UNL     1      11.718  15.890  17.125  0.00  0.00    +0.000 OA
ATOM      6  C   UNL     1      10.911  16.017  18.282  0.00  0.00    +0.000 C 
ATOM      7  C   UNL     1       9.437  15.924  17.852  0.00  0.00    +0.000 C 
ATOM      8  N   UNL     1       8.666  15.688  19.058  0.00  0.00    +0.000 NA
ATOM      9  C   UNL     1       7.572  15.020  19.085  0.00  0.00    +0.000 C 
ATOM     10  N   UNL     1       7.251  14.748  20.361  0.00  0.00    +0.000 N 
ATOM     11  C   UNL     1       5.967  15.087  20.952  0.00  0.00    +0.000 C 
ATOM     12  C   UNL     1       6.165  14.681  22.373  0.00  0.00    +0.000 C 
ATOM     13  O   UNL     1       5.203  14.879  23.376  0.00  0.00    +0.000 OA
ATOM     14  C   UNL     1       5.688  14.139  24.535  0.00  0.00    +0.000 C 
ATOM     15  C   UNL     1       6.277  12.686  24.183  0.00  0.00    +0.000 C 
ATOM     16  O   UNL     1       7.624  12.740  23.522  0.00  0.00    +0.000 OA
ATOM     17  C   UNL     1       7.905  11.882  22.327  0.00  0.00    +0.000 C 
ATOM     18  C   UNL     1       9.311  12.241  21.514  0.00  0.00    +0.000 C 
ATOM     19  N   UNL     1       9.339  12.284  19.987  0.00  0.00    +0.000 N 
ATOM     20  H   UNL     1       8.023  15.163  20.917  0.00  0.00    +0.000 HD
ATOM     21  H   UNL     1       8.504  12.707  19.589  0.00  0.00    +0.000 HD
ENDROOT
BRANCH   1  22
ATOM     22  S   UNL     1      12.040  11.984  19.654  0.00  0.00    +0.000 S 
ATOM     23  H   UNL     1      11.950  10.706  19.261  0.00  0.00    +0.000 HD
ENDBRANCH   1  22
BRANCH   9  24
ATOM     24  S   UNL     1       6.660  14.301  17.826  0.00  0.00    +0.000 S 
ATOM     25  H   UNL     1       6.696  15.335  16.993  0.00  0.00    +0.000 HD
ENDBRANCH   9  24
TORSDOF 2
ENDMDL
MODEL 3
REMARK VINA RESULT:      -4.9      1.517      1.614
REMARK  Name = 
REMARK  2 active torsions:
REMARK  status: ('A' for Active; 'I' for Inactive)
REMARK    1  A    between atoms: S_1  and  C_2
REMARK    2  A    between atoms: C_10  and  S_11
REMARK                            x       y       z     vdW  Elec       q    Type
REMARK                         _______ _______ _______ _____ _____    ______ ____
ROOT
ATOM      1  C   UNL     1      -2.023  12.446  18.881  0.00  0.00    +0.000 C 
ATOM      2  N   UNL     1      -1.017  13.188  19.221  0.00  0.00    +0.000 NA
ATOM      3  C   UNL     1       0.448  13.136  18.867  0.00  0.00    +0.000 C 
ATOM      4  C   UNL     1       1.378  12.059  19.540  0.00  0.00    +0.000 C 
ATOM      5  O   UNL     1       1.521  12.129  20.960  0.00  0.00    +0.000 OA
ATOM      6  C   UNL     1       0.290  11.935  21.634  0.00  0.00    +0.000 C 
ATOM      7  C   UNL     1      -0.227  13.308  22.093  0.00  0.00    +0.000 C 
ATOM      8  N   UNL     1      -1.625  13.131  22.440  0.00  0.00    +0.000 NA
ATOM      9  C   UNL     1      -2.511  14.050  22.316  0.00  0.00    +0.000 C 
ATOM     10  N   UNL     1      -3.733  13.507  22.453  0.00  0.00    +0.000 N 
ATOM     11  C   UNL     1      -4.717  13.986  23.410  0.00  0.00    +0.000 C 
ATOM     12  C   UNL     1      -5.821  12.998  23.235  0.00  0.00    +0.000 C 
ATOM     13  O   UNL     1      -6.993  13.003  24.008  0.00  0.00    +0.000 OA
ATOM     14  C   UNL     1      -7.889  12.047  23.367  0.00  0.00    +0.000 C 
ATOM     15  C   UNL     1      -7.915  12.151  21.763  0.00  0.00    +0.000 C 
ATOM     16  O   UNL     1      -6.681  11.590  21.116  0.00  0.00    +0.000 OA
ATOM     17  C   UNL     1      -6.010  12.344  20.010  0.00  0.00    +0.000 C 
ATOM     18  C   UNL     1      -4.507  11.776  19.579  0.00  0.00    +0.000 C 
ATOM     19  N   UNL     1      -3.355  12.744  19.315  0.00  0.00    +0.000 N 
ATOM     20  H   UNL     1      -3.552  12.496  22.600  0.00  0.00    +0.000 HD
ATOM     21  H   UNL     1      -3.338  13.524  19.968  0.00  0.00    +0.000 HD
ENDROOT
BRANCH   1  22
ATOM     22  S   UNL     1      -1.779  11.056  17.843  0.00  0.00    +0.000 S 
ATOM     23  H   UNL     1      -1.798  11.699  16.667  0.00  0.00    +0.000 HD
ENDBRANCH   1  22
BRANCH   9  24
ATOM     24  S   UNL     1      -2.377  15.686  21.826  0.00  0.00    +0.000 S 
ATOM     25  H   UNL     1      -2.597  16.227  23.018  0.00  0.00    +0.000 HD
ENDBRANCH   9  24
TORSDOF 2
ENDMDL
MODEL 4
REMARK VINA RESULT:      -4.9      3.791      7.213
REMARK  Name = 
REMARK  2 active torsions:
REMARK  status: ('A' for Active; 'I' for Inactive)
REMARK    1  A    between atoms: S_1  and  C_2
REMARK    2  A    between atoms: C_10  and  S_11
REMARK                            x       y       z     vdW  Elec       q    Type
REMARK                         _______ _______ _______ _____ _____    ______ ____
ROOT
ATOM      1  C   UNL     1      -2.385  14.671  20.790  0.00  0.00    +0.000 C 
ATOM      2  N   UNL     1      -2.848  13.465  20.889  0.00  0.00    +0.000 NA
ATOM      3  C   UNL     1      -3.897  12.851  21.781  0.00  0.00    +0.000 C 
ATOM      4  C   UNL     1      -3.562  12.542  23.288  0.00  0.00    +0.000 C 
ATOM      5  O   UNL     1      -2.517  11.600  23.535  0.00  0.00    +0.000 OA
ATOM      6  C   UNL     1      -1.268  12.035  23.025  0.00  0.00    +0.000 C 
ATOM      7  C   UNL     1      -0.995  11.280  21.714  0.00  0.00    +0.000 C 
ATOM      8  N   UNL     1       0.075  11.991  21.039  0.00  0.00    +0.000 NA
ATOM      9  C   UNL     1       0.199  12.049  19.764  0.00  0.00    +0.000 C 
ATOM     10  N   UNL     1       1.105  12.989  19.449  0.00  0.00    +0.000 N 
ATOM     11  C   UNL     1       2.267  12.732  18.615  0.00  0.00    +0.000 C 
ATOM     12  C   UNL     1       2.981  14.040  18.670  0.00  0.00    +0.000 C 
ATOM     13  O   UNL     1       4.223  14.270  18.059  0.00  0.00    +0.000 OA
ATOM     14  C   UNL     1       4.443  15.709  18.148  0.00  0.00    +0.000 C 
ATOM     15  C   UNL     1       3.142  16.591  17.812  0.00  0.00    +0.000 C 
ATOM     16  O   UNL     1       2.118  16.572  18.910  0.00  0.00    +0.000 OA
ATOM     17  C   UNL     1       0.670  16.389  18.577  0.00  0.00    +0.000 C 
ATOM     18  C   UNL     1      -0.323  16.093  19.878  0.00  0.00    +0.000 C 
ATOM     19  N   UNL     1      -1.408  15.021  19.803  0.00  0.00    +0.000 N 
ATOM     20  H   UNL     1       1.400  13.382  20.364  0.00  0.00    +0.000 HD
ATOM     21  H   UNL     1      -1.104  14.186  19.309  0.00  0.00    +0.000 HD
ENDROOT
BRANCH   1  22
ATOM     22  S   UNL     1      -2.973  15.929  21.859  0.00  0.00    +0.000 S 
ATOM     23  H   UNL     1      -2.371  16.970  21.266  0.00  0.00    +0.000 HD
ENDBRANCH   1  22
BRANCH   9  24
ATOM     24  S   UNL     1      -0.707  11.312  18.511  0.00  0.00    +0.000 S 
ATOM     25  H   UNL     1      -0.246  12.064  17.518  0.00  0.00    +0.000 HD
ENDBRANCH   9  24
TORSDOF 2
ENDMDL
MODEL 5
REMARK VINA RESULT:      -4.9      3.034      6.907
REMARK  Name = 
REMARK  2 active torsions:
REMARK  status: ('A' for Active; 'I' for Inactive)
REMARK    1  A    between atoms: S_1  and  C_2
REMARK    2  A    between atoms: C_10  and  S_11
REMARK                            x       y       z     vdW  Elec       q    Type
REMARK                         _______ _______ _______ _____ _____    ______ ____
ROOT
ATOM      1  C   UNL     1      -4.055  13.270  22.276  0.00  0.00    +0.000 C 
ATOM      2  N   UNL     1      -5.124  13.977  22.467  0.00  0.00    +0.000 NA
ATOM      3  C   UNL     1      -5.892  14.340  23.713  0.00  0.00    +0.000 C 
ATOM      4  C   UNL     1      -6.819  13.270  24.401  0.00  0.00    +0.000 C 
ATOM      5  O   UNL     1      -7.916  12.778  23.630  0.00  0.00    +0.000 OA
ATOM      6  C   UNL     1      -7.491  12.106  22.457  0.00  0.00    +0.000 C 
ATOM      7  C   UNL     1      -7.691  13.054  21.262  0.00  0.00    +0.000 C 
ATOM      8  N   UNL     1      -6.925  12.501  20.161  0.00  0.00    +0.000 NA
ATOM      9  C   UNL     1      -6.382  13.212  19.243  0.00  0.00    +0.000 C 
ATOM     10  N   UNL     1      -5.529  12.450  18.538  0.00  0.00    +0.000 N 
ATOM     11  C   UNL     1      -5.590  12.310  17.093  0.00  0.00    +0.000 C 
ATOM     12  C   UNL     1      -4.525  11.298  16.838  0.00  0.00    +0.000 C 
ATOM     13  O   UNL     1      -4.245  10.774  15.565  0.00  0.00    +0.000 OA
ATOM     14  C   UNL     1      -3.006  10.019  15.717  0.00  0.00    +0.000 C 
ATOM     15  C   UNL     1      -1.893  10.762  16.606  0.00  0.00    +0.000 C 
ATOM     16  O   UNL     1      -2.206  10.748  18.075  0.00  0.00    +0.000 OA
ATOM     17  C   UNL     1      -2.039  11.996  18.886  0.00  0.00    +0.000 C 
ATOM     18  C   UNL     1      -2.688  11.936  20.416  0.00  0.00    +0.000 C 
ATOM     19  N   UNL     1      -3.480  13.118  20.973  0.00  0.00    +0.000 N 
ATOM     20  H   UNL     1      -5.579  11.518  18.992  0.00  0.00    +0.000 HD
ATOM     21  H   UNL     1      -4.082  13.552  20.278  0.00  0.00    +0.000 HD
ENDROOT
BRANCH   1  22
ATOM     22  S   UNL     1      -3.261  12.494  23.631  0.00  0.00    +0.000 S 
ATOM     23  H   UNL     1      -2.000  12.593  23.186  0.00  0.00    +0.000 HD
ENDBRANCH   1  22
BRANCH   9  24
ATOM     24  S   UNL     1      -6.423  14.900  18.954  0.00  0.00    +0.000 S 
ATOM     25  H   UNL     1      -5.980  14.859  17.704  0.00  0.00    +0.000 HD
ENDBRANCH   9  24
TORSDOF 2
ENDMDL
MODEL 6
REMARK VINA RESULT:      -4.8      8.661     12.951
REMARK  Name = 
REMARK  2 active torsions:
REMARK  status: ('A' for Active; 'I' for Inactive)
REMARK    1  A    between atoms: S_1  and  C_2
REMARK    2  A    between atoms: C_10  and  S_11
REMARK                            x       y       z     vdW  Elec       q    Type
REMARK                         _______ _______ _______ _____ _____    ______ ____
ROOT
ATOM      1  C   UNL     1       6.210  14.839  21.781  0.00  0.00    +0.000 C 
ATOM      2  N   UNL     1       5.587  15.793  21.165  0.00  0.00    +0.000 NA
ATOM      3  C   UNL     1       4.175  16.313  21.261  0.00  0.00    +0.000 C 
ATOM      4  C   UNL     1       2.996  15.503  20.602  0.00  0.00    +0.000 C 
ATOM      5  O   UNL     1       3.047  15.331  19.184  0.00  0.00    +0.000 OA
ATOM      6  C   UNL     1       4.189  14.600  18.772  0.00  0.00    +0.000 C 
ATOM      7  C   UNL     1       5.220  15.596  18.213  0.00  0.00    +0.000 C 
ATOM      8  N   UNL     1       6.486  14.891  18.145  0.00  0.00    +0.000 NA
ATOM      9  C   UNL     1       7.626  15.460  18.286  0.00  0.00    +0.000 C 
ATOM     10  N   UNL     1       8.573  14.520  18.446  0.00  0.00    +0.000 N 
ATOM     11  C   UNL     1       9.764  14.435  17.616  0.00  0.00    +0.000 C 
ATOM     12  C   UNL     1      10.404  13.188  18.126  0.00  0.00    +0.000 C 
ATOM     13  O   UNL     1      11.575  12.641  17.577  0.00  0.00    +0.000 OA
ATOM     14  C   UNL     1      11.984  11.587  18.499  0.00  0.00    +0.000 C 
ATOM     15  C   UNL     1      11.868  11.995  20.049  0.00  0.00    +0.000 C 
ATOM     16  O   UNL     1      10.451  12.026  20.546  0.00  0.00    +0.000 OA
ATOM     17  C   UNL     1       9.983  13.168  21.395  0.00  0.00    +0.000 C 
ATOM     18  C   UNL     1       8.339  13.242  21.635  0.00  0.00    +0.000 C 
ATOM     19  N   UNL     1       7.597  14.574  21.547  0.00  0.00    +0.000 N 
ATOM     20  H   UNL     1       8.053  13.622  18.421  0.00  0.00    +0.000 HD
ATOM     21  H   UNL     1       7.938  15.166  20.794  0.00  0.00    +0.000 HD
ENDROOT
BRANCH   1  22
ATOM     22  S   UNL     1       5.362  13.851  22.954  0.00  0.00    +0.000 S 
ATOM     23  H   UNL     1       5.106  14.812  23.853  0.00  0.00    +0.000 HD
ENDBRANCH   1  22
BRANCH   9  24
ATOM     24  S   UNL     1       8.044  17.107  18.498  0.00  0.00    +0.000 S 
ATOM     25  H   UNL     1       9.026  17.139  17.605  0.00  0.00    +0.000 HD
ENDBRANCH   9  24
TORSDOF 2
ENDMDL
MODEL 7
REMARK VINA RESULT:      -4.8      3.041      5.624
REMARK  Name = 
REMARK  2 active torsions:
REMARK  status: ('A' for Active; 'I' for Inactive)
REMARK    1  A    between atoms: S_1  and  C_2
REMARK    2  A    between atoms: C_10  and  S_11
REMARK                            x       y       z     vdW  Elec       q    Type
REMARK                         _______ _______ _______ _____ _____    ______ ____
ROOT
ATOM      1  C   UNL     1      -4.409  14.155  23.503  0.00  0.00    +0.000 C 
ATOM      2  N   UNL     1      -3.350  14.098  24.247  0.00  0.00    +0.000 NA
ATOM      3  C   UNL     1      -2.878  14.936  25.408  0.00  0.00    +0.000 C 
ATOM      4  C   UNL     1      -2.272  16.365  25.146  0.00  0.00    +0.000 C 
ATOM      5  O   UNL     1      -1.078  16.424  24.362  0.00  0.00    +0.000 OA
ATOM      6  C   UNL     1      -1.272  15.929  23.049  0.00  0.00    +0.000 C 
ATOM      7  C   UNL     1      -0.683  14.510  22.980  0.00  0.00    +0.000 C 
ATOM      8  N   UNL     1      -1.209  13.899  21.774  0.00  0.00    +0.000 NA
ATOM      9  C   UNL     1      -1.429  12.642  21.649  0.00  0.00    +0.000 C 
ATOM     10  N   UNL     1      -2.160  12.427  20.543  0.00  0.00    +0.000 N 
ATOM     11  C   UNL     1      -1.760  11.513  19.486  0.00  0.00    +0.000 C 
ATOM     12  C   UNL     1      -2.833  11.726  18.473  0.00  0.00    +0.000 C 
ATOM     13  O   UNL     1      -2.847  11.100  17.217  0.00  0.00    +0.000 OA
ATOM     14  C   UNL     1      -4.160  11.388  16.649  0.00  0.00    +0.000 C 
ATOM     15  C   UNL     1      -5.370  11.243  17.697  0.00  0.00    +0.000 C 
ATOM     16  O   UNL     1      -5.432  12.372  18.686  0.00  0.00    +0.000 OA
ATOM     17  C   UNL     1      -5.656  12.081  20.138  0.00  0.00    +0.000 C 
ATOM     18  C   UNL     1      -5.414  13.368  21.162  0.00  0.00    +0.000 C 
ATOM     19  N   UNL     1      -4.659  13.187  22.478  0.00  0.00    +0.000 N 
ATOM     20  H   UNL     1      -2.325  13.375  20.154  0.00  0.00    +0.000 HD
ATOM     21  H   UNL     1      -3.861  12.563  22.392  0.00  0.00    +0.000 HD
ENDROOT
BRANCH   1  22
ATOM     22  S   UNL     1      -5.593  15.422  23.756  0.00  0.00    +0.000 S 
ATOM     23  H   UNL     1      -4.766  16.349  24.259  0.00  0.00    +0.000 HD
ENDBRANCH   1  22
BRANCH   9  24
ATOM     24  S   UNL     1      -1.133  11.336  22.718  0.00  0.00    +0.000 S 
ATOM     25  H   UNL     1      -1.539  10.369  21.904  0.00  0.00    +0.000 HD
ENDBRANCH   9  24
TORSDOF 2
ENDMDL
MODEL 8
REMARK VINA RESULT:      -4.8      2.645      6.907
REMARK  Name = 
REMARK  2 active torsions:
REMARK  status: ('A' for Active; 'I' for Inactive)
REMARK    1  A    between atoms: S_1  and  C_2
REMARK    2  A    between atoms: C_10  and  S_11
REMARK                            x       y       z     vdW  Elec       q    Type
REMARK                         _______ _______ _______ _____ _____    ______ ____
ROOT
ATOM      1  C   UNL     1      -4.432  14.507  22.769  0.00  0.00    +0.000 C 
ATOM      2  N   UNL     1      -5.712  14.636  22.616  0.00  0.00    +0.000 NA
ATOM      3  C   UNL     1      -6.824  14.942  23.586  0.00  0.00    +0.000 C 
ATOM      4  C   UNL     1      -7.341  13.821  24.564  0.00  0.00    +0.000 C 
ATOM      5  O   UNL     1      -7.917  12.659  23.964  0.00  0.00    +0.000 OA
ATOM      6  C   UNL     1      -6.990  11.957  23.155  0.00  0.00    +0.000 C 
ATOM      7  C   UNL     1      -7.292  12.286  21.683  0.00  0.00    +0.000 C 
ATOM      8  N   UNL     1      -6.134  11.866  20.917  0.00  0.00    +0.000 NA
ATOM      9  C   UNL     1      -5.749  12.439  19.836  0.00  0.00    +0.000 C 
ATOM     10  N   UNL     1      -4.516  12.006  19.520  0.00  0.00    +0.000 N 
ATOM     11  C   UNL     1      -4.179  11.428  18.230  0.00  0.00    +0.000 C 
ATOM     12  C   UNL     1      -2.758  11.026  18.437  0.00  0.00    +0.000 C 
ATOM     13  O   UNL     1      -1.998  10.347  17.471  0.00  0.00    +0.000 OA
ATOM     14  C   UNL     1      -0.627  10.360  17.970  0.00  0.00    +0.000 C 
ATOM     15  C   UNL     1      -0.172  11.773  18.587  0.00  0.00    +0.000 C 
ATOM     16  O   UNL     1      -0.777  12.051  19.933  0.00  0.00    +0.000 OA
ATOM     17  C   UNL     1      -1.346  13.404  20.230  0.00  0.00    +0.000 C 
ATOM     18  C   UNL     1      -2.241  13.502  21.629  0.00  0.00    +0.000 C 
ATOM     19  N   UNL     1      -3.564  14.266  21.656  0.00  0.00    +0.000 N 
ATOM     20  H   UNL     1      -4.269  11.349  20.285  0.00  0.00    +0.000 HD
ATOM     21  H   UNL     1      -4.116  14.128  20.812  0.00  0.00    +0.000 HD
ENDROOT
BRANCH   1  22
ATOM     22  S   UNL     1      -3.718  14.651  24.362  0.00  0.00    +0.000 S 
ATOM     23  H   UNL     1      -4.311  15.798  24.726  0.00  0.00    +0.000 HD
ENDBRANCH   1  22
BRANCH   9  24
ATOM     24  S   UNL     1      -6.435  13.726  18.938  0.00  0.00    +0.000 S 
ATOM     25  H   UNL     1      -5.304  14.383  18.712  0.00  0.00    +0.000 HD
ENDBRANCH   9  24
TORSDOF 2
ENDMDL
MODEL 9
REMARK VINA RESULT:      -4.7      9.896     12.252
REMARK  Name = 
REMARK  2 active torsions:
REMARK  status: ('A' for Active; 'I' for Inactive)
REMARK    1  A    between atoms: S_1  and  C_2
REMARK    2  A    between atoms: C_10  and  S_11
REMARK                            x       y       z     vdW  Elec       q    Type
REMARK                         _______ _______ _______ _____ _____    ______ ____
ROOT
ATOM      1  C   UNL     1      10.160  13.467  19.427  0.00  0.00    +0.000 C 
ATOM      2  N   UNL     1       9.836  14.299  18.489  0.00  0.00    +0.000 NA
ATOM      3  C   UNL     1      10.653  15.028  17.452  0.00  0.00    +0.000 C 
ATOM      4  C   UNL     1      11.516  16.278  17.871  0.00  0.00    +0.000 C 
ATOM      5  O   UNL     1      10.806  17.404  18.391  0.00  0.00    +0.000 OA
ATOM      6  C   UNL     1      10.111  17.096  19.587  0.00  0.00    +0.000 C 
ATOM      7  C   UNL     1       8.623  16.916  19.244  0.00  0.00    +0.000 C 
ATOM      8  N   UNL     1       8.011  16.255  20.381  0.00  0.00    +0.000 NA
ATOM      9  C   UNL     1       7.011  15.456  20.288  0.00  0.00    +0.000 C 
ATOM     10  N   UNL     1       6.856  14.804  21.453  0.00  0.00    +0.000 N 
ATOM     11  C   UNL     1       5.607  14.786  22.197  0.00  0.00    +0.000 C 
ATOM     12  C   UNL     1       5.995  14.040  23.429  0.00  0.00    +0.000 C 
ATOM     13  O   UNL     1       5.123  13.819  24.506  0.00  0.00    +0.000 OA
ATOM     14  C   UNL     1       5.806  12.868  25.375  0.00  0.00    +0.000 C 
ATOM     15  C   UNL     1       6.524  11.664  24.588  0.00  0.00    +0.000 C 
ATOM     16  O   UNL     1       7.781  12.087  23.884  0.00  0.00    +0.000 OA
ATOM     17  C   UNL     1       8.039  11.634  22.480  0.00  0.00    +0.000 C 
ATOM     18  C   UNL     1       9.303  12.396  21.713  0.00  0.00    +0.000 C 
ATOM     19  N   UNL     1       9.171  12.856  20.262  0.00  0.00    +0.000 N 
ATOM     20  H   UNL     1       7.626  15.158  22.052  0.00  0.00    +0.000 HD
ATOM     21  H   UNL     1       8.255  13.249  20.055  0.00  0.00    +0.000 HD
ENDROOT
BRANCH   1  22
ATOM     22  S   UNL     1      11.841  13.043  19.685  0.00  0.00    +0.000 S 
ATOM     23  H   UNL     1      12.208  14.146  20.354  0.00  0.00    +0.000 HD
ENDBRANCH   1  22
BRANCH   9  24
ATOM     24  S   UNL     1       6.068  14.986  18.938  0.00  0.00    +0.000 S 
ATOM     25  H   UNL     1       6.655  13.813  18.733  0.00  0.00    +0.000 HD
ENDBRANCH   9  24
TORSDOF 2
ENDMDL
