MODEL 1
REMARK VINA RESULT:      -8.1      0.000      0.000
REMARK  Name = 
REMARK  6 active torsions:
REMARK  status: ('A' for Active; 'I' for Inactive)
REMARK    1  A    between atoms: C_1  and  C_2
REMARK    2  A    between atoms: N_4  and  C_5
REMARK    3  A    between atoms: C_10  and  N_11
REMARK    4  A    between atoms: C_17  and  N_18
REMARK    5  A    between atoms: N_18  and  C_19
REMARK    6  A    between atoms: C_21  and  C_22
REMARK                            x       y       z     vdW  Elec       q    Type
REMARK                         _______ _______ _______ _____ _____    ______ ____
ROOT
ATOM      1  N   UNL     1       6.320   4.014  18.579  0.00  0.00    +0.000 N 
ATOM      2  C   UNL     1       5.209   3.773  19.389  0.00  0.00    +0.000 A 
ATOM      3  N   UNL     1       5.101   2.574  19.968  0.00  0.00    +0.000 NA
ATOM      4  C   UNL     1       3.970   2.337  20.667  0.00  0.00    +0.000 A 
ATOM      5  C   UNL     1       2.911   3.213  20.736  0.00  0.00    +0.000 A 
ATOM      6 BR   UNL     1       1.303   2.709  21.583  0.00  0.00    +0.000 Br
ATOM      7  C   UNL     1       3.084   4.418  20.076  0.00  0.00    +0.000 A 
ATOM      8  N   UNL     1       4.252   4.708  19.468  0.00  0.00    +0.000 NA
ATOM      9  H   UNL     1       6.478   3.199  17.996  0.00  0.00    +0.000 HD
ENDROOT
BRANCH   1  15
ATOM     10  C   UNL     1       7.909   7.375  18.156  0.00  0.00    +0.000 A 
ATOM     11  C   UNL     1       7.510   7.686  16.856  0.00  0.00    +0.000 A 
ATOM     12  C   UNL     1       6.693   6.812  16.136  0.00  0.00    +0.000 A 
ATOM     13  C   UNL     1       6.276   5.611  16.709  0.00  0.00    +0.000 A 
ATOM     14 CL   UNL     1       5.191   4.606  15.815  0.00  0.00    +0.000 Cl
ATOM     15  C   UNL     1       6.707   5.242  17.994  0.00  0.00    +0.000 A 
ATOM     16  C   UNL     1       7.546   6.133  18.692  0.00  0.00    +0.000 A 
BRANCH  10  20
ATOM     17  C   UNL     1       9.609  10.280  19.862  0.00  0.00    +0.000 C 
ATOM     18  C   UNL     1       8.809   9.616  18.772  0.00  0.00    +0.000 C 
ATOM     19  O   UNL     1       8.384  10.273  17.828  0.00  0.00    +0.000 OA
ATOM     20  N   UNL     1       8.642   8.257  18.979  0.00  0.00    +0.000 N 
ATOM     21  H   UNL     1       8.946   7.892  19.874  0.00  0.00    +0.000 HD
ENDBRANCH  10  20
ENDBRANCH   1  15
BRANCH   7  22
ATOM     22  N   UNL     1       2.017   5.351  19.955  0.00  0.00    +0.000 N 
ATOM     23  H   UNL     1       1.114   4.891  19.862  0.00  0.00    +0.000 HD
BRANCH  22  24
ATOM     24  C   UNL     1       2.179   6.568  19.365  0.00  0.00    +0.000 A 
ATOM     25  C   UNL     1       1.825   7.839  19.755  0.00  0.00    +0.000 A 
ATOM     26  C   UNL     1       2.027   8.626  18.599  0.00  0.00    +0.000 A 
ATOM     27  N   UNL     1       2.613   7.949  17.610  0.00  0.00    +0.000 NA
ATOM     28  N   UNL     1       2.715   6.714  18.110  0.00  0.00    +0.000 N 
ATOM     29  H   UNL     1       3.054   5.964  17.517  0.00  0.00    +0.000 HD
BRANCH  26  30
ATOM     30  C   UNL     1       1.542  10.060  18.450  0.00  0.00    +0.000 C 
ATOM     31  C   UNL     1       0.055  10.354  18.469  0.00  0.00    +0.000 C 
ATOM     32  C   UNL     1       0.876  10.686  19.667  0.00  0.00    +0.000 C 
ENDBRANCH  26  30
ENDBRANCH  22  24
ENDBRANCH   7  22
TORSDOF 5
ENDMDL
MODEL 2
REMARK VINA RESULT:      -7.9      3.649      5.650
REMARK  Name = 
REMARK  6 active torsions:
REMARK  status: ('A' for Active; 'I' for Inactive)
REMARK    1  A    between atoms: C_1  and  C_2
REMARK    2  A    between atoms: N_4  and  C_5
REMARK    3  A    between atoms: C_10  and  N_11
REMARK    4  A    between atoms: C_17  and  N_18
REMARK    5  A    between atoms: N_18  and  C_19
REMARK    6  A    between atoms: C_21  and  C_22
REMARK                            x       y       z     vdW  Elec       q    Type
REMARK                         _______ _______ _______ _____ _____    ______ ____
ROOT
ATOM      1  N   UNL     1       1.869   6.402  20.881  0.00  0.00    +0.000 N 
ATOM      2  C   UNL     1       1.512   7.744  21.019  0.00  0.00    +0.000 A 
ATOM      3  N   UNL     1       1.084   8.162  22.213  0.00  0.00    +0.000 NA
ATOM      4  C   UNL     1       0.655   9.441  22.292  0.00  0.00    +0.000 A 
ATOM      5  C   UNL     1       0.557  10.286  21.210  0.00  0.00    +0.000 A 
ATOM      6 BR   UNL     1      -0.230  11.990  21.394  0.00  0.00    +0.000 Br
ATOM      7  C   UNL     1       0.982   9.766  20.000  0.00  0.00    +0.000 A 
ATOM      8  N   UNL     1       1.514   8.527  19.932  0.00  0.00    +0.000 NA
ATOM      9  H   UNL     1       1.174   5.833  21.352  0.00  0.00    +0.000 HD
ENDROOT
BRANCH   1  15
ATOM     10  C   UNL     1       4.235   5.777  18.051  0.00  0.00    +0.000 A 
ATOM     11  C   UNL     1       3.730   4.576  17.553  0.00  0.00    +0.000 A 
ATOM     12  C   UNL     1       2.595   3.993  18.123  0.00  0.00    +0.000 A 
ATOM     13  C   UNL     1       1.962   4.605  19.204  0.00  0.00    +0.000 A 
ATOM     14 CL   UNL     1       0.509   3.896  19.815  0.00  0.00    +0.000 Cl
ATOM     15  C   UNL     1       2.479   5.785  19.764  0.00  0.00    +0.000 A 
ATOM     16  C   UNL     1       3.635   6.342  19.184  0.00  0.00    +0.000 A 
BRANCH  10  20
ATOM     17  C   UNL     1       7.535   7.281  17.009  0.00  0.00    +0.000 C 
ATOM     18  C   UNL     1       6.625   6.467  17.891  0.00  0.00    +0.000 C 
ATOM     19  O   UNL     1       7.071   5.888  18.875  0.00  0.00    +0.000 OA
ATOM     20  N   UNL     1       5.309   6.476  17.458  0.00  0.00    +0.000 N 
ATOM     21  H   UNL     1       5.130   6.898  16.554  0.00  0.00    +0.000 HD
ENDBRANCH  10  20
ENDBRANCH   1  15
BRANCH   7  22
ATOM     22  N   UNL     1       0.805  10.485  18.785  0.00  0.00    +0.000 N 
ATOM     23  H   UNL     1       1.435  11.280  18.716  0.00  0.00    +0.000 HD
BRANCH  22  24
ATOM     24  C   UNL     1      -0.401  10.566  18.157  0.00  0.00    +0.000 A 
ATOM     25  C   UNL     1      -1.211   9.613  17.585  0.00  0.00    +0.000 A 
ATOM     26  C   UNL     1      -2.178  10.361  16.875  0.00  0.00    +0.000 A 
ATOM     27  N   UNL     1      -2.089  11.672  17.107  0.00  0.00    +0.000 NA
ATOM     28  N   UNL     1      -1.022  11.764  17.906  0.00  0.00    +0.000 N 
ATOM     29  H   UNL     1      -0.675  12.681  18.167  0.00  0.00    +0.000 HD
BRANCH  26  30
ATOM     30  C   UNL     1      -3.151   9.759  15.873  0.00  0.00    +0.000 C 
ATOM     31  C   UNL     1      -3.976  10.671  14.987  0.00  0.00    +0.000 C 
ATOM     32  C   UNL     1      -2.818   9.942  14.399  0.00  0.00    +0.000 C 
ENDBRANCH  26  30
ENDBRANCH  22  24
ENDBRANCH   7  22
TORSDOF 5
ENDMDL
MODEL 3
REMARK VINA RESULT:      -7.6      3.616      5.709
REMARK  Name = 
REMARK  6 active torsions:
REMARK  status: ('A' for Active; 'I' for Inactive)
REMARK    1  A    between atoms: C_1  and  C_2
REMARK    2  A    between atoms: N_4  and  C_5
REMARK    3  A    between atoms: C_10  and  N_11
REMARK    4  A    between atoms: C_17  and  N_18
REMARK    5  A    between atoms: N_18  and  C_19
REMARK    6  A    between atoms: C_21  and  C_22
REMARK                            x       y       z     vdW  Elec       q    Type
REMARK                         _______ _______ _______ _____ _____    ______ ____
ROOT
ATOM      1  N   UNL     1       1.885   6.621  20.953  0.00  0.00    +0.000 N 
ATOM      2  C   UNL     1       1.486   7.955  21.055  0.00  0.00    +0.000 A 
ATOM      3  N   UNL     1       1.105   8.409  22.252  0.00  0.00    +0.000 NA
ATOM      4  C   UNL     1       0.634   9.674  22.301  0.00  0.00    +0.000 A 
ATOM      5  C   UNL     1       0.449  10.468  21.192  0.00  0.00    +0.000 A 
ATOM      6 BR   UNL     1      -0.389  12.151  21.347  0.00  0.00    +0.000 Br
ATOM      7  C   UNL     1       0.831   9.912  19.983  0.00  0.00    +0.000 A 
ATOM      8  N   UNL     1       1.403   8.691  19.938  0.00  0.00    +0.000 NA
ATOM      9  H   UNL     1       1.236   6.050  21.484  0.00  0.00    +0.000 HD
ENDROOT
BRANCH   1  15
ATOM     10  C   UNL     1       4.173   5.919  18.078  0.00  0.00    +0.000 A 
ATOM     11  C   UNL     1       3.639   4.718  17.611  0.00  0.00    +0.000 A 
ATOM     12  C   UNL     1       2.510   4.160  18.217  0.00  0.00    +0.000 A 
ATOM     13  C   UNL     1       1.912   4.798  19.304  0.00  0.00    +0.000 A 
ATOM     14 CL   UNL     1       0.464   4.119  19.960  0.00  0.00    +0.000 Cl
ATOM     15  C   UNL     1       2.459   5.979  19.833  0.00  0.00    +0.000 A 
ATOM     16  C   UNL     1       3.608   6.510  19.216  0.00  0.00    +0.000 A 
BRANCH  10  20
ATOM     17  C   UNL     1       7.473   7.314  16.894  0.00  0.00    +0.000 C 
ATOM     18  C   UNL     1       6.579   6.505  17.797  0.00  0.00    +0.000 C 
ATOM     19  O   UNL     1       7.055   5.863  18.727  0.00  0.00    +0.000 OA
ATOM     20  N   UNL     1       5.242   6.593  17.448  0.00  0.00    +0.000 N 
ATOM     21  H   UNL     1       5.029   7.062  16.576  0.00  0.00    +0.000 HD
ENDBRANCH  10  20
ENDBRANCH   1  15
BRANCH   7  22
ATOM     22  N   UNL     1       0.565  10.572  18.751  0.00  0.00    +0.000 N 
ATOM     23  H   UNL     1       1.119  11.418  18.643  0.00  0.00    +0.000 HD
BRANCH  22  24
ATOM     24  C   UNL     1      -0.656  10.522  18.148  0.00  0.00    +0.000 A 
ATOM     25  C   UNL     1      -1.852  11.140  18.431  0.00  0.00    +0.000 A 
ATOM     26  C   UNL     1      -2.789  10.475  17.608  0.00  0.00    +0.000 A 
ATOM     27  N   UNL     1      -2.214   9.621  16.758  0.00  0.00    +0.000 NA
ATOM     28  N   UNL     1      -0.922   9.689  17.091  0.00  0.00    +0.000 N 
ATOM     29  H   UNL     1      -0.261   9.061  16.647  0.00  0.00    +0.000 HD
BRANCH  26  30
ATOM     30  C   UNL     1      -4.296  10.630  17.738  0.00  0.00    +0.000 C 
ATOM     31  C   UNL     1      -4.866  11.821  18.481  0.00  0.00    +0.000 C 
ATOM     32  C   UNL     1      -4.931  11.796  16.993  0.00  0.00    +0.000 C 
ENDBRANCH  26  30
ENDBRANCH  22  24
ENDBRANCH   7  22
TORSDOF 5
ENDMDL
MODEL 4
REMARK VINA RESULT:      -7.4      1.853      2.189
REMARK  Name = 
REMARK  6 active torsions:
REMARK  status: ('A' for Active; 'I' for Inactive)
REMARK    1  A    between atoms: C_1  and  C_2
REMARK    2  A    between atoms: N_4  and  C_5
REMARK    3  A    between atoms: C_10  and  N_11
REMARK    4  A    between atoms: C_17  and  N_18
REMARK    5  A    between atoms: N_18  and  C_19
REMARK    6  A    between atoms: C_21  and  C_22
REMARK                            x       y       z     vdW  Elec       q    Type
REMARK                         _______ _______ _______ _____ _____    ______ ____
ROOT
ATOM      1  N   UNL     1       4.595   2.908  16.177  0.00  0.00    +0.000 N 
ATOM      2  C   UNL     1       3.970   2.924  17.426  0.00  0.00    +0.000 A 
ATOM      3  N   UNL     1       3.175   1.900  17.745  0.00  0.00    +0.000 NA
ATOM      4  C   UNL     1       2.510   1.989  18.917  0.00  0.00    +0.000 A 
ATOM      5  C   UNL     1       2.542   3.094  19.737  0.00  0.00    +0.000 A 
ATOM      6 BR   UNL     1       1.432   3.192  21.257  0.00  0.00    +0.000 Br
ATOM      7  C   UNL     1       3.359   4.130  19.317  0.00  0.00    +0.000 A 
ATOM      8  N   UNL     1       4.111   4.006  18.203  0.00  0.00    +0.000 NA
ATOM      9  H   UNL     1       3.919   2.608  15.482  0.00  0.00    +0.000 HD
ENDROOT
BRANCH   1  15
ATOM     10  C   UNL     1       7.311   5.480  16.147  0.00  0.00    +0.000 A 
ATOM     11  C   UNL     1       7.560   5.576  14.779  0.00  0.00    +0.000 A 
ATOM     12  C   UNL     1       6.814   4.825  13.867  0.00  0.00    +0.000 A 
ATOM     13  C   UNL     1       5.817   3.962  14.322  0.00  0.00    +0.000 A 
ATOM     14 CL   UNL     1       4.858   3.125  13.153  0.00  0.00    +0.000 Cl
ATOM     15  C   UNL     1       5.580   3.801  15.697  0.00  0.00    +0.000 A 
ATOM     16  C   UNL     1       6.359   4.556  16.596  0.00  0.00    +0.000 A 
BRANCH  10  20
ATOM     17  C   UNL     1       8.409   8.113  18.618  0.00  0.00    +0.000 C 
ATOM     18  C   UNL     1       7.531   7.537  17.538  0.00  0.00    +0.000 C 
ATOM     19  O   UNL     1       6.564   8.167  17.124  0.00  0.00    +0.000 OA
ATOM     20  N   UNL     1       7.950   6.287  17.114  0.00  0.00    +0.000 N 
ATOM     21  H   UNL     1       8.691   5.850  17.649  0.00  0.00    +0.000 HD
ENDBRANCH  10  20
ENDBRANCH   1  15
BRANCH   7  22
ATOM     22  N   UNL     1       3.375   5.379  19.998  0.00  0.00    +0.000 N 
ATOM     23  H   UNL     1       3.146   5.280  20.984  0.00  0.00    +0.000 HD
BRANCH  22  24
ATOM     24  C   UNL     1       3.053   6.549  19.380  0.00  0.00    +0.000 A 
ATOM     25  C   UNL     1       2.117   7.517  19.662  0.00  0.00    +0.000 A 
ATOM     26  C   UNL     1       2.101   8.331  18.506  0.00  0.00    +0.000 A 
ATOM     27  N   UNL     1       3.057   8.007  17.633  0.00  0.00    +0.000 NA
ATOM     28  N   UNL     1       3.632   6.942  18.200  0.00  0.00    +0.000 N 
ATOM     29  H   UNL     1       4.349   6.436  17.690  0.00  0.00    +0.000 HD
BRANCH  26  30
ATOM     30  C   UNL     1       1.049   9.394  18.230  0.00  0.00    +0.000 C 
ATOM     31  C   UNL     1       0.399  10.125  19.388  0.00  0.00    +0.000 C 
ATOM     32  C   UNL     1       1.423  10.830  18.568  0.00  0.00    +0.000 C 
ENDBRANCH  26  30
ENDBRANCH  22  24
ENDBRANCH   7  22
TORSDOF 5
ENDMDL
MODEL 5
REMARK VINA RESULT:      -7.2      7.228     10.839
REMARK  Name = 
REMARK  6 active torsions:
REMARK  status: ('A' for Active; 'I' for Inactive)
REMARK    1  A    between atoms: C_1  and  C_2
REMARK    2  A    between atoms: N_4  and  C_5
REMARK    3  A    between atoms: C_10  and  N_11
REMARK    4  A    between atoms: C_17  and  N_18
REMARK    5  A    between atoms: N_18  and  C_19
REMARK    6  A    between atoms: C_21  and  C_22
REMARK                            x       y       z     vdW  Elec       q    Type
REMARK                         _______ _______ _______ _____ _____    ______ ____
ROOT
ATOM      1  N   UNL     1      -0.914  11.238  22.974  0.00  0.00    +0.000 N 
ATOM      2  C   UNL     1      -0.412  10.663  21.805  0.00  0.00    +0.000 A 
ATOM      3  N   UNL     1       0.331   9.559  21.917  0.00  0.00    +0.000 NA
ATOM      4  C   UNL     1       0.882   9.080  20.780  0.00  0.00    +0.000 A 
ATOM      5  C   UNL     1       0.790   9.707  19.558  0.00  0.00    +0.000 A 
ATOM      6 BR   UNL     1       1.751   9.055  18.072  0.00  0.00    +0.000 Br
ATOM      7  C   UNL     1       0.036  10.867  19.533  0.00  0.00    +0.000 A 
ATOM      8  N   UNL     1      -0.608  11.294  20.640  0.00  0.00    +0.000 NA
ATOM      9  H   UNL     1      -0.180  11.239  23.674  0.00  0.00    +0.000 HD
ENDROOT
BRANCH   1  15
ATOM     10  C   UNL     1      -4.116  13.101  23.500  0.00  0.00    +0.000 A 
ATOM     11  C   UNL     1      -3.683  14.413  23.315  0.00  0.00    +0.000 A 
ATOM     12  C   UNL     1      -2.353  14.682  22.984  0.00  0.00    +0.000 A 
ATOM     13  C   UNL     1      -1.441  13.637  22.844  0.00  0.00    +0.000 A 
ATOM     14 CL   UNL     1       0.170  14.012  22.342  0.00  0.00    +0.000 Cl
ATOM     15  C   UNL     1      -1.832  12.308  23.079  0.00  0.00    +0.000 A 
ATOM     16  C   UNL     1      -3.175  12.065  23.431  0.00  0.00    +0.000 A 
BRANCH  10  20
ATOM     17  C   UNL     1      -7.795  12.275  23.342  0.00  0.00    +0.000 C 
ATOM     18  C   UNL     1      -6.478  12.748  22.785  0.00  0.00    +0.000 C 
ATOM     19  O   UNL     1      -6.387  13.086  21.610  0.00  0.00    +0.000 OA
ATOM     20  N   UNL     1      -5.464  12.749  23.728  0.00  0.00    +0.000 N 
ATOM     21  H   UNL     1      -5.673  12.318  24.622  0.00  0.00    +0.000 HD
ENDBRANCH  10  20
ENDBRANCH   1  15
BRANCH   7  22
ATOM     22  N   UNL     1      -0.023  11.683  18.369  0.00  0.00    +0.000 N 
ATOM     23  H   UNL     1       0.189  11.159  17.524  0.00  0.00    +0.000 HD
BRANCH  22  24
ATOM     24  C   UNL     1       0.281  13.010  18.395  0.00  0.00    +0.000 A 
ATOM     25  C   UNL     1       1.480  13.684  18.373  0.00  0.00    +0.000 A 
ATOM     26  C   UNL     1       1.134  15.017  18.691  0.00  0.00    +0.000 A 
ATOM     27  N   UNL     1      -0.185  15.208  18.750  0.00  0.00    +0.000 NA
ATOM     28  N   UNL     1      -0.676  13.982  18.542  0.00  0.00    +0.000 N 
ATOM     29  H   UNL     1      -1.675  13.828  18.624  0.00  0.00    +0.000 HD
BRANCH  26  30
ATOM     30  C   UNL     1       2.146  16.099  19.033  0.00  0.00    +0.000 C 
ATOM     31  C   UNL     1       3.623  15.846  18.801  0.00  0.00    +0.000 C 
ATOM     32  C   UNL     1       2.884  16.740  17.866  0.00  0.00    +0.000 C 
ENDBRANCH  26  30
ENDBRANCH  22  24
ENDBRANCH   7  22
TORSDOF 5
ENDMDL
MODEL 6
REMARK VINA RESULT:      -7.1      2.288      3.270
REMARK  Name = 
REMARK  6 active torsions:
REMARK  status: ('A' for Active; 'I' for Inactive)
REMARK    1  A    between atoms: C_1  and  C_2
REMARK    2  A    between atoms: N_4  and  C_5
REMARK    3  A    between atoms: C_10  and  N_11
REMARK    4  A    between atoms: C_17  and  N_18
REMARK    5  A    between atoms: N_18  and  C_19
REMARK    6  A    between atoms: C_21  and  C_22
REMARK                            x       y       z     vdW  Elec       q    Type
REMARK                         _______ _______ _______ _____ _____    ______ ____
ROOT
ATOM      1  N   UNL     1       6.222   3.420  18.543  0.00  0.00    +0.000 N 
ATOM      2  C   UNL     1       5.094   3.344  19.363  0.00  0.00    +0.000 A 
ATOM      3  N   UNL     1       4.993   2.309  20.200  0.00  0.00    +0.000 NA
ATOM      4  C   UNL     1       3.848   2.210  20.910  0.00  0.00    +0.000 A 
ATOM      5  C   UNL     1       2.772   3.053  20.752  0.00  0.00    +0.000 A 
ATOM      6 BR   UNL     1       1.151   2.717  21.657  0.00  0.00    +0.000 Br
ATOM      7  C   UNL     1       2.939   4.077  19.837  0.00  0.00    +0.000 A 
ATOM      8  N   UNL     1       4.118   4.248  19.203  0.00  0.00    +0.000 NA
ATOM      9  H   UNL     1       6.411   2.497  18.168  0.00  0.00    +0.000 HD
ENDROOT
BRANCH   1  15
ATOM     10  C   UNL     1       6.848   5.418  15.443  0.00  0.00    +0.000 A 
ATOM     11  C   UNL     1       7.328   6.605  15.994  0.00  0.00    +0.000 A 
ATOM     12  C   UNL     1       7.479   6.736  17.377  0.00  0.00    +0.000 A 
ATOM     13  C   UNL     1       7.140   5.679  18.221  0.00  0.00    +0.000 A 
ATOM     14 CL   UNL     1       7.432   5.853  19.915  0.00  0.00    +0.000 Cl
ATOM     15  C   UNL     1       6.601   4.490  17.700  0.00  0.00    +0.000 A 
ATOM     16  C   UNL     1       6.441   4.391  16.305  0.00  0.00    +0.000 A 
BRANCH  10  20
ATOM     17  C   UNL     1       7.401   4.981  11.736  0.00  0.00    +0.000 C 
ATOM     18  C   UNL     1       7.790   5.379  13.135  0.00  0.00    +0.000 C 
ATOM     19  O   UNL     1       8.906   5.830  13.363  0.00  0.00    +0.000 OA
ATOM     20  N   UNL     1       6.772   5.179  14.053  0.00  0.00    +0.000 N 
ATOM     21  H   UNL     1       5.955   4.677  13.725  0.00  0.00    +0.000 HD
ENDBRANCH  10  20
ENDBRANCH   1  15
BRANCH   7  22
ATOM     22  N   UNL     1       1.858   4.931  19.480  0.00  0.00    +0.000 N 
ATOM     23  H   UNL     1       1.311   4.553  18.710  0.00  0.00    +0.000 HD
BRANCH  22  24
ATOM     24  C   UNL     1       1.925   6.284  19.616  0.00  0.00    +0.000 A 
ATOM     25  C   UNL     1       1.526   7.133  20.623  0.00  0.00    +0.000 A 
ATOM     26  C   UNL     1       1.624   8.421  20.051  0.00  0.00    +0.000 A 
ATOM     27  N   UNL     1       2.190   8.407  18.842  0.00  0.00    +0.000 NA
ATOM     28  N   UNL     1       2.383   7.104  18.616  0.00  0.00    +0.000 N 
ATOM     29  H   UNL     1       2.728   6.803  17.711  0.00  0.00    +0.000 HD
BRANCH  26  30
ATOM     30  C   UNL     1       1.058   9.680  20.688  0.00  0.00    +0.000 C 
ATOM     31  C   UNL     1       0.392  10.727  19.817  0.00  0.00    +0.000 C 
ATOM     32  C   UNL     1      -0.456   9.839  20.661  0.00  0.00    +0.000 C 
ENDBRANCH  26  30
ENDBRANCH  22  24
ENDBRANCH   7  22
TORSDOF 5
ENDMDL
MODEL 7
REMARK VINA RESULT:      -7.1      3.904      6.046
REMARK  Name = 
REMARK  6 active torsions:
REMARK  status: ('A' for Active; 'I' for Inactive)
REMARK    1  A    between atoms: C_1  and  C_2
REMARK    2  A    between atoms: N_4  and  C_5
REMARK    3  A    between atoms: C_10  and  N_11
REMARK    4  A    between atoms: C_17  and  N_18
REMARK    5  A    between atoms: N_18  and  C_19
REMARK    6  A    between atoms: C_21  and  C_22
REMARK                            x       y       z     vdW  Elec       q    Type
REMARK                         _______ _______ _______ _____ _____    ______ ____
ROOT
ATOM      1  N   UNL     1       1.949   6.521  20.676  0.00  0.00    +0.000 N 
ATOM      2  C   UNL     1       1.655   7.886  20.644  0.00  0.00    +0.000 A 
ATOM      3  N   UNL     1       1.490   8.521  21.808  0.00  0.00    +0.000 NA
ATOM      4  C   UNL     1       1.113   9.817  21.744  0.00  0.00    +0.000 A 
ATOM      5  C   UNL     1       0.814  10.473  20.572  0.00  0.00    +0.000 A 
ATOM      6 BR   UNL     1       0.117  12.225  20.606  0.00  0.00    +0.000 Br
ATOM      7  C   UNL     1       0.972   9.735  19.412  0.00  0.00    +0.000 A 
ATOM      8  N   UNL     1       1.452   8.474  19.458  0.00  0.00    +0.000 NA
ATOM      9  H   UNL     1       1.353   6.079  21.368  0.00  0.00    +0.000 HD
ENDROOT
BRANCH   1  15
ATOM     10  C   UNL     1       3.664   5.305  17.582  0.00  0.00    +0.000 A 
ATOM     11  C   UNL     1       3.051   4.063  17.419  0.00  0.00    +0.000 A 
ATOM     12  C   UNL     1       2.053   3.643  18.301  0.00  0.00    +0.000 A 
ATOM     13  C   UNL     1       1.667   4.461  19.362  0.00  0.00    +0.000 A 
ATOM     14 CL   UNL     1       0.364   3.941  20.371  0.00  0.00    +0.000 Cl
ATOM     15  C   UNL     1       2.305   5.693  19.587  0.00  0.00    +0.000 A 
ATOM     16  C   UNL     1       3.321   6.085  18.694  0.00  0.00    +0.000 A 
BRANCH  10  20
ATOM     17  C   UNL     1       6.412   5.990  15.088  0.00  0.00    +0.000 C 
ATOM     18  C   UNL     1       5.617   5.138  16.042  0.00  0.00    +0.000 C 
ATOM     19  O   UNL     1       5.901   3.956  16.201  0.00  0.00    +0.000 OA
ATOM     20  N   UNL     1       4.600   5.838  16.669  0.00  0.00    +0.000 N 
ATOM     21  H   UNL     1       4.417   6.776  16.331  0.00  0.00    +0.000 HD
ENDBRANCH  10  20
ENDBRANCH   1  15
BRANCH   7  22
ATOM     22  N   UNL     1       0.565  10.249  18.150  0.00  0.00    +0.000 N 
ATOM     23  H   UNL     1       1.185  10.984  17.818  0.00  0.00    +0.000 HD
BRANCH  22  24
ATOM     24  C   UNL     1      -0.742  10.292  17.769  0.00  0.00    +0.000 A 
ATOM     25  C   UNL     1      -1.832  10.959  18.279  0.00  0.00    +0.000 A 
ATOM     26  C   UNL     1      -2.936  10.383  17.609  0.00  0.00    +0.000 A 
ATOM     27  N   UNL     1      -2.569   9.540  16.641  0.00  0.00    +0.000 NA
ATOM     28  N   UNL     1      -1.237   9.524  16.745  0.00  0.00    +0.000 N 
ATOM     29  H   UNL     1      -0.702   8.883  16.169  0.00  0.00    +0.000 HD
BRANCH  26  30
ATOM     30  C   UNL     1      -4.386  10.611  18.007  0.00  0.00    +0.000 C 
ATOM     31  C   UNL     1      -4.786  11.916  18.666  0.00  0.00    +0.000 C 
ATOM     32  C   UNL     1      -5.145  11.684  17.239  0.00  0.00    +0.000 C 
ENDBRANCH  26  30
ENDBRANCH  22  24
ENDBRANCH   7  22
TORSDOF 5
ENDMDL
MODEL 8
REMARK VINA RESULT:      -7.1      4.939      7.207
REMARK  Name = 
REMARK  6 active torsions:
REMARK  status: ('A' for Active; 'I' for Inactive)
REMARK    1  A    between atoms: C_1  and  C_2
REMARK    2  A    between atoms: N_4  and  C_5
REMARK    3  A    between atoms: C_10  and  N_11
REMARK    4  A    between atoms: C_17  and  N_18
REMARK    5  A    between atoms: N_18  and  C_19
REMARK    6  A    between atoms: C_21  and  C_22
REMARK                            x       y       z     vdW  Elec       q    Type
REMARK                         _______ _______ _______ _____ _____    ______ ____
ROOT
ATOM      1  N   UNL     1       1.748  11.149  17.718  0.00  0.00    +0.000 N 
ATOM      2  C   UNL     1       1.983   9.884  18.261  0.00  0.00    +0.000 A 
ATOM      3  N   UNL     1       2.495   8.942  17.465  0.00  0.00    +0.000 NA
ATOM      4  C   UNL     1       2.622   7.705  17.991  0.00  0.00    +0.000 A 
ATOM      5  C   UNL     1       2.179   7.354  19.246  0.00  0.00    +0.000 A 
ATOM      6 BR   UNL     1       2.233   5.556  19.814  0.00  0.00    +0.000 Br
ATOM      7  C   UNL     1       1.623   8.377  19.995  0.00  0.00    +0.000 A 
ATOM      8  N   UNL     1       1.592   9.639  19.519  0.00  0.00    +0.000 NA
ATOM      9  H   UNL     1       1.327  11.033  16.802  0.00  0.00    +0.000 HD
ENDROOT
BRANCH   1  15
ATOM     10  C   UNL     1       1.963  14.381  19.590  0.00  0.00    +0.000 A 
ATOM     11  C   UNL     1       0.610  14.669  19.763  0.00  0.00    +0.000 A 
ATOM     12  C   UNL     1      -0.369  13.787  19.297  0.00  0.00    +0.000 A 
ATOM     13  C   UNL     1       0.002  12.611  18.645  0.00  0.00    +0.000 A 
ATOM     14 CL   UNL     1      -1.241  11.508  18.170  0.00  0.00    +0.000 Cl
ATOM     15  C   UNL     1       1.355  12.320  18.406  0.00  0.00    +0.000 A 
ATOM     16  C   UNL     1       2.321  13.235  18.868  0.00  0.00    +0.000 A 
BRANCH  10  20
ATOM     17  C   UNL     1       4.618  16.068  21.675  0.00  0.00    +0.000 C 
ATOM     18  C   UNL     1       3.463  15.131  21.434  0.00  0.00    +0.000 C 
ATOM     19  O   UNL     1       3.026  14.439  22.347  0.00  0.00    +0.000 OA
ATOM     20  N   UNL     1       3.003  15.170  20.129  0.00  0.00    +0.000 N 
ATOM     21  H   UNL     1       3.557  15.700  19.466  0.00  0.00    +0.000 HD
ENDBRANCH  10  20
ENDBRANCH   1  15
BRANCH   7  22
ATOM     22  N   UNL     1       1.004   8.119  21.249  0.00  0.00    +0.000 N 
ATOM     23  H   UNL     1       0.729   7.145  21.347  0.00  0.00    +0.000 HD
BRANCH  22  24
ATOM     24  C   UNL     1       0.271   9.062  21.905  0.00  0.00    +0.000 A 
ATOM     25  C   UNL     1      -0.555  10.067  21.459  0.00  0.00    +0.000 A 
ATOM     26  C   UNL     1      -0.796  10.855  22.608  0.00  0.00    +0.000 A 
ATOM     27  N   UNL     1      -0.301  10.308  23.720  0.00  0.00    +0.000 NA
ATOM     28  N   UNL     1       0.317   9.213  23.268  0.00  0.00    +0.000 N 
ATOM     29  H   UNL     1       0.862   8.650  23.912  0.00  0.00    +0.000 HD
BRANCH  26  30
ATOM     30  C   UNL     1      -1.455  12.224  22.577  0.00  0.00    +0.000 C 
ATOM     31  C   UNL     1      -2.719  12.431  21.765  0.00  0.00    +0.000 C 
ATOM     32  C   UNL     1      -2.815  12.345  23.249  0.00  0.00    +0.000 C 
ENDBRANCH  26  30
ENDBRANCH  22  24
ENDBRANCH   7  22
TORSDOF 5
ENDMDL
MODEL 9
REMARK VINA RESULT:      -7.1      3.229      6.126
REMARK  Name = 
REMARK  6 active torsions:
REMARK  status: ('A' for Active; 'I' for Inactive)
REMARK    1  A    between atoms: C_1  and  C_2
REMARK    2  A    between atoms: N_4  and  C_5
REMARK    3  A    between atoms: C_10  and  N_11
REMARK    4  A    between atoms: C_17  and  N_18
REMARK    5  A    between atoms: N_18  and  C_19
REMARK    6  A    between atoms: C_21  and  C_22
REMARK                            x       y       z     vdW  Elec       q    Type
REMARK                         _______ _______ _______ _____ _____    ______ ____
ROOT
ATOM      1  N   UNL     1       4.613   7.558  16.548  0.00  0.00    +0.000 N 
ATOM      2  C   UNL     1       3.584   7.773  17.467  0.00  0.00    +0.000 A 
ATOM      3  N   UNL     1       2.954   8.950  17.442  0.00  0.00    +0.000 NA
ATOM      4  C   UNL     1       2.029   9.165  18.404  0.00  0.00    +0.000 A 
ATOM      5  C   UNL     1       1.774   8.288  19.434  0.00  0.00    +0.000 A 
ATOM      6 BR   UNL     1       0.599   8.765  20.829  0.00  0.00    +0.000 Br
ATOM      7  C   UNL     1       2.497   7.108  19.411  0.00  0.00    +0.000 A 
ATOM      8  N   UNL     1       3.343   6.838  18.395  0.00  0.00    +0.000 NA
ATOM      9  H   UNL     1       5.187   8.394  16.505  0.00  0.00    +0.000 HD
ENDROOT
BRANCH   1  15
ATOM     10  C   UNL     1       5.681   4.379  14.890  0.00  0.00    +0.000 A 
ATOM     11  C   UNL     1       6.679   3.954  15.767  0.00  0.00    +0.000 A 
ATOM     12  C   UNL     1       6.974   4.691  16.917  0.00  0.00    +0.000 A 
ATOM     13  C   UNL     1       6.277   5.867  17.193  0.00  0.00    +0.000 A 
ATOM     14 CL   UNL     1       6.612   6.693  18.673  0.00  0.00    +0.000 Cl
ATOM     15  C   UNL     1       5.306   6.351  16.300  0.00  0.00    +0.000 A 
ATOM     16  C   UNL     1       5.041   5.600  15.138  0.00  0.00    +0.000 A 
BRANCH  10  20
ATOM     17  C   UNL     1       5.234   2.598  11.593  0.00  0.00    +0.000 C 
ATOM     18  C   UNL     1       5.934   3.509  12.567  0.00  0.00    +0.000 C 
ATOM     19  O   UNL     1       6.987   4.055  12.259  0.00  0.00    +0.000 OA
ATOM     20  N   UNL     1       5.257   3.631  13.770  0.00  0.00    +0.000 N 
ATOM     21  H   UNL     1       4.468   3.012  13.913  0.00  0.00    +0.000 HD
ENDBRANCH  10  20
ENDBRANCH   1  15
BRANCH   7  22
ATOM     22  N   UNL     1       2.429   6.181  20.489  0.00  0.00    +0.000 N 
ATOM     23  H   UNL     1       2.982   6.483  21.288  0.00  0.00    +0.000 HD
BRANCH  22  24
ATOM     24  C   UNL     1       2.268   4.844  20.289  0.00  0.00    +0.000 A 
ATOM     25  C   UNL     1       3.062   3.896  19.687  0.00  0.00    +0.000 A 
ATOM     26  C   UNL     1       2.223   2.765  19.565  0.00  0.00    +0.000 A 
ATOM     27  N   UNL     1       1.050   2.925  20.182  0.00  0.00    +0.000 NA
ATOM     28  N   UNL     1       1.116   4.182  20.631  0.00  0.00    +0.000 N 
ATOM     29  H   UNL     1       0.300   4.594  21.072  0.00  0.00    +0.000 HD
BRANCH  26  30
ATOM     30  C   UNL     1       2.566   1.537  18.737  0.00  0.00    +0.000 C 
ATOM     31  C   UNL     1       3.512   1.666  17.560  0.00  0.00    +0.000 C 
ATOM     32  C   UNL     1       4.001   1.036  18.818  0.00  0.00    +0.000 C 
ENDBRANCH  26  30
ENDBRANCH  22  24
ENDBRANCH   7  22
TORSDOF 5
ENDMDL
