MODEL 1
REMARK VINA RESULT:      -7.4      0.000      0.000
REMARK  Name = 
REMARK  10 active torsions:
REMARK  status: ('A' for Active; 'I' for Inactive)
REMARK    1  A    between atoms: C_1  and  C_2
REMARK    2  A    between atoms: C_6  and  O_7
REMARK    3  A    between atoms: O_7  and  C_8
REMARK    4  A    between atoms: C_8  and  C_9
REMARK    5  A    between atoms: C_9  and  N_10
REMARK    6  A    between atoms: C_9  and  C_11
REMARK    7  A    between atoms: C_11  and  C_12
REMARK    8  A    between atoms: C_12  and  N_13
REMARK    9  A    between atoms: N_13  and  S_14
REMARK   10  A    between atoms: S_14  and  C_17
REMARK                            x       y       z     vdW  Elec       q    Type
REMARK                         _______ _______ _______ _____ _____    ______ ____
ROOT
ATOM      1  C   UNL     1       6.458   7.228  17.160  0.00  0.00    +0.000 C 
ENDROOT
BRANCH   1   2
ATOM      2  C   UNL     1       7.870   7.549  17.673  0.00  0.00    +0.000 C 
BRANCH   2   3
ATOM      3  N   UNL     1       8.145   6.801  18.914  0.00  0.00    +0.000 NA
ATOM      4  H   UNL     1       8.761   6.013  18.711  0.00  0.00    +0.000 HD
ATOM      5  H   UNL     1       7.267   6.370  19.213  0.00  0.00    +0.000 HD
ENDBRANCH   2   3
BRANCH   2   6
ATOM      6  C   UNL     1       8.046   9.063  17.897  0.00  0.00    +0.000 C 
BRANCH   6   7
ATOM      7  O   UNL     1       8.923   9.258  19.014  0.00  0.00    +0.000 OA
BRANCH   7  13
ATOM      8  C   UNL     1      11.119  13.237  17.022  0.00  0.00    +0.000 C 
ATOM      9  C   UNL     1      10.634  12.460  18.210  0.00  0.00    +0.000 A 
ATOM     10  C   UNL     1      10.803  12.940  19.513  0.00  0.00    +0.000 A 
ATOM     11  C   UNL     1      10.348  12.193  20.599  0.00  0.00    +0.000 A 
ATOM     12  C   UNL     1       9.723  10.964  20.388  0.00  0.00    +0.000 A 
ATOM     13  C   UNL     1       9.547  10.472  19.094  0.00  0.00    +0.000 A 
ATOM     14  C   UNL     1      10.003  11.224  18.010  0.00  0.00    +0.000 A 
ENDBRANCH   7  13
ENDBRANCH   6   7
ENDBRANCH   2   6
ENDBRANCH   1   2
BRANCH   1  15
ATOM     15  C   UNL     1       6.282   5.730  16.920  0.00  0.00    +0.000 C 
BRANCH  15  16
ATOM     16  N   UNL     1       4.859   5.415  16.707  0.00  0.00    +0.000 NA
ATOM     17  H   UNL     1       4.642   4.830  15.898  0.00  0.00    +0.000 HD
BRANCH  16  18
ATOM     18  S   UNL     1       4.043   4.799  18.053  0.00  0.00    +0.000 S 
ATOM     19  O   UNL     1       3.132   3.788  17.559  0.00  0.00    +0.000 OA
ATOM     20  O   UNL     1       5.046   4.464  19.041  0.00  0.00    +0.000 OA
BRANCH  18  21
ATOM     21  C   UNL     1       3.045   6.122  18.684  0.00  0.00    +0.000 A 
ATOM     22  C   UNL     1       3.030   7.295  17.914  0.00  0.00    +0.000 A 
ATOM     23  C   UNL     1       2.342   8.426  18.340  0.00  0.00    +0.000 A 
ATOM     24  C   UNL     1       1.665   8.396  19.551  0.00  0.00    +0.000 A 
ATOM     25 CL   UNL     1       0.798   9.790  20.068  0.00  0.00    +0.000 Cl
ATOM     26  C   UNL     1       1.682   7.246  20.343  0.00  0.00    +0.000 A 
ATOM     27  C   UNL     1       2.387   6.100  19.916  0.00  0.00    +0.000 A 
ATOM     28 CL   UNL     1       2.362   4.746  20.984  0.00  0.00    +0.000 Cl
ENDBRANCH  18  21
ENDBRANCH  16  18
ENDBRANCH  15  16
ENDBRANCH   1  15
TORSDOF 9
ENDMDL
MODEL 2
REMARK VINA RESULT:      -7.2      2.297      3.003
REMARK  Name = 
REMARK  10 active torsions:
REMARK  status: ('A' for Active; 'I' for Inactive)
REMARK    1  A    between atoms: C_1  and  C_2
REMARK    2  A    between atoms: C_6  and  O_7
REMARK    3  A    between atoms: O_7  and  C_8
REMARK    4  A    between atoms: C_8  and  C_9
REMARK    5  A    between atoms: C_9  and  N_10
REMARK    6  A    between atoms: C_9  and  C_11
REMARK    7  A    between atoms: C_11  and  C_12
REMARK    8  A    between atoms: C_12  and  N_13
REMARK    9  A    between atoms: N_13  and  S_14
REMARK   10  A    between atoms: S_14  and  C_17
REMARK                            x       y       z     vdW  Elec       q    Type
REMARK                         _______ _______ _______ _____ _____    ______ ____
ROOT
ATOM      1  C   UNL     1       8.060   6.261  18.827  0.00  0.00    +0.000 C 
ENDROOT
BRANCH   1   2
ATOM      2  C   UNL     1       7.721   7.666  18.308  0.00  0.00    +0.000 C 
BRANCH   2   3
ATOM      3  N   UNL     1       7.776   7.694  16.835  0.00  0.00    +0.000 NA
ATOM      4  H   UNL     1       6.864   7.446  16.452  0.00  0.00    +0.000 HD
ATOM      5  H   UNL     1       8.395   6.936  16.537  0.00  0.00    +0.000 HD
ENDBRANCH   2   3
BRANCH   2   6
ATOM      6  C   UNL     1       8.667   8.722  18.912  0.00  0.00    +0.000 C 
BRANCH   6   7
ATOM      7  O   UNL     1       8.628   9.892  18.084  0.00  0.00    +0.000 OA
BRANCH   7  13
ATOM      8  C   UNL     1      10.182  14.593  17.745  0.00  0.00    +0.000 C 
ATOM      9  C   UNL     1      10.127  13.275  18.459  0.00  0.00    +0.000 A 
ATOM     10  C   UNL     1      10.806  13.071  19.665  0.00  0.00    +0.000 A 
ATOM     11  C   UNL     1      10.742  11.833  20.304  0.00  0.00    +0.000 A 
ATOM     12  C   UNL     1      10.001  10.793  19.740  0.00  0.00    +0.000 A 
ATOM     13  C   UNL     1       9.318  10.982  18.538  0.00  0.00    +0.000 A 
ATOM     14  C   UNL     1       9.384  12.223  17.903  0.00  0.00    +0.000 A 
ENDBRANCH   7  13
ENDBRANCH   6   7
ENDBRANCH   2   6
ENDBRANCH   1   2
BRANCH   1  15
ATOM     15  C   UNL     1       6.956   5.262  18.488  0.00  0.00    +0.000 C 
BRANCH  15  16
ATOM     16  N   UNL     1       7.185   4.686  17.152  0.00  0.00    +0.000 NA
ATOM     17  H   UNL     1       7.636   3.770  17.126  0.00  0.00    +0.000 HD
BRANCH  16  18
ATOM     18  S   UNL     1       5.835   4.653  16.135  0.00  0.00    +0.000 S 
ATOM     19  O   UNL     1       5.724   5.973  15.550  0.00  0.00    +0.000 OA
ATOM     20  O   UNL     1       5.967   3.484  15.291  0.00  0.00    +0.000 OA
BRANCH  18  21
ATOM     21  C   UNL     1       4.421   4.438  17.184  0.00  0.00    +0.000 A 
ATOM     22  C   UNL     1       4.038   3.109  17.424  0.00  0.00    +0.000 A 
ATOM     23  C   UNL     1       2.903   2.813  18.173  0.00  0.00    +0.000 A 
ATOM     24  C   UNL     1       2.134   3.849  18.684  0.00  0.00    +0.000 A 
ATOM     25 CL   UNL     1       0.741   3.480  19.625  0.00  0.00    +0.000 Cl
ATOM     26  C   UNL     1       2.486   5.178  18.442  0.00  0.00    +0.000 A 
ATOM     27  C   UNL     1       3.632   5.481  17.675  0.00  0.00    +0.000 A 
ATOM     28 CL   UNL     1       3.959   7.154  17.417  0.00  0.00    +0.000 Cl
ENDBRANCH  18  21
ENDBRANCH  16  18
ENDBRANCH  15  16
ENDBRANCH   1  15
TORSDOF 9
ENDMDL
MODEL 3
REMARK VINA RESULT:      -7.1      5.350      7.431
REMARK  Name = 
REMARK  10 active torsions:
REMARK  status: ('A' for Active; 'I' for Inactive)
REMARK    1  A    between atoms: C_1  and  C_2
REMARK    2  A    between atoms: C_6  and  O_7
REMARK    3  A    between atoms: O_7  and  C_8
REMARK    4  A    between atoms: C_8  and  C_9
REMARK    5  A    between atoms: C_9  and  N_10
REMARK    6  A    between atoms: C_9  and  C_11
REMARK    7  A    between atoms: C_11  and  C_12
REMARK    8  A    between atoms: C_12  and  N_13
REMARK    9  A    between atoms: N_13  and  S_14
REMARK   10  A    between atoms: S_14  and  C_17
REMARK                            x       y       z     vdW  Elec       q    Type
REMARK                         _______ _______ _______ _____ _____    ______ ____
ROOT
ATOM      1  C   UNL     1       1.304   3.540  19.536  0.00  0.00    +0.000 C 
ENDROOT
BRANCH   1   2
ATOM      2  C   UNL     1       2.124   4.240  20.630  0.00  0.00    +0.000 C 
BRANCH   2   3
ATOM      3  N   UNL     1       2.108   3.441  21.869  0.00  0.00    +0.000 NA
ATOM      4  H   UNL     1       3.001   2.960  21.978  0.00  0.00    +0.000 HD
ATOM      5  H   UNL     1       1.426   2.690  21.741  0.00  0.00    +0.000 HD
ENDBRANCH   2   3
BRANCH   2   6
ATOM      6  C   UNL     1       1.596   5.664  20.891  0.00  0.00    +0.000 C 
BRANCH   6   7
ATOM      7  O   UNL     1       2.509   6.601  20.306  0.00  0.00    +0.000 OA
BRANCH   7  13
ATOM      8  C   UNL     1      -0.121  10.799  20.599  0.00  0.00    +0.000 C 
ATOM      9  C   UNL     1       0.691   9.808  19.818  0.00  0.00    +0.000 A 
ATOM     10  C   UNL     1       0.936   9.982  18.453  0.00  0.00    +0.000 A 
ATOM     11  C   UNL     1       1.688   9.041  17.750  0.00  0.00    +0.000 A 
ATOM     12  C   UNL     1       2.197   7.922  18.409  0.00  0.00    +0.000 A 
ATOM     13  C   UNL     1       1.961   7.734  19.771  0.00  0.00    +0.000 A 
ATOM     14  C   UNL     1       1.208   8.680  20.470  0.00  0.00    +0.000 A 
ENDBRANCH   7  13
ENDBRANCH   6   7
ENDBRANCH   2   6
ENDBRANCH   1   2
BRANCH   1  15
ATOM     15  C   UNL     1       1.809   3.906  18.142  0.00  0.00    +0.000 C 
BRANCH  15  16
ATOM     16  N   UNL     1       3.143   4.525  18.232  0.00  0.00    +0.000 NA
ATOM     17  H   UNL     1       3.309   5.123  19.044  0.00  0.00    +0.000 HD
BRANCH  16  18
ATOM     18  S   UNL     1       4.448   3.464  18.065  0.00  0.00    +0.000 S 
ATOM     19  O   UNL     1       5.249   3.601  19.263  0.00  0.00    +0.000 OA
ATOM     20  O   UNL     1       3.903   2.177  17.689  0.00  0.00    +0.000 OA
BRANCH  18  21
ATOM     21  C   UNL     1       5.427   4.080  16.721  0.00  0.00    +0.000 A 
ATOM     22  C   UNL     1       4.945   3.793  15.435  0.00  0.00    +0.000 A 
ATOM     23  C   UNL     1       5.662   4.161  14.300  0.00  0.00    +0.000 A 
ATOM     24  C   UNL     1       6.876   4.816  14.444  0.00  0.00    +0.000 A 
ATOM     25 CL   UNL     1       7.752   5.287  13.039  0.00  0.00    +0.000 Cl
ATOM     26  C   UNL     1       7.384   5.095  15.714  0.00  0.00    +0.000 A 
ATOM     27  C   UNL     1       6.663   4.714  16.867  0.00  0.00    +0.000 A 
ATOM     28 CL   UNL     1       7.395   5.085  18.383  0.00  0.00    +0.000 Cl
ENDBRANCH  18  21
ENDBRANCH  16  18
ENDBRANCH  15  16
ENDBRANCH   1  15
TORSDOF 9
ENDMDL
MODEL 4
REMARK VINA RESULT:      -7.1      5.719      8.281
REMARK  Name = 
REMARK  10 active torsions:
REMARK  status: ('A' for Active; 'I' for Inactive)
REMARK    1  A    between atoms: C_1  and  C_2
REMARK    2  A    between atoms: C_6  and  O_7
REMARK    3  A    between atoms: O_7  and  C_8
REMARK    4  A    between atoms: C_8  and  C_9
REMARK    5  A    between atoms: C_9  and  N_10
REMARK    6  A    between atoms: C_9  and  C_11
REMARK    7  A    between atoms: C_11  and  C_12
REMARK    8  A    between atoms: C_12  and  N_13
REMARK    9  A    between atoms: N_13  and  S_14
REMARK   10  A    between atoms: S_14  and  C_17
REMARK                            x       y       z     vdW  Elec       q    Type
REMARK                         _______ _______ _______ _____ _____    ______ ____
ROOT
ATOM      1  C   UNL     1       1.722   7.909  20.564  0.00  0.00    +0.000 C 
ENDROOT
BRANCH   1   2
ATOM      2  C   UNL     1       0.903   8.936  21.360  0.00  0.00    +0.000 C 
BRANCH   2   3
ATOM      3  N   UNL     1      -0.402   8.363  21.741  0.00  0.00    +0.000 NA
ATOM      4  H   UNL     1      -0.559   8.502  22.739  0.00  0.00    +0.000 HD
ATOM      5  H   UNL     1      -0.335   7.348  21.630  0.00  0.00    +0.000 HD
ENDBRANCH   2   3
BRANCH   2   6
ATOM      6  C   UNL     1       0.715  10.237  20.556  0.00  0.00    +0.000 C 
BRANCH   6   7
ATOM      7  O   UNL     1       0.504   9.895  19.180  0.00  0.00    +0.000 OA
BRANCH   7  13
ATOM      8  C   UNL     1      -2.961   9.869  15.628  0.00  0.00    +0.000 C 
ATOM      9  C   UNL     1      -2.416  10.379  16.929  0.00  0.00    +0.000 A 
ATOM     10  C   UNL     1      -3.088  11.360  17.665  0.00  0.00    +0.000 A 
ATOM     11  C   UNL     1      -2.555  11.820  18.869  0.00  0.00    +0.000 A 
ATOM     12  C   UNL     1      -1.348  11.303  19.342  0.00  0.00    +0.000 A 
ATOM     13  C   UNL     1      -0.666  10.324  18.618  0.00  0.00    +0.000 A 
ATOM     14  C   UNL     1      -1.205   9.865  17.414  0.00  0.00    +0.000 A 
ENDBRANCH   7  13
ENDBRANCH   6   7
ENDBRANCH   2   6
ENDBRANCH   1   2
BRANCH   1  15
ATOM     15  C   UNL     1       1.265   6.483  20.861  0.00  0.00    +0.000 C 
BRANCH  15  16
ATOM     16  N   UNL     1       2.432   5.599  21.018  0.00  0.00    +0.000 NA
ATOM     17  H   UNL     1       2.709   5.382  21.977  0.00  0.00    +0.000 HD
BRANCH  16  18
ATOM     18  S   UNL     1       2.377   4.159  20.133  0.00  0.00    +0.000 S 
ATOM     19  O   UNL     1       3.030   3.151  20.941  0.00  0.00    +0.000 OA
ATOM     20  O   UNL     1       1.008   3.980  19.699  0.00  0.00    +0.000 OA
BRANCH  18  21
ATOM     21  C   UNL     1       3.397   4.409  18.704  0.00  0.00    +0.000 A 
ATOM     22  C   UNL     1       3.784   5.735  18.456  0.00  0.00    +0.000 A 
ATOM     23  C   UNL     1       4.525   6.067  17.326  0.00  0.00    +0.000 A 
ATOM     24  C   UNL     1       4.880   5.072  16.426  0.00  0.00    +0.000 A 
ATOM     25 CL   UNL     1       5.813   5.483  15.039  0.00  0.00    +0.000 Cl
ATOM     26  C   UNL     1       4.489   3.750  16.643  0.00  0.00    +0.000 A 
ATOM     27  C   UNL     1       3.730   3.411  17.784  0.00  0.00    +0.000 A 
ATOM     28 CL   UNL     1       3.280   1.754  17.939  0.00  0.00    +0.000 Cl
ENDBRANCH  18  21
ENDBRANCH  16  18
ENDBRANCH  15  16
ENDBRANCH   1  15
TORSDOF 9
ENDMDL
MODEL 5
REMARK VINA RESULT:      -7.1      4.277      7.040
REMARK  Name = 
REMARK  10 active torsions:
REMARK  status: ('A' for Active; 'I' for Inactive)
REMARK    1  A    between atoms: C_1  and  C_2
REMARK    2  A    between atoms: C_6  and  O_7
REMARK    3  A    between atoms: O_7  and  C_8
REMARK    4  A    between atoms: C_8  and  C_9
REMARK    5  A    between atoms: C_9  and  N_10
REMARK    6  A    between atoms: C_9  and  C_11
REMARK    7  A    between atoms: C_11  and  C_12
REMARK    8  A    between atoms: C_12  and  N_13
REMARK    9  A    between atoms: N_13  and  S_14
REMARK   10  A    between atoms: S_14  and  C_17
REMARK                            x       y       z     vdW  Elec       q    Type
REMARK                         _______ _______ _______ _____ _____    ______ ____
ROOT
ATOM      1  C   UNL     1       3.160   3.158  20.568  0.00  0.00    +0.000 C 
ENDROOT
BRANCH   1   2
ATOM      2  C   UNL     1       1.793   3.726  20.975  0.00  0.00    +0.000 C 
BRANCH   2   3
ATOM      3  N   UNL     1       0.766   3.343  19.988  0.00  0.00    +0.000 NA
ATOM      4  H   UNL     1       0.524   4.150  19.413  0.00  0.00    +0.000 HD
ATOM      5  H   UNL     1      -0.091   3.129  20.505  0.00  0.00    +0.000 HD
ENDBRANCH   2   3
BRANCH   2   6
ATOM      6  C   UNL     1       1.854   5.258  21.133  0.00  0.00    +0.000 C 
BRANCH   6   7
ATOM      7  O   UNL     1       2.679   5.789  20.088  0.00  0.00    +0.000 OA
BRANCH   7  13
ATOM      8  C   UNL     1       0.430  10.203  20.382  0.00  0.00    +0.000 C 
ATOM      9  C   UNL     1       1.243   9.189  19.633  0.00  0.00    +0.000 A 
ATOM     10  C   UNL     1       1.682   9.428  18.327  0.00  0.00    +0.000 A 
ATOM     11  C   UNL     1       2.430   8.465  17.651  0.00  0.00    +0.000 A 
ATOM     12  C   UNL     1       2.743   7.258  18.278  0.00  0.00    +0.000 A 
ATOM     13  C   UNL     1       2.312   7.005  19.581  0.00  0.00    +0.000 A 
ATOM     14  C   UNL     1       1.564   7.973  20.253  0.00  0.00    +0.000 A 
ENDBRANCH   7  13
ENDBRANCH   6   7
ENDBRANCH   2   6
ENDBRANCH   1   2
BRANCH   1  15
ATOM     15  C   UNL     1       3.133   2.612  19.142  0.00  0.00    +0.000 C 
BRANCH  15  16
ATOM     16  N   UNL     1       4.458   2.759  18.517  0.00  0.00    +0.000 NA
ATOM     17  H   UNL     1       4.958   1.893  18.310  0.00  0.00    +0.000 HD
BRANCH  16  18
ATOM     18  S   UNL     1       4.509   3.753  17.150  0.00  0.00    +0.000 S 
ATOM     19  O   UNL     1       5.045   2.948  16.073  0.00  0.00    +0.000 OA
ATOM     20  O   UNL     1       3.206   4.372  17.026  0.00  0.00    +0.000 OA
BRANCH  18  21
ATOM     21  C   UNL     1       5.706   5.016  17.491  0.00  0.00    +0.000 A 
ATOM     22  C   UNL     1       6.423   4.868  18.689  0.00  0.00    +0.000 A 
ATOM     23  C   UNL     1       7.339   5.831  19.101  0.00  0.00    +0.000 A 
ATOM     24  C   UNL     1       7.541   6.958  18.318  0.00  0.00    +0.000 A 
ATOM     25 CL   UNL     1       8.689   8.138  18.821  0.00  0.00    +0.000 Cl
ATOM     26  C   UNL     1       6.827   7.135  17.132  0.00  0.00    +0.000 A 
ATOM     27  C   UNL     1       5.890   6.163  16.716  0.00  0.00    +0.000 A 
ATOM     28 CL   UNL     1       5.045   6.495  15.250  0.00  0.00    +0.000 Cl
ENDBRANCH  18  21
ENDBRANCH  16  18
ENDBRANCH  15  16
ENDBRANCH   1  15
TORSDOF 9
ENDMDL
MODEL 6
REMARK VINA RESULT:      -7.0      2.340      2.933
REMARK  Name = 
REMARK  10 active torsions:
REMARK  status: ('A' for Active; 'I' for Inactive)
REMARK    1  A    between atoms: C_1  and  C_2
REMARK    2  A    between atoms: C_6  and  O_7
REMARK    3  A    between atoms: O_7  and  C_8
REMARK    4  A    between atoms: C_8  and  C_9
REMARK    5  A    between atoms: C_9  and  N_10
REMARK    6  A    between atoms: C_9  and  C_11
REMARK    7  A    between atoms: C_11  and  C_12
REMARK    8  A    between atoms: C_12  and  N_13
REMARK    9  A    between atoms: N_13  and  S_14
REMARK   10  A    between atoms: S_14  and  C_17
REMARK                            x       y       z     vdW  Elec       q    Type
REMARK                         _______ _______ _______ _____ _____    ______ ____
ROOT
ATOM      1  C   UNL     1       7.963   6.096  18.802  0.00  0.00    +0.000 C 
ENDROOT
BRANCH   1   2
ATOM      2  C   UNL     1       7.693   7.537  18.347  0.00  0.00    +0.000 C 
BRANCH   2   3
ATOM      3  N   UNL     1       7.591   7.598  16.877  0.00  0.00    +0.000 NA
ATOM      4  H   UNL     1       7.887   8.518  16.550  0.00  0.00    +0.000 HD
ATOM      5  H   UNL     1       6.599   7.547  16.636  0.00  0.00    +0.000 HD
ENDBRANCH   2   3
BRANCH   2   6
ATOM      6  C   UNL     1       8.786   8.494  18.860  0.00  0.00    +0.000 C 
BRANCH   6   7
ATOM      7  O   UNL     1       8.608   9.768  18.227  0.00  0.00    +0.000 OA
BRANCH   7  13
ATOM      8  C   UNL     1      11.808  13.388  17.095  0.00  0.00    +0.000 C 
ATOM      9  C   UNL     1      11.094  12.531  18.097  0.00  0.00    +0.000 A 
ATOM     10  C   UNL     1      11.321  12.673  19.470  0.00  0.00    +0.000 A 
ATOM     11  C   UNL     1      10.649  11.857  20.380  0.00  0.00    +0.000 A 
ATOM     12  C   UNL     1       9.747  10.896  19.921  0.00  0.00    +0.000 A 
ATOM     13  C   UNL     1       9.510  10.742  18.555  0.00  0.00    +0.000 A 
ATOM     14  C   UNL     1      10.185  11.562  17.649  0.00  0.00    +0.000 A 
ENDBRANCH   7  13
ENDBRANCH   6   7
ENDBRANCH   2   6
ENDBRANCH   1   2
BRANCH   1  15
ATOM     15  C   UNL     1       6.661   5.342  19.064  0.00  0.00    +0.000 C 
BRANCH  15  16
ATOM     16  N   UNL     1       6.184   4.707  17.825  0.00  0.00    +0.000 NA
ATOM     17  H   UNL     1       6.333   3.699  17.747  0.00  0.00    +0.000 HD
BRANCH  16  18
ATOM     18  S   UNL     1       4.583   5.051  17.403  0.00  0.00    +0.000 S 
ATOM     19  O   UNL     1       4.417   6.482  17.540  0.00  0.00    +0.000 OA
ATOM     20  O   UNL     1       4.328   4.400  16.136  0.00  0.00    +0.000 OA
BRANCH  18  21
ATOM     21  C   UNL     1       3.564   4.297  18.643  0.00  0.00    +0.000 A 
ATOM     22  C   UNL     1       3.053   5.164  19.622  0.00  0.00    +0.000 A 
ATOM     23  C   UNL     1       2.299   4.681  20.687  0.00  0.00    +0.000 A 
ATOM     24  C   UNL     1       2.055   3.319  20.786  0.00  0.00    +0.000 A 
ATOM     25 CL   UNL     1       1.106   2.726  22.094  0.00  0.00    +0.000 Cl
ATOM     26  C   UNL     1       2.568   2.436  19.835  0.00  0.00    +0.000 A 
ATOM     27  C   UNL     1       3.341   2.923  18.758  0.00  0.00    +0.000 A 
ATOM     28 CL   UNL     1       3.947   1.742  17.657  0.00  0.00    +0.000 Cl
ENDBRANCH  18  21
ENDBRANCH  16  18
ENDBRANCH  15  16
ENDBRANCH   1  15
TORSDOF 9
ENDMDL
MODEL 7
REMARK VINA RESULT:      -6.9      2.963      3.734
REMARK  Name = 
REMARK  10 active torsions:
REMARK  status: ('A' for Active; 'I' for Inactive)
REMARK    1  A    between atoms: C_1  and  C_2
REMARK    2  A    between atoms: C_6  and  O_7
REMARK    3  A    between atoms: O_7  and  C_8
REMARK    4  A    between atoms: C_8  and  C_9
REMARK    5  A    between atoms: C_9  and  N_10
REMARK    6  A    between atoms: C_9  and  C_11
REMARK    7  A    between atoms: C_11  and  C_12
REMARK    8  A    between atoms: C_12  and  N_13
REMARK    9  A    between atoms: N_13  and  S_14
REMARK   10  A    between atoms: S_14  and  C_17
REMARK                            x       y       z     vdW  Elec       q    Type
REMARK                         _______ _______ _______ _____ _____    ______ ____
ROOT
ATOM      1  C   UNL     1       7.395   8.855  17.407  0.00  0.00    +0.000 C 
ENDROOT
BRANCH   1   2
ATOM      2  C   UNL     1       8.707   8.848  18.205  0.00  0.00    +0.000 C 
BRANCH   2   3
ATOM      3  N   UNL     1       8.698   7.753  19.193  0.00  0.00    +0.000 NA
ATOM      4  H   UNL     1       9.173   8.055  20.044  0.00  0.00    +0.000 HD
ATOM      5  H   UNL     1       9.285   7.002  18.824  0.00  0.00    +0.000 HD
ENDBRANCH   2   3
BRANCH   2   6
ATOM      6  C   UNL     1       8.944  10.205  18.894  0.00  0.00    +0.000 C 
BRANCH   6   7
ATOM      7  O   UNL     1       9.528  11.103  17.942  0.00  0.00    +0.000 OA
BRANCH   7  13
ATOM      8  C   UNL     1      10.477  14.704  21.222  0.00  0.00    +0.000 C 
ATOM      9  C   UNL     1      10.844  13.900  20.010  0.00  0.00    +0.000 A 
ATOM     10  C   UNL     1      12.021  14.151  19.298  0.00  0.00    +0.000 A 
ATOM     11  C   UNL     1      12.333  13.392  18.171  0.00  0.00    +0.000 A 
ATOM     12  C   UNL     1      11.470  12.379  17.750  0.00  0.00    +0.000 A 
ATOM     13  C   UNL     1      10.292  12.117  18.450  0.00  0.00    +0.000 A 
ATOM     14  C   UNL     1       9.985  12.879  19.578  0.00  0.00    +0.000 A 
ENDBRANCH   7  13
ENDBRANCH   6   7
ENDBRANCH   2   6
ENDBRANCH   1   2
BRANCH   1  15
ATOM     15  C   UNL     1       6.664   7.520  17.527  0.00  0.00    +0.000 C 
BRANCH  15  16
ATOM     16  N   UNL     1       7.411   6.467  16.818  0.00  0.00    +0.000 NA
ATOM     17  H   UNL     1       8.378   6.687  16.572  0.00  0.00    +0.000 HD
BRANCH  16  18
ATOM     18  S   UNL     1       7.372   4.938  17.539  0.00  0.00    +0.000 S 
ATOM     19  O   UNL     1       7.971   4.020  16.595  0.00  0.00    +0.000 OA
ATOM     20  O   UNL     1       7.920   5.083  18.872  0.00  0.00    +0.000 OA
BRANCH  18  21
ATOM     21  C   UNL     1       5.662   4.490  17.675  0.00  0.00    +0.000 A 
ATOM     22  C   UNL     1       5.182   4.307  18.981  0.00  0.00    +0.000 A 
ATOM     23  C   UNL     1       3.877   3.885  19.215  0.00  0.00    +0.000 A 
ATOM     24  C   UNL     1       3.039   3.635  18.137  0.00  0.00    +0.000 A 
ATOM     25 CL   UNL     1       1.419   3.131  18.429  0.00  0.00    +0.000 Cl
ATOM     26  C   UNL     1       3.501   3.792  16.830  0.00  0.00    +0.000 A 
ATOM     27  C   UNL     1       4.827   4.212  16.590  0.00  0.00    +0.000 A 
ATOM     28 CL   UNL     1       5.299   4.349  14.937  0.00  0.00    +0.000 Cl
ENDBRANCH  18  21
ENDBRANCH  16  18
ENDBRANCH  15  16
ENDBRANCH   1  15
TORSDOF 9
ENDMDL
MODEL 8
REMARK VINA RESULT:      -6.9      4.232      6.097
REMARK  Name = 
REMARK  10 active torsions:
REMARK  status: ('A' for Active; 'I' for Inactive)
REMARK    1  A    between atoms: C_1  and  C_2
REMARK    2  A    between atoms: C_6  and  O_7
REMARK    3  A    between atoms: O_7  and  C_8
REMARK    4  A    between atoms: C_8  and  C_9
REMARK    5  A    between atoms: C_9  and  N_10
REMARK    6  A    between atoms: C_9  and  C_11
REMARK    7  A    between atoms: C_11  and  C_12
REMARK    8  A    between atoms: C_12  and  N_13
REMARK    9  A    between atoms: N_13  and  S_14
REMARK   10  A    between atoms: S_14  and  C_17
REMARK                            x       y       z     vdW  Elec       q    Type
REMARK                         _______ _______ _______ _____ _____    ______ ____
ROOT
ATOM      1  C   UNL     1       6.216   5.704  18.667  0.00  0.00    +0.000 C 
ENDROOT
BRANCH   1   2
ATOM      2  C   UNL     1       7.411   5.655  17.705  0.00  0.00    +0.000 C 
BRANCH   2   3
ATOM      3  N   UNL     1       7.597   6.965  17.053  0.00  0.00    +0.000 NA
ATOM      4  H   UNL     1       7.611   7.701  17.760  0.00  0.00    +0.000 HD
ATOM      5  H   UNL     1       6.757   7.155  16.502  0.00  0.00    +0.000 HD
ENDBRANCH   2   3
BRANCH   2   6
ATOM      6  C   UNL     1       7.230   4.543  16.654  0.00  0.00    +0.000 C 
BRANCH   6   7
ATOM      7  O   UNL     1       6.264   4.981  15.690  0.00  0.00    +0.000 OA
BRANCH   7  13
ATOM      8  C   UNL     1       5.433   2.374  11.550  0.00  0.00    +0.000 C 
ATOM      9  C   UNL     1       6.178   3.431  12.310  0.00  0.00    +0.000 A 
ATOM     10  C   UNL     1       7.210   4.164  11.717  0.00  0.00    +0.000 A 
ATOM     11  C   UNL     1       7.891   5.136  12.450  0.00  0.00    +0.000 A 
ATOM     12  C   UNL     1       7.542   5.379  13.780  0.00  0.00    +0.000 A 
ATOM     13  C   UNL     1       6.514   4.655  14.385  0.00  0.00    +0.000 A 
ATOM     14  C   UNL     1       5.835   3.685  13.647  0.00  0.00    +0.000 A 
ENDBRANCH   7  13
ENDBRANCH   6   7
ENDBRANCH   2   6
ENDBRANCH   1   2
BRANCH   1  15
ATOM     15  C   UNL     1       5.734   4.301  19.028  0.00  0.00    +0.000 C 
BRANCH  15  16
ATOM     16  N   UNL     1       4.895   3.759  17.945  0.00  0.00    +0.000 NA
ATOM     17  H   UNL     1       5.259   2.938  17.459  0.00  0.00    +0.000 HD
BRANCH  16  18
ATOM     18  S   UNL     1       3.279   3.472  18.354  0.00  0.00    +0.000 S 
ATOM     19  O   UNL     1       2.575   3.233  17.113  0.00  0.00    +0.000 OA
ATOM     20  O   UNL     1       3.278   2.475  19.404  0.00  0.00    +0.000 OA
BRANCH  18  21
ATOM     21  C   UNL     1       2.650   4.992  19.015  0.00  0.00    +0.000 A 
ATOM     22  C   UNL     1       2.667   6.090  18.141  0.00  0.00    +0.000 A 
ATOM     23  C   UNL     1       2.265   7.353  18.565  0.00  0.00    +0.000 A 
ATOM     24  C   UNL     1       1.849   7.530  19.877  0.00  0.00    +0.000 A 
ATOM     25 CL   UNL     1       1.336   9.090  20.394  0.00  0.00    +0.000 Cl
ATOM     26  C   UNL     1       1.843   6.457  20.769  0.00  0.00    +0.000 A 
ATOM     27  C   UNL     1       2.258   5.177  20.343  0.00  0.00    +0.000 A 
ATOM     28 CL   UNL     1       2.234   3.930  21.534  0.00  0.00    +0.000 Cl
ENDBRANCH  18  21
ENDBRANCH  16  18
ENDBRANCH  15  16
ENDBRANCH   1  15
TORSDOF 9
ENDMDL
MODEL 9
REMARK VINA RESULT:      -6.8      1.570      2.334
REMARK  Name = 
REMARK  10 active torsions:
REMARK  status: ('A' for Active; 'I' for Inactive)
REMARK    1  A    between atoms: C_1  and  C_2
REMARK    2  A    between atoms: C_6  and  O_7
REMARK    3  A    between atoms: O_7  and  C_8
REMARK    4  A    between atoms: C_8  and  C_9
REMARK    5  A    between atoms: C_9  and  N_10
REMARK    6  A    between atoms: C_9  and  C_11
REMARK    7  A    between atoms: C_11  and  C_12
REMARK    8  A    between atoms: C_12  and  N_13
REMARK    9  A    between atoms: N_13  and  S_14
REMARK   10  A    between atoms: S_14  and  C_17
REMARK                            x       y       z     vdW  Elec       q    Type
REMARK                         _______ _______ _______ _____ _____    ______ ____
ROOT
ATOM      1  C   UNL     1       7.765   5.708  18.713  0.00  0.00    +0.000 C 
ENDROOT
BRANCH   1   2
ATOM      2  C   UNL     1       7.586   7.112  18.117  0.00  0.00    +0.000 C 
BRANCH   2   3
ATOM      3  N   UNL     1       7.714   7.064  16.649  0.00  0.00    +0.000 NA
ATOM      4  H   UNL     1       7.895   6.105  16.351  0.00  0.00    +0.000 HD
ATOM      5  H   UNL     1       8.563   7.575  16.398  0.00  0.00    +0.000 HD
ENDBRANCH   2   3
BRANCH   2   6
ATOM      6  C   UNL     1       8.600   8.103  18.722  0.00  0.00    +0.000 C 
BRANCH   6   7
ATOM      7  O   UNL     1       8.428   9.374  18.084  0.00  0.00    +0.000 OA
BRANCH   7  13
ATOM      8  C   UNL     1       9.745  12.425  21.770  0.00  0.00    +0.000 C 
ATOM      9  C   UNL     1       9.851  11.959  20.349  0.00  0.00    +0.000 A 
ATOM     10  C   UNL     1      10.706  12.587  19.438  0.00  0.00    +0.000 A 
ATOM     11  C   UNL     1      10.779  12.137  18.120  0.00  0.00    +0.000 A 
ATOM     12  C   UNL     1       9.999  11.056  17.707  0.00  0.00    +0.000 A 
ATOM     13  C   UNL     1       9.141  10.419  18.605  0.00  0.00    +0.000 A 
ATOM     14  C   UNL     1       9.072  10.873  19.923  0.00  0.00    +0.000 A 
ENDBRANCH   7  13
ENDBRANCH   6   7
ENDBRANCH   2   6
ENDBRANCH   1   2
BRANCH   1  15
ATOM     15  C   UNL     1       6.423   5.100  19.117  0.00  0.00    +0.000 C 
BRANCH  15  16
ATOM     16  N   UNL     1       5.697   4.635  17.923  0.00  0.00    +0.000 NA
ATOM     17  H   UNL     1       6.198   3.985  17.315  0.00  0.00    +0.000 HD
BRANCH  16  18
ATOM     18  S   UNL     1       4.147   4.023  18.210  0.00  0.00    +0.000 S 
ATOM     19  O   UNL     1       3.527   3.845  16.914  0.00  0.00    +0.000 OA
ATOM     20  O   UNL     1       4.294   2.902  19.114  0.00  0.00    +0.000 OA
BRANCH  18  21
ATOM     21  C   UNL     1       3.246   5.305  19.038  0.00  0.00    +0.000 A 
ATOM     22  C   UNL     1       2.529   4.907  20.178  0.00  0.00    +0.000 A 
ATOM     23  C   UNL     1       1.727   5.807  20.872  0.00  0.00    +0.000 A 
ATOM     24  C   UNL     1       1.627   7.117  20.425  0.00  0.00    +0.000 A 
ATOM     25 CL   UNL     1       0.648   8.233  21.297  0.00  0.00    +0.000 Cl
ATOM     26  C   UNL     1       2.316   7.530  19.283  0.00  0.00    +0.000 A 
ATOM     27  C   UNL     1       3.124   6.616  18.572  0.00  0.00    +0.000 A 
ATOM     28 CL   UNL     1       3.909   7.226  17.163  0.00  0.00    +0.000 Cl
ENDBRANCH  18  21
ENDBRANCH  16  18
ENDBRANCH  15  16
ENDBRANCH   1  15
TORSDOF 9
ENDMDL
