MODEL 1
REMARK VINA RESULT:      -8.8      0.000      0.000
REMARK  Name = 
REMARK  4 active torsions:
REMARK  status: ('A' for Active; 'I' for Inactive)
REMARK    1  A    between atoms: C_2  and  C_4
REMARK    2  A    between atoms: C_4  and  N_5
REMARK    3  A    between atoms: C_6  and  C_8
REMARK    4  A    between atoms: C_13  and  C_14
REMARK                            x       y       z     vdW  Elec       q    Type
REMARK                         _______ _______ _______ _____ _____    ______ ____
ROOT
ATOM      1  C   UNL     1       2.547   7.383  19.088  0.00  0.00    +0.000 A 
ATOM      2  C   UNL     1       2.513   8.221  17.889  0.00  0.00    +0.000 A 
ATOM      3  C   UNL     1       1.801   9.368  17.852  0.00  0.00    +0.000 A 
ATOM      4  C   UNL     1       1.059   9.782  18.997  0.00  0.00    +0.000 A 
ATOM      5  N   UNL     1       0.272  10.818  19.205  0.00  0.00    +0.000 NA
ATOM      6  C   UNL     1      -0.222  10.656  20.483  0.00  0.00    +0.000 A 
ATOM      7  C   UNL     1       0.313   9.529  21.071  0.00  0.00    +0.000 A 
ATOM      8  N   UNL     1       1.116   8.960  20.116  0.00  0.00    +0.000 N 
ATOM      9  C   UNL     1       1.850   7.782  20.170  0.00  0.00    +0.000 A 
ENDROOT
BRANCH   6  10
ATOM     10  C   UNL     1      -1.161  11.574  21.108  0.00  0.00    +0.000 A 
ATOM     11  C   UNL     1      -2.026  12.374  20.341  0.00  0.00    +0.000 A 
ATOM     12  C   UNL     1      -2.931  13.240  20.963  0.00  0.00    +0.000 A 
ATOM     13  C   UNL     1      -2.972  13.308  22.349  0.00  0.00    +0.000 A 
ATOM     14  F   UNL     1      -3.844  14.132  22.944  0.00  0.00    +0.000 F 
ATOM     15  C   UNL     1      -2.120  12.533  23.128  0.00  0.00    +0.000 A 
ATOM     16  C   UNL     1      -1.211  11.673  22.506  0.00  0.00    +0.000 A 
ENDBRANCH   6  10
BRANCH   1  18
ATOM     17  N   UNL     1       2.381   4.981  18.722  0.00  0.00    +0.000 N 
ATOM     18  C   UNL     1       3.164   6.023  19.148  0.00  0.00    +0.000 C 
ATOM     19  O   UNL     1       4.305   5.883  19.579  0.00  0.00    +0.000 OA
ATOM     20  H   UNL     1       1.410   5.168  18.514  0.00  0.00    +0.000 HD
BRANCH  17  21
ATOM     21  C   UNL     1       2.772   3.553  18.812  0.00  0.00    +0.000 C 
ATOM     22  C   UNL     1       1.759   2.563  18.211  0.00  0.00    +0.000 C 
ATOM     23  C   UNL     1       0.655   2.450  19.249  0.00  0.00    +0.000 C 
ATOM     24  C   UNL     1       1.336   2.666  20.594  0.00  0.00    +0.000 C 
ATOM     25  C   UNL     1       2.766   3.111  20.291  0.00  0.00    +0.000 C 
BRANCH  21  27
ATOM     26  N   UNL     1       5.173   3.021  19.055  0.00  0.00    +0.000 N 
ATOM     27  C   UNL     1       4.174   3.343  18.182  0.00  0.00    +0.000 C 
ATOM     28  O   UNL     1       4.418   3.463  16.985  0.00  0.00    +0.000 OA
ATOM     29  H   UNL     1       6.112   2.900  18.703  0.00  0.00    +0.000 HD
ATOM     30  H   UNL     1       4.991   2.892  20.049  0.00  0.00    +0.000 HD
ENDBRANCH  21  27
ENDBRANCH  17  21
ENDBRANCH   1  18
TORSDOF 4
ENDMDL
MODEL 2
REMARK VINA RESULT:      -8.8      1.167      1.289
REMARK  Name = 
REMARK  4 active torsions:
REMARK  status: ('A' for Active; 'I' for Inactive)
REMARK    1  A    between atoms: C_2  and  C_4
REMARK    2  A    between atoms: C_4  and  N_5
REMARK    3  A    between atoms: C_6  and  C_8
REMARK    4  A    between atoms: C_13  and  C_14
REMARK                            x       y       z     vdW  Elec       q    Type
REMARK                         _______ _______ _______ _____ _____    ______ ____
ROOT
ATOM      1  C   UNL     1       2.415   7.365  18.853  0.00  0.00    +0.000 A 
ATOM      2  C   UNL     1       2.266   8.302  17.737  0.00  0.00    +0.000 A 
ATOM      3  C   UNL     1       1.686   9.510  17.907  0.00  0.00    +0.000 A 
ATOM      4  C   UNL     1       1.204   9.895  19.192  0.00  0.00    +0.000 A 
ATOM      5  N   UNL     1       0.583  10.979  19.608  0.00  0.00    +0.000 NA
ATOM      6  C   UNL     1       0.303  10.757  20.941  0.00  0.00    +0.000 A 
ATOM      7  C   UNL     1       0.806   9.538  21.346  0.00  0.00    +0.000 A 
ATOM      8  N   UNL     1       1.364   8.979  20.225  0.00  0.00    +0.000 N 
ATOM      9  C   UNL     1       1.963   7.735  20.067  0.00  0.00    +0.000 A 
ENDROOT
BRANCH   6  10
ATOM     10  C   UNL     1      -0.408  11.704  21.786  0.00  0.00    +0.000 A 
ATOM     11  C   UNL     1      -0.073  13.069  21.800  0.00  0.00    +0.000 A 
ATOM     12  C   UNL     1      -0.779  13.965  22.610  0.00  0.00    +0.000 A 
ATOM     13  C   UNL     1      -1.817  13.498  23.405  0.00  0.00    +0.000 A 
ATOM     14  F   UNL     1      -2.497  14.357  24.174  0.00  0.00    +0.000 F 
ATOM     15  C   UNL     1      -2.159  12.151  23.414  0.00  0.00    +0.000 A 
ATOM     16  C   UNL     1      -1.449  11.254  22.610  0.00  0.00    +0.000 A 
ENDBRANCH   6  10
BRANCH   1  18
ATOM     17  N   UNL     1       1.995   4.978  19.093  0.00  0.00    +0.000 N 
ATOM     18  C   UNL     1       2.881   5.953  18.709  0.00  0.00    +0.000 C 
ATOM     19  O   UNL     1       4.009   5.716  18.284  0.00  0.00    +0.000 OA
ATOM     20  H   UNL     1       1.145   5.263  19.558  0.00  0.00    +0.000 HD
BRANCH  17  21
ATOM     21  C   UNL     1       2.315   3.531  19.133  0.00  0.00    +0.000 C 
ATOM     22  C   UNL     1       1.161   2.623  19.594  0.00  0.00    +0.000 C 
ATOM     23  C   UNL     1       1.118   2.778  21.106  0.00  0.00    +0.000 C 
ATOM     24  C   UNL     1       2.555   3.053  21.529  0.00  0.00    +0.000 C 
ATOM     25  C   UNL     1       3.354   3.264  20.242  0.00  0.00    +0.000 C 
BRANCH  21  27
ATOM     26  N   UNL     1       4.145   2.625  17.741  0.00  0.00    +0.000 N 
ATOM     27  C   UNL     1       2.852   3.063  17.754  0.00  0.00    +0.000 C 
ATOM     28  O   UNL     1       2.199   3.084  16.715  0.00  0.00    +0.000 OA
ATOM     29  H   UNL     1       4.555   2.336  16.865  0.00  0.00    +0.000 HD
ATOM     30  H   UNL     1       4.700   2.575  18.593  0.00  0.00    +0.000 HD
ENDBRANCH  21  27
ENDBRANCH  17  21
ENDBRANCH   1  18
TORSDOF 4
ENDMDL
MODEL 3
REMARK VINA RESULT:      -8.6      1.230      1.302
REMARK  Name = 
REMARK  4 active torsions:
REMARK  status: ('A' for Active; 'I' for Inactive)
REMARK    1  A    between atoms: C_2  and  C_4
REMARK    2  A    between atoms: C_4  and  N_5
REMARK    3  A    between atoms: C_6  and  C_8
REMARK    4  A    between atoms: C_13  and  C_14
REMARK                            x       y       z     vdW  Elec       q    Type
REMARK                         _______ _______ _______ _____ _____    ______ ____
ROOT
ATOM      1  C   UNL     1       2.378   7.373  18.732  0.00  0.00    +0.000 A 
ATOM      2  C   UNL     1       2.379   8.386  17.675  0.00  0.00    +0.000 A 
ATOM      3  C   UNL     1       1.882   9.624  17.887  0.00  0.00    +0.000 A 
ATOM      4  C   UNL     1       1.341   9.965  19.161  0.00  0.00    +0.000 A 
ATOM      5  N   UNL     1       0.776  11.068  19.607  0.00  0.00    +0.000 NA
ATOM      6  C   UNL     1       0.387  10.787  20.901  0.00  0.00    +0.000 A 
ATOM      7  C   UNL     1       0.767   9.509  21.256  0.00  0.00    +0.000 A 
ATOM      8  N   UNL     1       1.359   8.978  20.139  0.00  0.00    +0.000 N 
ATOM      9  C   UNL     1       1.872   7.702  19.937  0.00  0.00    +0.000 A 
ENDROOT
BRANCH   6  10
ATOM     10  C   UNL     1      -0.308  11.734  21.759  0.00  0.00    +0.000 A 
ATOM     11  C   UNL     1       0.022  13.100  21.763  0.00  0.00    +0.000 A 
ATOM     12  C   UNL     1      -0.668  13.996  22.586  0.00  0.00    +0.000 A 
ATOM     13  C   UNL     1      -1.687  13.527  23.405  0.00  0.00    +0.000 A 
ATOM     14  F   UNL     1      -2.352  14.386  24.188  0.00  0.00    +0.000 F 
ATOM     15  C   UNL     1      -2.024  12.179  23.425  0.00  0.00    +0.000 A 
ATOM     16  C   UNL     1      -1.329  11.283  22.608  0.00  0.00    +0.000 A 
ENDBRANCH   6  10
BRANCH   1  18
ATOM     17  N   UNL     1       2.525   5.096  19.584  0.00  0.00    +0.000 N 
ATOM     18  C   UNL     1       2.746   5.940  18.525  0.00  0.00    +0.000 C 
ATOM     19  O   UNL     1       3.234   5.576  17.459  0.00  0.00    +0.000 OA
ATOM     20  H   UNL     1       2.250   5.502  20.468  0.00  0.00    +0.000 HD
BRANCH  17  21
ATOM     21  C   UNL     1       2.929   3.670  19.612  0.00  0.00    +0.000 C 
ATOM     22  C   UNL     1       1.973   2.709  18.883  0.00  0.00    +0.000 C 
ATOM     23  C   UNL     1       0.803   2.520  19.836  0.00  0.00    +0.000 C 
ATOM     24  C   UNL     1       1.390   2.658  21.235  0.00  0.00    +0.000 C 
ATOM     25  C   UNL     1       2.831   3.135  21.056  0.00  0.00    +0.000 C 
BRANCH  21  27
ATOM     26  N   UNL     1       4.485   2.868  17.868  0.00  0.00    +0.000 N 
ATOM     27  C   UNL     1       4.373   3.513  19.066  0.00  0.00    +0.000 C 
ATOM     28  O   UNL     1       5.378   3.912  19.646  0.00  0.00    +0.000 OA
ATOM     29  H   UNL     1       5.404   2.713  17.479  0.00  0.00    +0.000 HD
ATOM     30  H   UNL     1       3.666   2.549  17.355  0.00  0.00    +0.000 HD
ENDBRANCH  21  27
ENDBRANCH  17  21
ENDBRANCH   1  18
TORSDOF 4
ENDMDL
MODEL 4
REMARK VINA RESULT:      -8.4      1.345      2.549
REMARK  Name = 
REMARK  4 active torsions:
REMARK  status: ('A' for Active; 'I' for Inactive)
REMARK    1  A    between atoms: C_2  and  C_4
REMARK    2  A    between atoms: C_4  and  N_5
REMARK    3  A    between atoms: C_6  and  C_8
REMARK    4  A    between atoms: C_13  and  C_14
REMARK                            x       y       z     vdW  Elec       q    Type
REMARK                         _______ _______ _______ _____ _____    ______ ____
ROOT
ATOM      1  C   UNL     1       2.490   7.423  18.985  0.00  0.00    +0.000 A 
ATOM      2  C   UNL     1       2.400   8.303  17.818  0.00  0.00    +0.000 A 
ATOM      3  C   UNL     1       1.675   9.443  17.851  0.00  0.00    +0.000 A 
ATOM      4  C   UNL     1       0.978   9.808  19.039  0.00  0.00    +0.000 A 
ATOM      5  N   UNL     1       0.190  10.828  19.316  0.00  0.00    +0.000 NA
ATOM      6  C   UNL     1      -0.249  10.616  20.607  0.00  0.00    +0.000 A 
ATOM      7  C   UNL     1       0.320   9.475  21.132  0.00  0.00    +0.000 A 
ATOM      8  N   UNL     1       1.088   8.948  20.125  0.00  0.00    +0.000 N 
ATOM      9  C   UNL     1       1.834   7.777  20.108  0.00  0.00    +0.000 A 
ENDROOT
BRANCH   6  10
ATOM     10  C   UNL     1      -1.170  11.501  21.302  0.00  0.00    +0.000 A 
ATOM     11  C   UNL     1      -1.341  11.435  22.695  0.00  0.00    +0.000 A 
ATOM     12  C   UNL     1      -2.222  12.305  23.346  0.00  0.00    +0.000 A 
ATOM     13  C   UNL     1      -2.933  13.240  22.604  0.00  0.00    +0.000 A 
ATOM     14  F   UNL     1      -3.771  14.077  23.228  0.00  0.00    +0.000 F 
ATOM     15  C   UNL     1      -2.788  13.317  21.224  0.00  0.00    +0.000 A 
ATOM     16  C   UNL     1      -1.912  12.442  20.573  0.00  0.00    +0.000 A 
ENDBRANCH   6  10
BRANCH   1  18
ATOM     17  N   UNL     1       3.739   5.698  17.804  0.00  0.00    +0.000 N 
ATOM     18  C   UNL     1       3.122   6.069  18.972  0.00  0.00    +0.000 C 
ATOM     19  O   UNL     1       3.056   5.348  19.963  0.00  0.00    +0.000 OA
ATOM     20  H   UNL     1       3.626   6.294  16.995  0.00  0.00    +0.000 HD
BRANCH  17  21
ATOM     21  C   UNL     1       4.319   4.356  17.558  0.00  0.00    +0.000 C 
ATOM     22  C   UNL     1       5.539   4.007  18.428  0.00  0.00    +0.000 C 
ATOM     23  C   UNL     1       6.701   4.757  17.796  0.00  0.00    +0.000 C 
ATOM     24  C   UNL     1       6.379   4.830  16.310  0.00  0.00    +0.000 C 
ATOM     25  C   UNL     1       4.948   4.317  16.149  0.00  0.00    +0.000 C 
BRANCH  21  27
ATOM     26  N   UNL     1       3.405   2.375  18.719  0.00  0.00    +0.000 N 
ATOM     27  C   UNL     1       3.224   3.266  17.700  0.00  0.00    +0.000 C 
ATOM     28  O   UNL     1       2.251   3.164  16.959  0.00  0.00    +0.000 OA
ATOM     29  H   UNL     1       2.737   1.627  18.840  0.00  0.00    +0.000 HD
ATOM     30  H   UNL     1       4.190   2.453  19.362  0.00  0.00    +0.000 HD
ENDBRANCH  21  27
ENDBRANCH  17  21
ENDBRANCH   1  18
TORSDOF 4
ENDMDL
MODEL 5
REMARK VINA RESULT:      -8.4      1.227      1.950
REMARK  Name = 
REMARK  4 active torsions:
REMARK  status: ('A' for Active; 'I' for Inactive)
REMARK    1  A    between atoms: C_2  and  C_4
REMARK    2  A    between atoms: C_4  and  N_5
REMARK    3  A    between atoms: C_6  and  C_8
REMARK    4  A    between atoms: C_13  and  C_14
REMARK                            x       y       z     vdW  Elec       q    Type
REMARK                         _______ _______ _______ _____ _____    ______ ____
ROOT
ATOM      1  C   UNL     1       2.487   7.048  19.378  0.00  0.00    +0.000 A 
ATOM      2  C   UNL     1       2.465   7.796  18.120  0.00  0.00    +0.000 A 
ATOM      3  C   UNL     1       1.800   8.967  18.009  0.00  0.00    +0.000 A 
ATOM      4  C   UNL     1       1.099   9.496  19.132  0.00  0.00    +0.000 A 
ATOM      5  N   UNL     1       0.360  10.577  19.275  0.00  0.00    +0.000 NA
ATOM      6  C   UNL     1      -0.116  10.531  20.570  0.00  0.00    +0.000 A 
ATOM      7  C   UNL     1       0.383   9.428  21.231  0.00  0.00    +0.000 A 
ATOM      8  N   UNL     1       1.143   8.757  20.308  0.00  0.00    +0.000 N 
ATOM      9  C   UNL     1       1.828   7.555  20.438  0.00  0.00    +0.000 A 
ENDROOT
BRANCH   6  10
ATOM     10  C   UNL     1      -1.004  11.532  21.139  0.00  0.00    +0.000 A 
ATOM     11  C   UNL     1      -1.834  12.324  20.327  0.00  0.00    +0.000 A 
ATOM     12  C   UNL     1      -2.690  13.272  20.896  0.00  0.00    +0.000 A 
ATOM     13  C   UNL     1      -2.718  13.429  22.276  0.00  0.00    +0.000 A 
ATOM     14  F   UNL     1      -3.543  14.331  22.821  0.00  0.00    +0.000 F 
ATOM     15  C   UNL     1      -1.900  12.663  23.099  0.00  0.00    +0.000 A 
ATOM     16  C   UNL     1      -1.038  11.721  22.528  0.00  0.00    +0.000 A 
ENDBRANCH   6  10
BRANCH   1  18
ATOM     17  N   UNL     1       2.159   4.634  19.395  0.00  0.00    +0.000 N 
ATOM     18  C   UNL     1       3.048   5.671  19.529  0.00  0.00    +0.000 C 
ATOM     19  O   UNL     1       4.240   5.515  19.778  0.00  0.00    +0.000 OA
ATOM     20  H   UNL     1       1.176   4.855  19.328  0.00  0.00    +0.000 HD
BRANCH  17  21
ATOM     21  C   UNL     1       2.501   3.210  19.623  0.00  0.00    +0.000 C 
ATOM     22  C   UNL     1       3.939   2.818  19.242  0.00  0.00    +0.000 C 
ATOM     23  C   UNL     1       3.926   2.696  17.727  0.00  0.00    +0.000 C 
ATOM     24  C   UNL     1       2.517   2.244  17.366  0.00  0.00    +0.000 C 
ATOM     25  C   UNL     1       1.692   2.325  18.651  0.00  0.00    +0.000 C 
BRANCH  21  27
ATOM     26  N   UNL     1       0.894   2.869  21.469  0.00  0.00    +0.000 N 
ATOM     27  C   UNL     1       2.205   2.819  21.095  0.00  0.00    +0.000 C 
ATOM     28  O   UNL     1       3.065   2.494  21.909  0.00  0.00    +0.000 OA
ATOM     29  H   UNL     1       0.647   2.652  22.424  0.00  0.00    +0.000 HD
ATOM     30  H   UNL     1       0.159   3.112  20.807  0.00  0.00    +0.000 HD
ENDBRANCH  21  27
ENDBRANCH  17  21
ENDBRANCH   1  18
TORSDOF 4
ENDMDL
MODEL 6
REMARK VINA RESULT:      -8.3      1.797      2.856
REMARK  Name = 
REMARK  4 active torsions:
REMARK  status: ('A' for Active; 'I' for Inactive)
REMARK    1  A    between atoms: C_2  and  C_4
REMARK    2  A    between atoms: C_4  and  N_5
REMARK    3  A    between atoms: C_6  and  C_8
REMARK    4  A    between atoms: C_13  and  C_14
REMARK                            x       y       z     vdW  Elec       q    Type
REMARK                         _______ _______ _______ _____ _____    ______ ____
ROOT
ATOM      1  C   UNL     1       2.650   7.289  18.588  0.00  0.00    +0.000 A 
ATOM      2  C   UNL     1       2.686   8.353  17.583  0.00  0.00    +0.000 A 
ATOM      3  C   UNL     1       2.029   9.518  17.768  0.00  0.00    +0.000 A 
ATOM      4  C   UNL     1       1.279   9.730  18.962  0.00  0.00    +0.000 A 
ATOM      5  N   UNL     1       0.536  10.741  19.363  0.00  0.00    +0.000 NA
ATOM      6  C   UNL     1       0.003  10.351  20.574  0.00  0.00    +0.000 A 
ATOM      7  C   UNL     1       0.470   9.103  20.930  0.00  0.00    +0.000 A 
ATOM      8  N   UNL     1       1.269   8.698  19.892  0.00  0.00    +0.000 N 
ATOM      9  C   UNL     1       1.945   7.497  19.717  0.00  0.00    +0.000 A 
ENDROOT
BRANCH   6  10
ATOM     10  C   UNL     1      -0.908  11.171  21.357  0.00  0.00    +0.000 A 
ATOM     11  C   UNL     1      -1.054  10.986  22.743  0.00  0.00    +0.000 A 
ATOM     12  C   UNL     1      -1.926  11.794  23.480  0.00  0.00    +0.000 A 
ATOM     13  C   UNL     1      -2.651  12.786  22.833  0.00  0.00    +0.000 A 
ATOM     14  F   UNL     1      -3.480  13.565  23.540  0.00  0.00    +0.000 F 
ATOM     15  C   UNL     1      -2.530  12.981  21.462  0.00  0.00    +0.000 A 
ATOM     16  C   UNL     1      -1.664  12.168  20.725  0.00  0.00    +0.000 A 
ENDBRANCH   6  10
BRANCH   1  18
ATOM     17  N   UNL     1       4.521   5.839  18.015  0.00  0.00    +0.000 N 
ATOM     18  C   UNL     1       3.201   5.916  18.381  0.00  0.00    +0.000 C 
ATOM     19  O   UNL     1       2.478   4.933  18.520  0.00  0.00    +0.000 OA
ATOM     20  H   UNL     1       5.003   6.698  17.789  0.00  0.00    +0.000 HD
BRANCH  17  21
ATOM     21  C   UNL     1       5.214   4.579  17.654  0.00  0.00    +0.000 C 
ATOM     22  C   UNL     1       6.729   4.715  17.422  0.00  0.00    +0.000 C 
ATOM     23  C   UNL     1       6.862   5.326  16.036  0.00  0.00    +0.000 C 
ATOM     24  C   UNL     1       5.656   4.824  15.252  0.00  0.00    +0.000 C 
ATOM     25  C   UNL     1       4.747   4.118  16.258  0.00  0.00    +0.000 C 
BRANCH  21  27
ATOM     26  N   UNL     1       4.168   2.433  18.293  0.00  0.00    +0.000 N 
ATOM     27  C   UNL     1       4.926   3.487  18.717  0.00  0.00    +0.000 C 
ATOM     28  O   UNL     1       5.319   3.533  19.879  0.00  0.00    +0.000 OA
ATOM     29  H   UNL     1       3.926   1.707  18.952  0.00  0.00    +0.000 HD
ATOM     30  H   UNL     1       3.850   2.360  17.329  0.00  0.00    +0.000 HD
ENDBRANCH  21  27
ENDBRANCH  17  21
ENDBRANCH   1  18
TORSDOF 4
ENDMDL
MODEL 7
REMARK VINA RESULT:      -8.2      1.656      2.399
REMARK  Name = 
REMARK  4 active torsions:
REMARK  status: ('A' for Active; 'I' for Inactive)
REMARK    1  A    between atoms: C_2  and  C_4
REMARK    2  A    between atoms: C_4  and  N_5
REMARK    3  A    between atoms: C_6  and  C_8
REMARK    4  A    between atoms: C_13  and  C_14
REMARK                            x       y       z     vdW  Elec       q    Type
REMARK                         _______ _______ _______ _____ _____    ______ ____
ROOT
ATOM      1  C   UNL     1       2.205   7.501  19.291  0.00  0.00    +0.000 A 
ATOM      2  C   UNL     1       2.019   8.363  18.122  0.00  0.00    +0.000 A 
ATOM      3  C   UNL     1       1.417   9.567  18.225  0.00  0.00    +0.000 A 
ATOM      4  C   UNL     1       0.945  10.021  19.491  0.00  0.00    +0.000 A 
ATOM      5  N   UNL     1       0.307  11.116  19.849  0.00  0.00    +0.000 NA
ATOM      6  C   UNL     1       0.052  10.973  21.197  0.00  0.00    +0.000 A 
ATOM      7  C   UNL     1       0.587   9.792  21.669  0.00  0.00    +0.000 A 
ATOM      8  N   UNL     1       1.140   9.175  20.577  0.00  0.00    +0.000 N 
ATOM      9  C   UNL     1       1.764   7.937  20.487  0.00  0.00    +0.000 A 
ENDROOT
BRANCH   6  10
ATOM     10  C   UNL     1      -0.667  11.956  21.992  0.00  0.00    +0.000 A 
ATOM     11  C   UNL     1      -0.258  13.300  22.042  0.00  0.00    +0.000 A 
ATOM     12  C   UNL     1      -0.971  14.232  22.803  0.00  0.00    +0.000 A 
ATOM     13  C   UNL     1      -2.092  13.822  23.513  0.00  0.00    +0.000 A 
ATOM     14  F   UNL     1      -2.779  14.716  24.235  0.00  0.00    +0.000 F 
ATOM     15  C   UNL     1      -2.510  12.496  23.486  0.00  0.00    +0.000 A 
ATOM     16  C   UNL     1      -1.792  11.563  22.732  0.00  0.00    +0.000 A 
ENDBRANCH   6  10
BRANCH   1  18
ATOM     17  N   UNL     1       3.153   5.661  18.006  0.00  0.00    +0.000 N 
ATOM     18  C   UNL     1       2.700   6.092  19.228  0.00  0.00    +0.000 C 
ATOM     19  O   UNL     1       2.671   5.383  20.230  0.00  0.00    +0.000 OA
ATOM     20  H   UNL     1       3.013   6.263  17.207  0.00  0.00    +0.000 HD
BRANCH  17  21
ATOM     21  C   UNL     1       3.573   4.269  17.718  0.00  0.00    +0.000 C 
ATOM     22  C   UNL     1       4.582   3.675  18.718  0.00  0.00    +0.000 C 
ATOM     23  C   UNL     1       5.920   4.285  18.336  0.00  0.00    +0.000 C 
ATOM     24  C   UNL     1       5.849   4.518  16.832  0.00  0.00    +0.000 C 
ATOM     25  C   UNL     1       4.404   4.241  16.418  0.00  0.00    +0.000 C 
BRANCH  21  27
ATOM     26  N   UNL     1       2.564   2.013  17.747  0.00  0.00    +0.000 N 
ATOM     27  C   UNL     1       2.329   3.349  17.594  0.00  0.00    +0.000 C 
ATOM     28  O   UNL     1       1.194   3.752  17.359  0.00  0.00    +0.000 OA
ATOM     29  H   UNL     1       1.795   1.366  17.648  0.00  0.00    +0.000 HD
ATOM     30  H   UNL     1       3.492   1.657  17.966  0.00  0.00    +0.000 HD
ENDBRANCH  21  27
ENDBRANCH  17  21
ENDBRANCH   1  18
TORSDOF 4
ENDMDL
MODEL 8
REMARK VINA RESULT:      -8.1      1.637      2.473
REMARK  Name = 
REMARK  4 active torsions:
REMARK  status: ('A' for Active; 'I' for Inactive)
REMARK    1  A    between atoms: C_2  and  C_4
REMARK    2  A    between atoms: C_4  and  N_5
REMARK    3  A    between atoms: C_6  and  C_8
REMARK    4  A    between atoms: C_13  and  C_14
REMARK                            x       y       z     vdW  Elec       q    Type
REMARK                         _______ _______ _______ _____ _____    ______ ____
ROOT
ATOM      1  C   UNL     1       2.002   7.608  19.688  0.00  0.00    +0.000 A 
ATOM      2  C   UNL     1       1.939   8.504  18.531  0.00  0.00    +0.000 A 
ATOM      3  C   UNL     1       1.371   9.726  18.618  0.00  0.00    +0.000 A 
ATOM      4  C   UNL     1       0.815  10.166  19.855  0.00  0.00    +0.000 A 
ATOM      5  N   UNL     1       0.188  11.275  20.190  0.00  0.00    +0.000 NA
ATOM      6  C   UNL     1      -0.179  11.109  21.510  0.00  0.00    +0.000 A 
ATOM      7  C   UNL     1       0.277   9.899  21.991  0.00  0.00    +0.000 A 
ATOM      8  N   UNL     1       0.895   9.289  20.930  0.00  0.00    +0.000 N 
ATOM      9  C   UNL     1       1.482   8.031  20.857  0.00  0.00    +0.000 A 
ENDROOT
BRANCH   6  10
ATOM     10  C   UNL     1      -0.926  12.097  22.271  0.00  0.00    +0.000 A 
ATOM     11  C   UNL     1      -2.107  11.759  22.953  0.00  0.00    +0.000 A 
ATOM     12  C   UNL     1      -2.803  12.722  23.690  0.00  0.00    +0.000 A 
ATOM     13  C   UNL     1      -2.319  14.023  23.747  0.00  0.00    +0.000 A 
ATOM     14  F   UNL     1      -2.981  14.943  24.459  0.00  0.00    +0.000 F 
ATOM     15  C   UNL     1      -1.157  14.383  23.073  0.00  0.00    +0.000 A 
ATOM     16  C   UNL     1      -0.467  13.421  22.330  0.00  0.00    +0.000 A 
ENDBRANCH   6  10
BRANCH   1  18
ATOM     17  N   UNL     1       3.117   5.806  18.488  0.00  0.00    +0.000 N 
ATOM     18  C   UNL     1       2.452   6.185  19.627  0.00  0.00    +0.000 C 
ATOM     19  O   UNL     1       2.208   5.420  20.556  0.00  0.00    +0.000 OA
ATOM     20  H   UNL     1       3.154   6.459  17.718  0.00  0.00    +0.000 HD
BRANCH  17  21
ATOM     21  C   UNL     1       3.538   4.415  18.193  0.00  0.00    +0.000 C 
ATOM     22  C   UNL     1       4.663   3.873  19.093  0.00  0.00    +0.000 C 
ATOM     23  C   UNL     1       5.937   4.501  18.553  0.00  0.00    +0.000 C 
ATOM     24  C   UNL     1       5.699   4.688  17.060  0.00  0.00    +0.000 C 
ATOM     25  C   UNL     1       4.225   4.368  16.812  0.00  0.00    +0.000 C 
BRANCH  21  27
ATOM     26  N   UNL     1       2.352   2.483  19.176  0.00  0.00    +0.000 N 
ATOM     27  C   UNL     1       2.312   3.466  18.229  0.00  0.00    +0.000 C 
ATOM     28  O   UNL     1       1.354   3.546  17.465  0.00  0.00    +0.000 OA
ATOM     29  H   UNL     1       1.593   1.819  19.225  0.00  0.00    +0.000 HD
ATOM     30  H   UNL     1       3.123   2.411  19.836  0.00  0.00    +0.000 HD
ENDBRANCH  21  27
ENDBRANCH  17  21
ENDBRANCH   1  18
TORSDOF 4
ENDMDL
MODEL 9
REMARK VINA RESULT:      -8.1      1.787      2.631
REMARK  Name = 
REMARK  4 active torsions:
REMARK  status: ('A' for Active; 'I' for Inactive)
REMARK    1  A    between atoms: C_2  and  C_4
REMARK    2  A    between atoms: C_4  and  N_5
REMARK    3  A    between atoms: C_6  and  C_8
REMARK    4  A    between atoms: C_13  and  C_14
REMARK                            x       y       z     vdW  Elec       q    Type
REMARK                         _______ _______ _______ _____ _____    ______ ____
ROOT
ATOM      1  C   UNL     1       2.363   7.468  18.638  0.00  0.00    +0.000 A 
ATOM      2  C   UNL     1       2.318   8.500  17.601  0.00  0.00    +0.000 A 
ATOM      3  C   UNL     1       1.787   9.718  17.843  0.00  0.00    +0.000 A 
ATOM      4  C   UNL     1       1.255  10.019  19.131  0.00  0.00    +0.000 A 
ATOM      5  N   UNL     1       0.663  11.095  19.606  0.00  0.00    +0.000 NA
ATOM      6  C   UNL     1       0.302  10.779  20.900  0.00  0.00    +0.000 A 
ATOM      7  C   UNL     1       0.726   9.507  21.224  0.00  0.00    +0.000 A 
ATOM      8  N   UNL     1       1.316   9.014  20.089  0.00  0.00    +0.000 N 
ATOM      9  C   UNL     1       1.865   7.759  19.856  0.00  0.00    +0.000 A 
ENDROOT
BRANCH   6  10
ATOM     10  C   UNL     1      -0.409  11.688  21.786  0.00  0.00    +0.000 A 
ATOM     11  C   UNL     1      -1.448  11.238  22.618  0.00  0.00    +0.000 A 
ATOM     12  C   UNL     1      -2.110  12.126  23.472  0.00  0.00    +0.000 A 
ATOM     13  C   UNL     1      -1.734  13.463  23.494  0.00  0.00    +0.000 A 
ATOM     14  F   UNL     1      -2.362  14.311  24.317  0.00  0.00    +0.000 F 
ATOM     15  C   UNL     1      -0.715  13.932  22.673  0.00  0.00    +0.000 A 
ATOM     16  C   UNL     1      -0.059  13.045  21.814  0.00  0.00    +0.000 A 
ENDBRANCH   6  10
BRANCH   1  18
ATOM     17  N   UNL     1       4.071   5.732  18.701  0.00  0.00    +0.000 N 
ATOM     18  C   UNL     1       2.771   6.051  18.398  0.00  0.00    +0.000 C 
ATOM     19  O   UNL     1       1.965   5.247  17.937  0.00  0.00    +0.000 OA
ATOM     20  H   UNL     1       4.701   6.484  18.944  0.00  0.00    +0.000 HD
BRANCH  17  21
ATOM     21  C   UNL     1       4.691   4.414  18.425  0.00  0.00    +0.000 C 
ATOM     22  C   UNL     1       6.220   4.441  18.244  0.00  0.00    +0.000 C 
ATOM     23  C   UNL     1       6.440   4.974  16.837  0.00  0.00    +0.000 C 
ATOM     24  C   UNL     1       5.232   4.513  16.033  0.00  0.00    +0.000 C 
ATOM     25  C   UNL     1       4.244   3.916  17.035  0.00  0.00    +0.000 C 
BRANCH  21  27
ATOM     26  N   UNL     1       5.031   2.247  19.562  0.00  0.00    +0.000 N 
ATOM     27  C   UNL     1       4.295   3.396  19.526  0.00  0.00    +0.000 C 
ATOM     28  O   UNL     1       3.378   3.564  20.324  0.00  0.00    +0.000 OA
ATOM     29  H   UNL     1       4.798   1.536  20.240  0.00  0.00    +0.000 HD
ATOM     30  H   UNL     1       5.812   2.094  18.927  0.00  0.00    +0.000 HD
ENDBRANCH  21  27
ENDBRANCH  17  21
ENDBRANCH   1  18
TORSDOF 4
ENDMDL
