MODEL 1
REMARK VINA RESULT:      -7.8      0.000      0.000
REMARK  Name = 
REMARK  5 active torsions:
REMARK  status: ('A' for Active; 'I' for Inactive)
REMARK    1  A    between atoms: C_1  and  N_2
REMARK    2  A    between atoms: N_2  and  C_16
REMARK    3  A    between atoms: C_3  and  C_5
REMARK    4  A    between atoms: C_5  and  S_6
REMARK    5  A    between atoms: S_6  and  C_7
REMARK                            x       y       z     vdW  Elec       q    Type
REMARK                         _______ _______ _______ _____ _____    ______ ____
ROOT
ATOM      1  C   UNL     1       5.153   5.972  18.162  0.00  0.00    +0.000 C 
ENDROOT
BRANCH   1   4
ATOM      2  C   UNL     1       4.855   2.689  20.144  0.00  0.00    +0.000 C 
ATOM      3  N   UNL     1       4.557   3.702  19.127  0.00  0.00    +0.000 N 
ATOM      4  C   UNL     1       5.424   4.808  19.110  0.00  0.00    +0.000 C 
ATOM      5  O   UNL     1       6.422   4.853  19.838  0.00  0.00    +0.000 OA
BRANCH   3   6
ATOM      6  C   UNL     1       3.517   3.421  18.094  0.00  0.00    +0.000 C 
ATOM      7  C   UNL     1       2.430   4.507  17.971  0.00  0.00    +0.000 C 
ATOM      8  C   UNL     1       1.492   4.295  19.141  0.00  0.00    +0.000 C 
ATOM      9  S   UNL     1       1.227   2.543  19.167  0.00  0.00    +0.000 S 
ATOM     10  O   UNL     1       0.073   2.246  18.345  0.00  0.00    +0.000 OA
ATOM     11  O   UNL     1       1.340   2.067  20.530  0.00  0.00    +0.000 OA
ATOM     12  C   UNL     1       2.707   2.115  18.255  0.00  0.00    +0.000 C 
ENDBRANCH   3   6
ENDBRANCH   1   4
BRANCH   1  13
ATOM     13  S   UNL     1       6.666   6.458  17.262  0.00  0.00    +0.000 S 
BRANCH  13  14
ATOM     14  C   UNL     1       6.548   5.509  15.826  0.00  0.00    +0.000 A 
ATOM     15  N   UNL     1       5.581   4.699  15.475  0.00  0.00    +0.000 NA
ATOM     16  C   UNL     1       5.914   4.278  14.209  0.00  0.00    +0.000 A 
ATOM     17  C   UNL     1       5.215   3.445  13.321  0.00  0.00    +0.000 A 
ATOM     18  C   UNL     1       5.724   3.244  12.034  0.00  0.00    +0.000 A 
ATOM     19  C   UNL     1       6.940   3.811  11.657  0.00  0.00    +0.000 A 
ATOM     20  C   UNL     1       7.683   4.604  12.542  0.00  0.00    +0.000 A 
ATOM     21  C   UNL     1       7.124   4.832  13.803  0.00  0.00    +0.000 A 
ATOM     22  N   UNL     1       7.526   5.583  14.882  0.00  0.00    +0.000 N 
ATOM     23  H   UNL     1       8.361   6.148  14.946  0.00  0.00    +0.000 HD
ENDBRANCH  13  14
ENDBRANCH   1  13
TORSDOF 4
ENDMDL
MODEL 2
REMARK VINA RESULT:      -7.7      0.206      1.251
REMARK  Name = 
REMARK  5 active torsions:
REMARK  status: ('A' for Active; 'I' for Inactive)
REMARK    1  A    between atoms: C_1  and  N_2
REMARK    2  A    between atoms: N_2  and  C_16
REMARK    3  A    between atoms: C_3  and  C_5
REMARK    4  A    between atoms: C_5  and  S_6
REMARK    5  A    between atoms: S_6  and  C_7
REMARK                            x       y       z     vdW  Elec       q    Type
REMARK                         _______ _______ _______ _____ _____    ______ ____
ROOT
ATOM      1  C   UNL     1       5.426   5.800  18.049  0.00  0.00    +0.000 C 
ENDROOT
BRANCH   1   4
ATOM      2  C   UNL     1       4.819   2.745  20.305  0.00  0.00    +0.000 C 
ATOM      3  N   UNL     1       4.633   3.676  19.189  0.00  0.00    +0.000 N 
ATOM      4  C   UNL     1       5.577   4.714  19.110  0.00  0.00    +0.000 C 
ATOM      5  O   UNL     1       6.547   4.761  19.876  0.00  0.00    +0.000 OA
BRANCH   3   6
ATOM      6  C   UNL     1       3.618   3.369  18.139  0.00  0.00    +0.000 C 
ATOM      7  C   UNL     1       2.552   4.466  17.943  0.00  0.00    +0.000 C 
ATOM      8  C   UNL     1       1.580   4.316  19.095  0.00  0.00    +0.000 C 
ATOM      9  S   UNL     1       1.285   2.572  19.184  0.00  0.00    +0.000 S 
ATOM     10  O   UNL     1       0.149   2.259  18.342  0.00  0.00    +0.000 OA
ATOM     11  O   UNL     1       1.353   2.149  20.567  0.00  0.00    +0.000 OA
ATOM     12  C   UNL     1       2.781   2.084  18.330  0.00  0.00    +0.000 C 
ENDBRANCH   3   6
ENDBRANCH   1   4
BRANCH   1  13
ATOM     13  S   UNL     1       7.031   6.192  17.271  0.00  0.00    +0.000 S 
BRANCH  13  14
ATOM     14  C   UNL     1       6.834   5.525  15.691  0.00  0.00    +0.000 A 
ATOM     15  N   UNL     1       7.688   5.545  14.699  0.00  0.00    +0.000 NA
ATOM     16  C   UNL     1       7.098   4.791  13.711  0.00  0.00    +0.000 A 
ATOM     17  C   UNL     1       7.583   4.423  12.446  0.00  0.00    +0.000 A 
ATOM     18  C   UNL     1       6.824   3.555  11.654  0.00  0.00    +0.000 A 
ATOM     19  C   UNL     1       5.575   3.113  12.085  0.00  0.00    +0.000 A 
ATOM     20  C   UNL     1       5.046   3.507  13.321  0.00  0.00    +0.000 A 
ATOM     21  C   UNL     1       5.849   4.330  14.116  0.00  0.00    +0.000 A 
ATOM     22  N   UNL     1       5.692   4.857  15.376  0.00  0.00    +0.000 N 
ATOM     23  H   UNL     1       4.903   4.719  15.992  0.00  0.00    +0.000 HD
ENDBRANCH  13  14
ENDBRANCH   1  13
TORSDOF 4
ENDMDL
MODEL 3
REMARK VINA RESULT:      -7.6      1.517      2.500
REMARK  Name = 
REMARK  5 active torsions:
REMARK  status: ('A' for Active; 'I' for Inactive)
REMARK    1  A    between atoms: C_1  and  N_2
REMARK    2  A    between atoms: N_2  and  C_16
REMARK    3  A    between atoms: C_3  and  C_5
REMARK    4  A    between atoms: C_5  and  S_6
REMARK    5  A    between atoms: S_6  and  C_7
REMARK                            x       y       z     vdW  Elec       q    Type
REMARK                         _______ _______ _______ _____ _____    ______ ____
ROOT
ATOM      1  C   UNL     1       5.824   6.091  18.368  0.00  0.00    +0.000 C 
ENDROOT
BRANCH   1   4
ATOM      2  C   UNL     1       2.187   4.965  17.824  0.00  0.00    +0.000 C 
ATOM      3  N   UNL     1       3.473   5.148  18.504  0.00  0.00    +0.000 N 
ATOM      4  C   UNL     1       4.418   5.917  17.804  0.00  0.00    +0.000 C 
ATOM      5  O   UNL     1       4.129   6.477  16.740  0.00  0.00    +0.000 OA
BRANCH   3   6
ATOM      6  C   UNL     1       3.626   4.692  19.917  0.00  0.00    +0.000 C 
ATOM      7  C   UNL     1       4.161   3.253  20.069  0.00  0.00    +0.000 C 
ATOM      8  C   UNL     1       2.989   2.339  19.777  0.00  0.00    +0.000 C 
ATOM      9  S   UNL     1       1.646   3.060  20.680  0.00  0.00    +0.000 S 
ATOM     10  O   UNL     1       1.620   2.471  22.003  0.00  0.00    +0.000 OA
ATOM     11  O   UNL     1       0.471   3.096  19.834  0.00  0.00    +0.000 OA
ATOM     12  C   UNL     1       2.355   4.699  20.796  0.00  0.00    +0.000 C 
ENDBRANCH   3   6
ENDBRANCH   1   4
BRANCH   1  13
ATOM     13  S   UNL     1       6.881   4.657  17.967  0.00  0.00    +0.000 S 
BRANCH  13  14
ATOM     14  C   UNL     1       6.833   4.650  16.242  0.00  0.00    +0.000 A 
ATOM     15  N   UNL     1       7.601   5.310  15.414  0.00  0.00    +0.000 NA
ATOM     16  C   UNL     1       7.228   4.877  14.163  0.00  0.00    +0.000 A 
ATOM     17  C   UNL     1       7.751   5.203  12.901  0.00  0.00    +0.000 A 
ATOM     18  C   UNL     1       7.258   4.544  11.770  0.00  0.00    +0.000 A 
ATOM     19  C   UNL     1       6.217   3.624  11.885  0.00  0.00    +0.000 A 
ATOM     20  C   UNL     1       5.643   3.320  13.126  0.00  0.00    +0.000 A 
ATOM     21  C   UNL     1       6.192   3.953  14.245  0.00  0.00    +0.000 A 
ATOM     22  N   UNL     1       5.933   3.862  15.593  0.00  0.00    +0.000 N 
ATOM     23  H   UNL     1       5.246   3.267  16.035  0.00  0.00    +0.000 HD
ENDBRANCH  13  14
ENDBRANCH   1  13
TORSDOF 4
ENDMDL
MODEL 4
REMARK VINA RESULT:      -7.2      1.692      2.143
REMARK  Name = 
REMARK  5 active torsions:
REMARK  status: ('A' for Active; 'I' for Inactive)
REMARK    1  A    between atoms: C_1  and  N_2
REMARK    2  A    between atoms: N_2  and  C_16
REMARK    3  A    between atoms: C_3  and  C_5
REMARK    4  A    between atoms: C_5  and  S_6
REMARK    5  A    between atoms: S_6  and  C_7
REMARK                            x       y       z     vdW  Elec       q    Type
REMARK                         _______ _______ _______ _____ _____    ______ ____
ROOT
ATOM      1  C   UNL     1       5.346   4.122  18.360  0.00  0.00    +0.000 C 
ENDROOT
BRANCH   1   4
ATOM      2  C   UNL     1       1.616   4.679  17.606  0.00  0.00    +0.000 C 
ATOM      3  N   UNL     1       2.825   4.009  18.093  0.00  0.00    +0.000 N 
ATOM      4  C   UNL     1       4.011   4.753  17.978  0.00  0.00    +0.000 C 
ATOM      5  O   UNL     1       3.998   5.927  17.588  0.00  0.00    +0.000 OA
BRANCH   3   6
ATOM      6  C   UNL     1       2.702   2.714  18.825  0.00  0.00    +0.000 C 
ATOM      7  C   UNL     1       1.250   2.261  19.081  0.00  0.00    +0.000 C 
ATOM      8  C   UNL     1       0.749   3.100  20.239  0.00  0.00    +0.000 C 
ATOM      9  S   UNL     1       2.081   3.061  21.406  0.00  0.00    +0.000 S 
ATOM     10  O   UNL     1       1.876   1.934  22.292  0.00  0.00    +0.000 OA
ATOM     11  O   UNL     1       2.308   4.400  21.910  0.00  0.00    +0.000 OA
ATOM     12  C   UNL     1       3.356   2.637  20.224  0.00  0.00    +0.000 C 
ENDBRANCH   3   6
ENDBRANCH   1   4
BRANCH   1  13
ATOM     13  S   UNL     1       6.749   5.112  17.738  0.00  0.00    +0.000 S 
BRANCH  13  14
ATOM     14  C   UNL     1       6.777   4.682  16.067  0.00  0.00    +0.000 A 
ATOM     15  N   UNL     1       6.047   3.784  15.456  0.00  0.00    +0.000 NA
ATOM     16  C   UNL     1       6.375   3.907  14.126  0.00  0.00    +0.000 A 
ATOM     17  C   UNL     1       5.862   3.238  13.004  0.00  0.00    +0.000 A 
ATOM     18  C   UNL     1       6.296   3.616  11.729  0.00  0.00    +0.000 A 
ATOM     19  C   UNL     1       7.272   4.599  11.577  0.00  0.00    +0.000 A 
ATOM     20  C   UNL     1       7.838   5.245  12.684  0.00  0.00    +0.000 A 
ATOM     21  C   UNL     1       7.346   4.886  13.942  0.00  0.00    +0.000 A 
ATOM     22  N   UNL     1       7.614   5.334  15.214  0.00  0.00    +0.000 N 
ATOM     23  H   UNL     1       8.263   6.064  15.472  0.00  0.00    +0.000 HD
ENDBRANCH  13  14
ENDBRANCH   1  13
TORSDOF 4
ENDMDL
MODEL 5
REMARK VINA RESULT:      -7.1      1.595      2.388
REMARK  Name = 
REMARK  5 active torsions:
REMARK  status: ('A' for Active; 'I' for Inactive)
REMARK    1  A    between atoms: C_1  and  N_2
REMARK    2  A    between atoms: N_2  and  C_16
REMARK    3  A    between atoms: C_3  and  C_5
REMARK    4  A    between atoms: C_5  and  S_6
REMARK    5  A    between atoms: S_6  and  C_7
REMARK                            x       y       z     vdW  Elec       q    Type
REMARK                         _______ _______ _______ _____ _____    ______ ____
ROOT
ATOM      1  C   UNL     1       5.487   4.355  18.694  0.00  0.00    +0.000 C 
ENDROOT
BRANCH   1   4
ATOM      2  C   UNL     1       1.828   4.750  17.578  0.00  0.00    +0.000 C 
ATOM      3  N   UNL     1       3.013   4.129  18.175  0.00  0.00    +0.000 N 
ATOM      4  C   UNL     1       4.168   4.930  18.188  0.00  0.00    +0.000 C 
ATOM      5  O   UNL     1       4.136   6.109  17.813  0.00  0.00    +0.000 OA
BRANCH   3   6
ATOM      6  C   UNL     1       2.881   2.818  18.875  0.00  0.00    +0.000 C 
ATOM      7  C   UNL     1       1.434   2.292  18.976  0.00  0.00    +0.000 C 
ATOM      8  C   UNL     1       0.778   3.086  20.087  0.00  0.00    +0.000 C 
ATOM      9  S   UNL     1       1.985   3.090  21.383  0.00  0.00    +0.000 S 
ATOM     10  O   UNL     1       1.748   1.939  22.229  0.00  0.00    +0.000 OA
ATOM     11  O   UNL     1       2.095   4.429  21.923  0.00  0.00    +0.000 OA
ATOM     12  C   UNL     1       3.393   2.747  20.331  0.00  0.00    +0.000 C 
ENDBRANCH   3   6
ENDBRANCH   1   4
BRANCH   1  13
ATOM     13  S   UNL     1       6.910   5.314  18.068  0.00  0.00    +0.000 S 
BRANCH  13  14
ATOM     14  C   UNL     1       6.800   5.047  16.367  0.00  0.00    +0.000 A 
ATOM     15  N   UNL     1       7.587   5.510  15.429  0.00  0.00    +0.000 NA
ATOM     16  C   UNL     1       7.138   4.922  14.269  0.00  0.00    +0.000 A 
ATOM     17  C   UNL     1       7.639   5.008  12.961  0.00  0.00    +0.000 A 
ATOM     18  C   UNL     1       7.058   4.225  11.957  0.00  0.00    +0.000 A 
ATOM     19  C   UNL     1       5.956   3.420  12.237  0.00  0.00    +0.000 A 
ATOM     20  C   UNL     1       5.404   3.356  13.524  0.00  0.00    +0.000 A 
ATOM     21  C   UNL     1       6.038   4.106  14.518  0.00  0.00    +0.000 A 
ATOM     22  N   UNL     1       5.821   4.244  15.869  0.00  0.00    +0.000 N 
ATOM     23  H   UNL     1       5.107   3.781  16.414  0.00  0.00    +0.000 HD
ENDBRANCH  13  14
ENDBRANCH   1  13
TORSDOF 4
ENDMDL
MODEL 6
REMARK VINA RESULT:      -7.1      4.896      8.446
REMARK  Name = 
REMARK  5 active torsions:
REMARK  status: ('A' for Active; 'I' for Inactive)
REMARK    1  A    between atoms: C_1  and  N_2
REMARK    2  A    between atoms: N_2  and  C_16
REMARK    3  A    between atoms: C_3  and  C_5
REMARK    4  A    between atoms: C_5  and  S_6
REMARK    5  A    between atoms: S_6  and  C_7
REMARK                            x       y       z     vdW  Elec       q    Type
REMARK                         _______ _______ _______ _____ _____    ______ ____
ROOT
ATOM      1  C   UNL     1       3.005   6.729  19.245  0.00  0.00    +0.000 C 
ENDROOT
BRANCH   1   4
ATOM      2  C   UNL     1       3.573   3.576  17.117  0.00  0.00    +0.000 C 
ATOM      3  N   UNL     1       3.871   4.853  17.772  0.00  0.00    +0.000 N 
ATOM      4  C   UNL     1       2.848   5.360  18.591  0.00  0.00    +0.000 C 
ATOM      5  O   UNL     1       1.820   4.709  18.813  0.00  0.00    +0.000 OA
BRANCH   3   6
ATOM      6  C   UNL     1       5.250   5.416  17.689  0.00  0.00    +0.000 C 
ATOM      7  C   UNL     1       5.362   6.710  16.855  0.00  0.00    +0.000 C 
ATOM      8  C   UNL     1       5.324   6.276  15.404  0.00  0.00    +0.000 C 
ATOM      9  S   UNL     1       6.423   4.889  15.341  0.00  0.00    +0.000 S 
ATOM     10  O   UNL     1       7.753   5.376  15.034  0.00  0.00    +0.000 OA
ATOM     11  O   UNL     1       5.803   3.827  14.578  0.00  0.00    +0.000 OA
ATOM     12  C   UNL     1       6.343   4.504  17.087  0.00  0.00    +0.000 C 
ENDBRANCH   3   6
ENDBRANCH   1   4
BRANCH   1  13
ATOM     13  S   UNL     1       2.165   8.027  18.272  0.00  0.00    +0.000 S 
BRANCH  13  14
ATOM     14  C   UNL     1       1.405   8.963  19.507  0.00  0.00    +0.000 A 
ATOM     15  N   UNL     1       0.963  10.193  19.426  0.00  0.00    +0.000 NA
ATOM     16  C   UNL     1       0.355  10.430  20.637  0.00  0.00    +0.000 A 
ATOM     17  C   UNL     1      -0.342  11.561  21.091  0.00  0.00    +0.000 A 
ATOM     18  C   UNL     1      -0.963  11.519  22.344  0.00  0.00    +0.000 A 
ATOM     19  C   UNL     1      -0.839  10.395  23.158  0.00  0.00    +0.000 A 
ATOM     20  C   UNL     1      -0.105   9.273  22.750  0.00  0.00    +0.000 A 
ATOM     21  C   UNL     1       0.459   9.321  21.471  0.00  0.00    +0.000 A 
ATOM     22  N   UNL     1       1.178   8.413  20.731  0.00  0.00    +0.000 N 
ATOM     23  H   UNL     1       1.435   7.477  21.011  0.00  0.00    +0.000 HD
ENDBRANCH  13  14
ENDBRANCH   1  13
TORSDOF 4
ENDMDL
MODEL 7
REMARK VINA RESULT:      -7.1      4.681      8.299
REMARK  Name = 
REMARK  5 active torsions:
REMARK  status: ('A' for Active; 'I' for Inactive)
REMARK    1  A    between atoms: C_1  and  N_2
REMARK    2  A    between atoms: N_2  and  C_16
REMARK    3  A    between atoms: C_3  and  C_5
REMARK    4  A    between atoms: C_5  and  S_6
REMARK    5  A    between atoms: S_6  and  C_7
REMARK                            x       y       z     vdW  Elec       q    Type
REMARK                         _______ _______ _______ _____ _____    ______ ____
ROOT
ATOM      1  C   UNL     1       2.278   6.398  18.228  0.00  0.00    +0.000 C 
ENDROOT
BRANCH   1   4
ATOM      2  C   UNL     1       5.656   4.833  19.194  0.00  0.00    +0.000 C 
ATOM      3  N   UNL     1       4.658   5.529  18.377  0.00  0.00    +0.000 N 
ATOM      4  C   UNL     1       3.426   5.769  19.011  0.00  0.00    +0.000 C 
ATOM      5  O   UNL     1       3.255   5.497  20.205  0.00  0.00    +0.000 OA
BRANCH   3   6
ATOM      6  C   UNL     1       5.055   6.088  17.052  0.00  0.00    +0.000 C 
ATOM      7  C   UNL     1       4.698   5.192  15.848  0.00  0.00    +0.000 C 
ATOM      8  C   UNL     1       5.736   4.089  15.827  0.00  0.00    +0.000 C 
ATOM      9  S   UNL     1       7.270   4.938  16.085  0.00  0.00    +0.000 S 
ATOM     10  O   UNL     1       7.809   5.305  14.792  0.00  0.00    +0.000 OA
ATOM     11  O   UNL     1       8.053   4.213  17.064  0.00  0.00    +0.000 OA
ATOM     12  C   UNL     1       6.555   6.394  16.842  0.00  0.00    +0.000 C 
ENDBRANCH   3   6
ENDBRANCH   1   4
BRANCH   1  13
ATOM     13  S   UNL     1       2.488   8.206  18.081  0.00  0.00    +0.000 S 
BRANCH  13  14
ATOM     14  C   UNL     1       1.495   8.786  19.367  0.00  0.00    +0.000 A 
ATOM     15  N   UNL     1       1.429   8.339  20.596  0.00  0.00    +0.000 NA
ATOM     16  C   UNL     1       0.578   9.205  21.242  0.00  0.00    +0.000 A 
ATOM     17  C   UNL     1       0.183   9.247  22.588  0.00  0.00    +0.000 A 
ATOM     18  C   UNL     1      -0.627  10.300  23.027  0.00  0.00    +0.000 A 
ATOM     19  C   UNL     1      -1.088  11.260  22.128  0.00  0.00    +0.000 A 
ATOM     20  C   UNL     1      -0.751  11.211  20.768  0.00  0.00    +0.000 A 
ATOM     21  C   UNL     1       0.103  10.179  20.369  0.00  0.00    +0.000 A 
ATOM     22  N   UNL     1       0.678   9.855  19.163  0.00  0.00    +0.000 N 
ATOM     23  H   UNL     1       0.573  10.356  18.291  0.00  0.00    +0.000 HD
ENDBRANCH  13  14
ENDBRANCH   1  13
TORSDOF 4
ENDMDL
MODEL 8
REMARK VINA RESULT:      -7.0      4.860      8.452
REMARK  Name = 
REMARK  5 active torsions:
REMARK  status: ('A' for Active; 'I' for Inactive)
REMARK    1  A    between atoms: C_1  and  N_2
REMARK    2  A    between atoms: N_2  and  C_16
REMARK    3  A    between atoms: C_3  and  C_5
REMARK    4  A    between atoms: C_5  and  S_6
REMARK    5  A    between atoms: S_6  and  C_7
REMARK                            x       y       z     vdW  Elec       q    Type
REMARK                         _______ _______ _______ _____ _____    ______ ____
ROOT
ATOM      1  C   UNL     1       2.904   6.422  19.520  0.00  0.00    +0.000 C 
ENDROOT
BRANCH   1   4
ATOM      2  C   UNL     1       3.513   3.551  17.034  0.00  0.00    +0.000 C 
ATOM      3  N   UNL     1       3.792   4.749  17.830  0.00  0.00    +0.000 N 
ATOM      4  C   UNL     1       2.768   5.135  18.712  0.00  0.00    +0.000 C 
ATOM      5  O   UNL     1       1.757   4.439  18.866  0.00  0.00    +0.000 OA
BRANCH   3   6
ATOM      6  C   UNL     1       5.158   5.348  17.800  0.00  0.00    +0.000 C 
ATOM      7  C   UNL     1       5.256   6.675  17.020  0.00  0.00    +0.000 C 
ATOM      8  C   UNL     1       5.261   6.298  15.553  0.00  0.00    +0.000 C 
ATOM      9  S   UNL     1       6.396   4.941  15.462  0.00  0.00    +0.000 S 
ATOM     10  O   UNL     1       7.719   5.472  15.205  0.00  0.00    +0.000 OA
ATOM     11  O   UNL     1       5.819   3.895  14.645  0.00  0.00    +0.000 OA
ATOM     12  C   UNL     1       6.287   4.487  17.190  0.00  0.00    +0.000 C 
ENDBRANCH   3   6
ENDBRANCH   1   4
BRANCH   1  13
ATOM     13  S   UNL     1       2.261   7.856  18.591  0.00  0.00    +0.000 S 
BRANCH  13  14
ATOM     14  C   UNL     1       1.259   8.623  19.769  0.00  0.00    +0.000 A 
ATOM     15  N   UNL     1       1.044   8.252  21.005  0.00  0.00    +0.000 NA
ATOM     16  C   UNL     1       0.267   9.250  21.545  0.00  0.00    +0.000 A 
ATOM     17  C   UNL     1      -0.218   9.411  22.852  0.00  0.00    +0.000 A 
ATOM     18  C   UNL     1      -0.914  10.579  23.181  0.00  0.00    +0.000 A 
ATOM     19  C   UNL     1      -1.179  11.542  22.209  0.00  0.00    +0.000 A 
ATOM     20  C   UNL     1      -0.751  11.381  20.884  0.00  0.00    +0.000 A 
ATOM     21  C   UNL     1      -0.011  10.230  20.597  0.00  0.00    +0.000 A 
ATOM     22  N   UNL     1       0.605   9.775  19.455  0.00  0.00    +0.000 N 
ATOM     23  H   UNL     1       0.631  10.239  18.558  0.00  0.00    +0.000 HD
ENDBRANCH  13  14
ENDBRANCH   1  13
TORSDOF 4
ENDMDL
MODEL 9
REMARK VINA RESULT:      -6.9      1.434      2.125
REMARK  Name = 
REMARK  5 active torsions:
REMARK  status: ('A' for Active; 'I' for Inactive)
REMARK    1  A    between atoms: C_1  and  N_2
REMARK    2  A    between atoms: N_2  and  C_16
REMARK    3  A    between atoms: C_3  and  C_5
REMARK    4  A    between atoms: C_5  and  S_6
REMARK    5  A    between atoms: S_6  and  C_7
REMARK                            x       y       z     vdW  Elec       q    Type
REMARK                         _______ _______ _______ _____ _____    ______ ____
ROOT
ATOM      1  C   UNL     1       5.862   5.233  18.393  0.00  0.00    +0.000 C 
ENDROOT
BRANCH   1   4
ATOM      2  C   UNL     1       2.083   5.905  18.637  0.00  0.00    +0.000 C 
ATOM      3  N   UNL     1       3.400   5.369  18.992  0.00  0.00    +0.000 N 
ATOM      4  C   UNL     1       4.462   5.801  18.180  0.00  0.00    +0.000 C 
ATOM      5  O   UNL     1       4.293   6.654  17.301  0.00  0.00    +0.000 OA
BRANCH   3   6
ATOM      6  C   UNL     1       3.558   4.586  20.253  0.00  0.00    +0.000 C 
ATOM      7  C   UNL     1       3.898   3.097  20.042  0.00  0.00    +0.000 C 
ATOM      8  C   UNL     1       2.600   2.424  19.647  0.00  0.00    +0.000 C 
ATOM      9  S   UNL     1       1.413   3.077  20.789  0.00  0.00    +0.000 S 
ATOM     10  O   UNL     1       1.371   2.209  21.947  0.00  0.00    +0.000 OA
ATOM     11  O   UNL     1       0.215   3.448  20.066  0.00  0.00    +0.000 OA
ATOM     12  C   UNL     1       2.344   4.547  21.209  0.00  0.00    +0.000 C 
ENDBRANCH   3   6
ENDBRANCH   1   4
BRANCH   1  13
ATOM     13  S   UNL     1       7.089   6.087  17.344  0.00  0.00    +0.000 S 
BRANCH  13  14
ATOM     14  C   UNL     1       6.921   5.252  15.844  0.00  0.00    +0.000 A 
ATOM     15  N   UNL     1       6.061   4.313  15.539  0.00  0.00    +0.000 NA
ATOM     16  C   UNL     1       6.270   4.063  14.203  0.00  0.00    +0.000 A 
ATOM     17  C   UNL     1       5.596   3.193  13.331  0.00  0.00    +0.000 A 
ATOM     18  C   UNL     1       5.937   3.191  11.974  0.00  0.00    +0.000 A 
ATOM     19  C   UNL     1       6.974   3.994  11.505  0.00  0.00    +0.000 A 
ATOM     20  C   UNL     1       7.697   4.833  12.364  0.00  0.00    +0.000 A 
ATOM     21  C   UNL     1       7.299   4.855  13.704  0.00  0.00    +0.000 A 
ATOM     22  N   UNL     1       7.725   5.575  14.794  0.00  0.00    +0.000 N 
ATOM     23  H   UNL     1       8.455   6.273  14.808  0.00  0.00    +0.000 HD
ENDBRANCH  13  14
ENDBRANCH   1  13
TORSDOF 4
ENDMDL
