MODEL 1
REMARK VINA RESULT:      -8.6      0.000      0.000
REMARK  Name = 
REMARK  3 active torsions:
REMARK  status: ('A' for Active; 'I' for Inactive)
REMARK    1  A    between atoms: C_6  and  C_7
REMARK    2  A    between atoms: C_7  and  C_8
REMARK    3  A    between atoms: C_9  and  C_10
REMARK                            x       y       z     vdW  Elec       q    Type
REMARK                         _______ _______ _______ _____ _____    ______ ____
ROOT
ATOM      1  C   UNL     1       2.679   7.006  18.316  0.00  0.00    +0.000 A 
ATOM      2  C   UNL     1       2.314   5.985  19.189  0.00  0.00    +0.000 A 
ATOM      3  N   UNL     1       1.579   6.491  20.246  0.00  0.00    +0.000 NA
ATOM      4  C   UNL     1       1.466   7.788  20.017  0.00  0.00    +0.000 A 
ATOM      5  C   UNL     1       0.811   8.848  20.804  0.00  0.00    +0.000 A 
ATOM      6  C   UNL     1       0.151   8.599  22.007  0.00  0.00    +0.000 A 
ATOM      7  C   UNL     1      -0.426   9.656  22.722  0.00  0.00    +0.000 A 
ATOM      8  C   UNL     1      -0.346  10.965  22.241  0.00  0.00    +0.000 A 
ATOM      9  C   UNL     1       0.303  11.226  21.036  0.00  0.00    +0.000 A 
ATOM     10  C   UNL     1       0.875  10.179  20.312  0.00  0.00    +0.000 A 
ATOM     11  C   UNL     1       1.550  10.462  19.033  0.00  0.00    +0.000 A 
ATOM     12  C   UNL     1       2.129   9.459  18.359  0.00  0.00    +0.000 A 
ATOM     13  N   UNL     1       2.109   8.147  18.841  0.00  0.00    +0.000 N 
ENDROOT
BRANCH   2  14
ATOM     14  C   UNL     1       2.740   4.582  19.090  0.00  0.00    +0.000 A 
ATOM     15  C   UNL     1       3.790   4.099  19.880  0.00  0.00    +0.000 A 
ATOM     16  C   UNL     1       4.307   2.810  19.671  0.00  0.00    +0.000 A 
ATOM     17  C   UNL     1       3.789   1.990  18.670  0.00  0.00    +0.000 A 
ATOM     18  C   UNL     1       2.705   2.429  17.923  0.00  0.00    +0.000 A 
ATOM     19  C   UNL     1       2.168   3.694  18.167  0.00  0.00    +0.000 A 
ENDBRANCH   2  14
BRANCH   1  20
ATOM     20  C   UNL     1       3.538   7.043  17.090  0.00  0.00    +0.000 C 
BRANCH  20  26
ATOM     21 CL   UNL     1       8.218   5.837  19.170  0.00  0.00    +0.000 Cl
ATOM     22  C   UNL     1       6.952   5.565  18.036  0.00  0.00    +0.000 A 
ATOM     23  C   UNL     1       7.104   4.590  17.054  0.00  0.00    +0.000 A 
ATOM     24  C   UNL     1       6.082   4.377  16.130  0.00  0.00    +0.000 A 
ATOM     25  C   UNL     1       4.921   5.150  16.183  0.00  0.00    +0.000 A 
ATOM     26  C   UNL     1       4.773   6.163  17.146  0.00  0.00    +0.000 A 
ATOM     27  C   UNL     1       5.794   6.340  18.094  0.00  0.00    +0.000 A 
ENDBRANCH  20  26
ENDBRANCH   1  20
TORSDOF 3
ENDMDL
MODEL 2
REMARK VINA RESULT:      -8.5      1.116      1.447
REMARK  Name = 
REMARK  3 active torsions:
REMARK  status: ('A' for Active; 'I' for Inactive)
REMARK    1  A    between atoms: C_6  and  C_7
REMARK    2  A    between atoms: C_7  and  C_8
REMARK    3  A    between atoms: C_9  and  C_10
REMARK                            x       y       z     vdW  Elec       q    Type
REMARK                         _______ _______ _______ _____ _____    ______ ____
ROOT
ATOM      1  C   UNL     1       2.631   7.484  18.183  0.00  0.00    +0.000 A 
ATOM      2  C   UNL     1       2.407   6.426  19.060  0.00  0.00    +0.000 A 
ATOM      3  N   UNL     1       1.713   6.861  20.174  0.00  0.00    +0.000 NA
ATOM      4  C   UNL     1       1.486   8.148  19.978  0.00  0.00    +0.000 A 
ATOM      5  C   UNL     1       0.810   9.144  20.828  0.00  0.00    +0.000 A 
ATOM      6  C   UNL     1       0.257   8.829  22.069  0.00  0.00    +0.000 A 
ATOM      7  C   UNL     1      -0.345   9.829  22.842  0.00  0.00    +0.000 A 
ATOM      8  C   UNL     1      -0.400  11.147  22.381  0.00  0.00    +0.000 A 
ATOM      9  C   UNL     1       0.140  11.473  21.138  0.00  0.00    +0.000 A 
ATOM     10  C   UNL     1       0.737  10.482  20.357  0.00  0.00    +0.000 A 
ATOM     11  C   UNL     1       1.296  10.833  19.040  0.00  0.00    +0.000 A 
ATOM     12  C   UNL     1       1.901   9.886  18.309  0.00  0.00    +0.000 A 
ATOM     13  N   UNL     1       2.015   8.571  18.767  0.00  0.00    +0.000 N 
ENDROOT
BRANCH   2  14
ATOM     14  C   UNL     1       2.931   5.062  18.906  0.00  0.00    +0.000 A 
ATOM     15  C   UNL     1       4.072   4.653  19.605  0.00  0.00    +0.000 A 
ATOM     16  C   UNL     1       4.669   3.411  19.337  0.00  0.00    +0.000 A 
ATOM     17  C   UNL     1       4.139   2.563  18.364  0.00  0.00    +0.000 A 
ATOM     18  C   UNL     1       2.971   2.925  17.710  0.00  0.00    +0.000 A 
ATOM     19  C   UNL     1       2.359   4.142  18.014  0.00  0.00    +0.000 A 
ENDBRANCH   2  14
BRANCH   1  20
ATOM     20  C   UNL     1       3.395   7.603  16.900  0.00  0.00    +0.000 C 
BRANCH  20  26
ATOM     21 CL   UNL     1       6.255   3.544  15.156  0.00  0.00    +0.000 Cl
ATOM     22  C   UNL     1       6.067   4.959  16.118  0.00  0.00    +0.000 A 
ATOM     23  C   UNL     1       7.088   5.347  16.981  0.00  0.00    +0.000 A 
ATOM     24  C   UNL     1       6.932   6.488  17.766  0.00  0.00    +0.000 A 
ATOM     25  C   UNL     1       5.750   7.228  17.696  0.00  0.00    +0.000 A 
ATOM     26  C   UNL     1       4.697   6.824  16.856  0.00  0.00    +0.000 A 
ATOM     27  C   UNL     1       4.884   5.694  16.043  0.00  0.00    +0.000 A 
ENDBRANCH  20  26
ENDBRANCH   1  20
TORSDOF 3
ENDMDL
MODEL 3
REMARK VINA RESULT:      -8.1      3.154      5.400
REMARK  Name = 
REMARK  3 active torsions:
REMARK  status: ('A' for Active; 'I' for Inactive)
REMARK    1  A    between atoms: C_6  and  C_7
REMARK    2  A    between atoms: C_7  and  C_8
REMARK    3  A    between atoms: C_9  and  C_10
REMARK                            x       y       z     vdW  Elec       q    Type
REMARK                         _______ _______ _______ _____ _____    ______ ____
ROOT
ATOM      1  C   UNL     1       4.707   5.799  16.449  0.00  0.00    +0.000 A 
ATOM      2  C   UNL     1       4.771   4.590  15.761  0.00  0.00    +0.000 A 
ATOM      3  N   UNL     1       4.013   3.627  16.403  0.00  0.00    +0.000 NA
ATOM      4  C   UNL     1       3.469   4.232  17.444  0.00  0.00    +0.000 A 
ATOM      5  C   UNL     1       2.584   3.713  18.502  0.00  0.00    +0.000 A 
ATOM      6  C   UNL     1       2.153   2.387  18.544  0.00  0.00    +0.000 A 
ATOM      7  C   UNL     1       1.336   1.949  19.593  0.00  0.00    +0.000 A 
ATOM      8  C   UNL     1       0.946   2.831  20.605  0.00  0.00    +0.000 A 
ATOM      9  C   UNL     1       1.363   4.160  20.569  0.00  0.00    +0.000 A 
ATOM     10  C   UNL     1       2.172   4.608  19.525  0.00  0.00    +0.000 A 
ATOM     11  C   UNL     1       2.599   6.018  19.489  0.00  0.00    +0.000 A 
ATOM     12  C   UNL     1       3.405   6.436  18.503  0.00  0.00    +0.000 A 
ATOM     13  N   UNL     1       3.851   5.565  17.506  0.00  0.00    +0.000 N 
ENDROOT
BRANCH   2  14
ATOM     14  C   UNL     1       5.614   4.317  14.589  0.00  0.00    +0.000 A 
ATOM     15  C   UNL     1       6.894   4.873  14.486  0.00  0.00    +0.000 A 
ATOM     16  C   UNL     1       7.635   4.750  13.300  0.00  0.00    +0.000 A 
ATOM     17  C   UNL     1       7.106   4.077  12.198  0.00  0.00    +0.000 A 
ATOM     18  C   UNL     1       5.867   3.464  12.307  0.00  0.00    +0.000 A 
ATOM     19  C   UNL     1       5.156   3.553  13.505  0.00  0.00    +0.000 A 
ENDBRANCH   2  14
BRANCH   1  20
ATOM     20  C   UNL     1       5.391   7.118  16.262  0.00  0.00    +0.000 C 
BRANCH  20  26
ATOM     21 CL   UNL     1       9.004  10.363  18.288  0.00  0.00    +0.000 Cl
ATOM     22  C   UNL     1       8.230   8.828  18.199  0.00  0.00    +0.000 A 
ATOM     23  C   UNL     1       8.721   7.764  18.951  0.00  0.00    +0.000 A 
ATOM     24  C   UNL     1       8.100   6.519  18.871  0.00  0.00    +0.000 A 
ATOM     25  C   UNL     1       7.000   6.340  18.030  0.00  0.00    +0.000 A 
ATOM     26  C   UNL     1       6.519   7.397  17.238  0.00  0.00    +0.000 A 
ATOM     27  C   UNL     1       7.132   8.656  17.357  0.00  0.00    +0.000 A 
ENDBRANCH  20  26
ENDBRANCH   1  20
TORSDOF 3
ENDMDL
MODEL 4
REMARK VINA RESULT:      -8.0      1.796      3.903
REMARK  Name = 
REMARK  3 active torsions:
REMARK  status: ('A' for Active; 'I' for Inactive)
REMARK    1  A    between atoms: C_6  and  C_7
REMARK    2  A    between atoms: C_7  and  C_8
REMARK    3  A    between atoms: C_9  and  C_10
REMARK                            x       y       z     vdW  Elec       q    Type
REMARK                         _______ _______ _______ _____ _____    ______ ____
ROOT
ATOM      1  C   UNL     1       2.288   6.502  20.207  0.00  0.00    +0.000 A 
ATOM      2  C   UNL     1       2.976   6.857  19.051  0.00  0.00    +0.000 A 
ATOM      3  N   UNL     1       2.583   8.110  18.619  0.00  0.00    +0.000 NA
ATOM      4  C   UNL     1       1.695   8.534  19.502  0.00  0.00    +0.000 A 
ATOM      5  C   UNL     1       0.917   9.784  19.558  0.00  0.00    +0.000 A 
ATOM      6  C   UNL     1       1.032  10.789  18.598  0.00  0.00    +0.000 A 
ATOM      7  C   UNL     1       0.241  11.941  18.692  0.00  0.00    +0.000 A 
ATOM      8  C   UNL     1      -0.666  12.095  19.744  0.00  0.00    +0.000 A 
ATOM      9  C   UNL     1      -0.783  11.102  20.714  0.00  0.00    +0.000 A 
ATOM     10  C   UNL     1       0.005   9.953  20.633  0.00  0.00    +0.000 A 
ATOM     11  C   UNL     1      -0.117   8.913  21.669  0.00  0.00    +0.000 A 
ATOM     12  C   UNL     1       0.615   7.795  21.568  0.00  0.00    +0.000 A 
ATOM     13  N   UNL     1       1.494   7.591  20.500  0.00  0.00    +0.000 N 
ENDROOT
BRANCH   2  14
ATOM     14  C   UNL     1       3.902   5.991  18.307  0.00  0.00    +0.000 A 
ATOM     15  C   UNL     1       3.458   5.253  17.204  0.00  0.00    +0.000 A 
ATOM     16  C   UNL     1       4.294   4.304  16.595  0.00  0.00    +0.000 A 
ATOM     17  C   UNL     1       5.580   4.073  17.082  0.00  0.00    +0.000 A 
ATOM     18  C   UNL     1       6.058   4.842  18.132  0.00  0.00    +0.000 A 
ATOM     19  C   UNL     1       5.237   5.815  18.703  0.00  0.00    +0.000 A 
ENDBRANCH   2  14
BRANCH   1  20
ATOM     20  C   UNL     1       2.249   5.251  21.030  0.00  0.00    +0.000 C 
BRANCH  20  26
ATOM     21 CL   UNL     1       4.152   0.922  18.721  0.00  0.00    +0.000 Cl
ATOM     22  C   UNL     1       2.849   1.972  19.126  0.00  0.00    +0.000 A 
ATOM     23  C   UNL     1       1.578   1.720  18.618  0.00  0.00    +0.000 A 
ATOM     24  C   UNL     1       0.525   2.575  18.939  0.00  0.00    +0.000 A 
ATOM     25  C   UNL     1       0.752   3.687  19.753  0.00  0.00    +0.000 A 
ATOM     26  C   UNL     1       2.039   3.972  20.241  0.00  0.00    +0.000 A 
ATOM     27  C   UNL     1       3.082   3.080  19.940  0.00  0.00    +0.000 A 
ENDBRANCH  20  26
ENDBRANCH   1  20
TORSDOF 3
ENDMDL
MODEL 5
REMARK VINA RESULT:      -7.9      0.556      1.074
REMARK  Name = 
REMARK  3 active torsions:
REMARK  status: ('A' for Active; 'I' for Inactive)
REMARK    1  A    between atoms: C_6  and  C_7
REMARK    2  A    between atoms: C_7  and  C_8
REMARK    3  A    between atoms: C_9  and  C_10
REMARK                            x       y       z     vdW  Elec       q    Type
REMARK                         _______ _______ _______ _____ _____    ______ ____
ROOT
ATOM      1  C   UNL     1       2.606   7.527  18.359  0.00  0.00    +0.000 A 
ATOM      2  C   UNL     1       2.346   6.424  19.166  0.00  0.00    +0.000 A 
ATOM      3  N   UNL     1       1.601   6.796  20.270  0.00  0.00    +0.000 NA
ATOM      4  C   UNL     1       1.381   8.092  20.136  0.00  0.00    +0.000 A 
ATOM      5  C   UNL     1       0.666   9.041  21.008  0.00  0.00    +0.000 A 
ATOM      6  C   UNL     1       0.060   8.658  22.204  0.00  0.00    +0.000 A 
ATOM      7  C   UNL     1      -0.579   9.614  23.003  0.00  0.00    +0.000 A 
ATOM      8  C   UNL     1      -0.615  10.956  22.613  0.00  0.00    +0.000 A 
ATOM      9  C   UNL     1      -0.022  11.349  21.415  0.00  0.00    +0.000 A 
ATOM     10  C   UNL     1       0.611  10.403  20.608  0.00  0.00    +0.000 A 
ATOM     11  C   UNL     1       1.227  10.825  19.338  0.00  0.00    +0.000 A 
ATOM     12  C   UNL     1       1.865   9.920  18.584  0.00  0.00    +0.000 A 
ATOM     13  N   UNL     1       1.962   8.581  18.974  0.00  0.00    +0.000 N 
ENDROOT
BRANCH   2  14
ATOM     14  C   UNL     1       2.878   5.069  18.961  0.00  0.00    +0.000 A 
ATOM     15  C   UNL     1       2.394   4.262  17.925  0.00  0.00    +0.000 A 
ATOM     16  C   UNL     1       2.779   2.916  17.828  0.00  0.00    +0.000 A 
ATOM     17  C   UNL     1       3.647   2.355  18.765  0.00  0.00    +0.000 A 
ATOM     18  C   UNL     1       4.187   3.159  19.758  0.00  0.00    +0.000 A 
ATOM     19  C   UNL     1       3.834   4.508  19.821  0.00  0.00    +0.000 A 
ENDBRANCH   2  14
BRANCH   1  20
ATOM     20  C   UNL     1       3.425   7.716  17.119  0.00  0.00    +0.000 C 
BRANCH  20  26
ATOM     21 CL   UNL     1       8.080   6.199  19.047  0.00  0.00    +0.000 Cl
ATOM     22  C   UNL     1       6.843   6.129  17.853  0.00  0.00    +0.000 A 
ATOM     23  C   UNL     1       7.030   5.355  16.711  0.00  0.00    +0.000 A 
ATOM     24  C   UNL     1       6.031   5.306  15.740  0.00  0.00    +0.000 A 
ATOM     25  C   UNL     1       4.856   6.041  15.908  0.00  0.00    +0.000 A 
ATOM     26  C   UNL     1       4.673   6.856  17.040  0.00  0.00    +0.000 A 
ATOM     27  C   UNL     1       5.671   6.865  18.028  0.00  0.00    +0.000 A 
ENDBRANCH  20  26
ENDBRANCH   1  20
TORSDOF 3
ENDMDL
MODEL 6
REMARK VINA RESULT:      -7.7      3.052      5.369
REMARK  Name = 
REMARK  3 active torsions:
REMARK  status: ('A' for Active; 'I' for Inactive)
REMARK    1  A    between atoms: C_6  and  C_7
REMARK    2  A    between atoms: C_7  and  C_8
REMARK    3  A    between atoms: C_9  and  C_10
REMARK                            x       y       z     vdW  Elec       q    Type
REMARK                         _______ _______ _______ _____ _____    ______ ____
ROOT
ATOM      1  C   UNL     1       4.706   5.770  16.438  0.00  0.00    +0.000 A 
ATOM      2  C   UNL     1       4.754   4.573  15.729  0.00  0.00    +0.000 A 
ATOM      3  N   UNL     1       3.970   3.614  16.345  0.00  0.00    +0.000 NA
ATOM      4  C   UNL     1       3.425   4.211  17.391  0.00  0.00    +0.000 A 
ATOM      5  C   UNL     1       2.518   3.691  18.428  0.00  0.00    +0.000 A 
ATOM      6  C   UNL     1       2.060   2.373  18.441  0.00  0.00    +0.000 A 
ATOM      7  C   UNL     1       1.222   1.933  19.473  0.00  0.00    +0.000 A 
ATOM      8  C   UNL     1       0.838   2.804  20.496  0.00  0.00    +0.000 A 
ATOM      9  C   UNL     1       1.281   4.125  20.489  0.00  0.00    +0.000 A 
ATOM     10  C   UNL     1       2.111   4.576  19.462  0.00  0.00    +0.000 A 
ATOM     11  C   UNL     1       2.566   5.977  19.457  0.00  0.00    +0.000 A 
ATOM     12  C   UNL     1       3.392   6.396  18.488  0.00  0.00    +0.000 A 
ATOM     13  N   UNL     1       3.833   5.535  17.480  0.00  0.00    +0.000 N 
ENDROOT
BRANCH   2  14
ATOM     14  C   UNL     1       5.606   4.304  14.562  0.00  0.00    +0.000 A 
ATOM     15  C   UNL     1       6.890   4.854  14.475  0.00  0.00    +0.000 A 
ATOM     16  C   UNL     1       7.639   4.736  13.294  0.00  0.00    +0.000 A 
ATOM     17  C   UNL     1       7.116   4.074  12.183  0.00  0.00    +0.000 A 
ATOM     18  C   UNL     1       5.873   3.467  12.276  0.00  0.00    +0.000 A 
ATOM     19  C   UNL     1       5.153   3.551  13.469  0.00  0.00    +0.000 A 
ENDBRANCH   2  14
BRANCH   1  20
ATOM     20  C   UNL     1       5.417   7.079  16.283  0.00  0.00    +0.000 C 
BRANCH  20  26
ATOM     21 CL   UNL     1       8.616   5.322  20.074  0.00  0.00    +0.000 Cl
ATOM     22  C   UNL     1       8.094   6.547  18.984  0.00  0.00    +0.000 A 
ATOM     23  C   UNL     1       8.682   7.808  19.031  0.00  0.00    +0.000 A 
ATOM     24  C   UNL     1       8.252   8.803  18.154  0.00  0.00    +0.000 A 
ATOM     25  C   UNL     1       7.225   8.537  17.246  0.00  0.00    +0.000 A 
ATOM     26  C   UNL     1       6.598   7.279  17.215  0.00  0.00    +0.000 A 
ATOM     27  C   UNL     1       7.068   6.275  18.078  0.00  0.00    +0.000 A 
ENDBRANCH  20  26
ENDBRANCH   1  20
TORSDOF 3
ENDMDL
MODEL 7
REMARK VINA RESULT:      -7.6      1.458      1.856
REMARK  Name = 
REMARK  3 active torsions:
REMARK  status: ('A' for Active; 'I' for Inactive)
REMARK    1  A    between atoms: C_6  and  C_7
REMARK    2  A    between atoms: C_7  and  C_8
REMARK    3  A    between atoms: C_9  and  C_10
REMARK                            x       y       z     vdW  Elec       q    Type
REMARK                         _______ _______ _______ _____ _____    ______ ____
ROOT
ATOM      1  C   UNL     1       2.295   6.909  18.642  0.00  0.00    +0.000 A 
ATOM      2  C   UNL     1       1.774   6.303  19.782  0.00  0.00    +0.000 A 
ATOM      3  N   UNL     1       1.197   7.247  20.612  0.00  0.00    +0.000 NA
ATOM      4  C   UNL     1       1.330   8.404  19.988  0.00  0.00    +0.000 A 
ATOM      5  C   UNL     1       0.928   9.764  20.389  0.00  0.00    +0.000 A 
ATOM      6  C   UNL     1       0.283  10.036  21.596  0.00  0.00    +0.000 A 
ATOM      7  C   UNL     1      -0.045  11.355  21.933  0.00  0.00    +0.000 A 
ATOM      8  C   UNL     1       0.268  12.407  21.068  0.00  0.00    +0.000 A 
ATOM      9  C   UNL     1       0.904  12.147  19.856  0.00  0.00    +0.000 A 
ATOM     10  C   UNL     1       1.230  10.836  19.508  0.00  0.00    +0.000 A 
ATOM     11  C   UNL     1       1.893  10.569  18.220  0.00  0.00    +0.000 A 
ATOM     12  C   UNL     1       2.236   9.312  17.905  0.00  0.00    +0.000 A 
ATOM     13  N   UNL     1       1.981   8.246  18.772  0.00  0.00    +0.000 N 
ENDROOT
BRANCH   2  14
ATOM     14  C   UNL     1       1.914   4.883  20.135  0.00  0.00    +0.000 A 
ATOM     15  C   UNL     1       1.488   3.884  19.253  0.00  0.00    +0.000 A 
ATOM     16  C   UNL     1       1.467   2.538  19.653  0.00  0.00    +0.000 A 
ATOM     17  C   UNL     1       1.864   2.172  20.939  0.00  0.00    +0.000 A 
ATOM     18  C   UNL     1       2.351   3.143  21.802  0.00  0.00    +0.000 A 
ATOM     19  C   UNL     1       2.410   4.472  21.382  0.00  0.00    +0.000 A 
ENDBRANCH   2  14
BRANCH   1  20
ATOM     20  C   UNL     1       3.091   6.393  17.484  0.00  0.00    +0.000 C 
BRANCH  20  26
ATOM     21 CL   UNL     1       8.051   8.151  17.495  0.00  0.00    +0.000 Cl
ATOM     22  C   UNL     1       6.884   6.916  17.770  0.00  0.00    +0.000 A 
ATOM     23  C   UNL     1       7.303   5.643  18.145  0.00  0.00    +0.000 A 
ATOM     24  C   UNL     1       6.358   4.641  18.358  0.00  0.00    +0.000 A 
ATOM     25  C   UNL     1       5.000   4.912  18.181  0.00  0.00    +0.000 A 
ATOM     26  C   UNL     1       4.568   6.184  17.765  0.00  0.00    +0.000 A 
ATOM     27  C   UNL     1       5.529   7.194  17.592  0.00  0.00    +0.000 A 
ENDBRANCH  20  26
ENDBRANCH   1  20
TORSDOF 3
ENDMDL
MODEL 8
REMARK VINA RESULT:      -7.5      4.946      7.706
REMARK  Name = 
REMARK  3 active torsions:
REMARK  status: ('A' for Active; 'I' for Inactive)
REMARK    1  A    between atoms: C_6  and  C_7
REMARK    2  A    between atoms: C_7  and  C_8
REMARK    3  A    between atoms: C_9  and  C_10
REMARK                            x       y       z     vdW  Elec       q    Type
REMARK                         _______ _______ _______ _____ _____    ______ ____
ROOT
ATOM      1  C   UNL     1       0.087  11.330  19.139  0.00  0.00    +0.000 A 
ATOM      2  C   UNL     1       1.338  10.751  18.945  0.00  0.00    +0.000 A 
ATOM      3  N   UNL     1       2.281  11.721  18.659  0.00  0.00    +0.000 NA
ATOM      4  C   UNL     1       1.638  12.875  18.705  0.00  0.00    +0.000 A 
ATOM      5  C   UNL     1       2.112  14.249  18.467  0.00  0.00    +0.000 A 
ATOM      6  C   UNL     1       3.435  14.547  18.139  0.00  0.00    +0.000 A 
ATOM      7  C   UNL     1       3.815  15.872  17.895  0.00  0.00    +0.000 A 
ATOM      8  C   UNL     1       2.879  16.906  17.978  0.00  0.00    +0.000 A 
ATOM      9  C   UNL     1       1.557  16.623  18.315  0.00  0.00    +0.000 A 
ATOM     10  C   UNL     1       1.169  15.306  18.566  0.00  0.00    +0.000 A 
ATOM     11  C   UNL     1      -0.229  15.017  18.931  0.00  0.00    +0.000 A 
ATOM     12  C   UNL     1      -0.606  13.747  19.136  0.00  0.00    +0.000 A 
ATOM     13  N   UNL     1       0.297  12.688  19.011  0.00  0.00    +0.000 N 
ENDROOT
BRANCH   2  14
ATOM     14  C   UNL     1       1.618   9.309  18.919  0.00  0.00    +0.000 A 
ATOM     15  C   UNL     1       1.522   8.543  20.086  0.00  0.00    +0.000 A 
ATOM     16  C   UNL     1       1.946   7.205  20.101  0.00  0.00    +0.000 A 
ATOM     17  C   UNL     1       2.477   6.615  18.954  0.00  0.00    +0.000 A 
ATOM     18  C   UNL     1       2.517   7.340  17.772  0.00  0.00    +0.000 A 
ATOM     19  C   UNL     1       2.052   8.656  17.755  0.00  0.00    +0.000 A 
ENDBRANCH   2  14
BRANCH   1  20
ATOM     20  C   UNL     1      -1.277  10.760  19.376  0.00  0.00    +0.000 C 
BRANCH  20  26
ATOM     21 CL   UNL     1      -5.736  12.328  17.062  0.00  0.00    +0.000 Cl
ATOM     22  C   UNL     1      -4.253  11.454  17.052  0.00  0.00    +0.000 A 
ATOM     23  C   UNL     1      -3.935  10.650  15.961  0.00  0.00    +0.000 A 
ATOM     24  C   UNL     1      -2.738   9.935  15.957  0.00  0.00    +0.000 A 
ATOM     25  C   UNL     1      -1.873  10.016  17.049  0.00  0.00    +0.000 A 
ATOM     26  C   UNL     1      -2.202  10.795  18.173  0.00  0.00    +0.000 A 
ATOM     27  C   UNL     1      -3.393  11.539  18.146  0.00  0.00    +0.000 A 
ENDBRANCH  20  26
ENDBRANCH   1  20
TORSDOF 3
ENDMDL
MODEL 9
REMARK VINA RESULT:      -7.4      1.925      2.592
REMARK  Name = 
REMARK  3 active torsions:
REMARK  status: ('A' for Active; 'I' for Inactive)
REMARK    1  A    between atoms: C_6  and  C_7
REMARK    2  A    between atoms: C_7  and  C_8
REMARK    3  A    between atoms: C_9  and  C_10
REMARK                            x       y       z     vdW  Elec       q    Type
REMARK                         _______ _______ _______ _____ _____    ______ ____
ROOT
ATOM      1  C   UNL     1       1.840   7.469  19.268  0.00  0.00    +0.000 A 
ATOM      2  C   UNL     1       1.323   6.699  20.305  0.00  0.00    +0.000 A 
ATOM      3  N   UNL     1       0.655   7.498  21.215  0.00  0.00    +0.000 NA
ATOM      4  C   UNL     1       0.732   8.728  20.738  0.00  0.00    +0.000 A 
ATOM      5  C   UNL     1       0.226  10.002  21.281  0.00  0.00    +0.000 A 
ATOM      6  C   UNL     1      -0.476  10.086  22.483  0.00  0.00    +0.000 A 
ATOM      7  C   UNL     1      -0.904  11.331  22.959  0.00  0.00    +0.000 A 
ATOM      8  C   UNL     1      -0.632  12.498  22.239  0.00  0.00    +0.000 A 
ATOM      9  C   UNL     1       0.061  12.426  21.032  0.00  0.00    +0.000 A 
ATOM     10  C   UNL     1       0.486  11.189  20.546  0.00  0.00    +0.000 A 
ATOM     11  C   UNL     1       1.209  11.121  19.264  0.00  0.00    +0.000 A 
ATOM     12  C   UNL     1       1.646   9.935  18.818  0.00  0.00    +0.000 A 
ATOM     13  N   UNL     1       1.433   8.759  19.541  0.00  0.00    +0.000 N 
ENDROOT
BRANCH   2  14
ATOM     14  C   UNL     1       1.545   5.258  20.494  0.00  0.00    +0.000 A 
ATOM     15  C   UNL     1       0.732   4.321  19.846  0.00  0.00    +0.000 A 
ATOM     16  C   UNL     1       0.834   2.954  20.150  0.00  0.00    +0.000 A 
ATOM     17  C   UNL     1       1.742   2.505  21.110  0.00  0.00    +0.000 A 
ATOM     18  C   UNL     1       2.600   3.414  21.712  0.00  0.00    +0.000 A 
ATOM     19  C   UNL     1       2.522   4.765  21.371  0.00  0.00    +0.000 A 
ENDBRANCH   2  14
BRANCH   1  20
ATOM     20  C   UNL     1       2.709   7.147  18.091  0.00  0.00    +0.000 C 
BRANCH  20  26
ATOM     21 CL   UNL     1       3.429   1.963  17.548  0.00  0.00    +0.000 Cl
ATOM     22  C   UNL     1       3.960   3.518  18.061  0.00  0.00    +0.000 A 
ATOM     23  C   UNL     1       5.160   3.642  18.757  0.00  0.00    +0.000 A 
ATOM     24  C   UNL     1       5.584   4.900  19.180  0.00  0.00    +0.000 A 
ATOM     25  C   UNL     1       4.801   6.026  18.919  0.00  0.00    +0.000 A 
ATOM     26  C   UNL     1       3.569   5.907  18.251  0.00  0.00    +0.000 A 
ATOM     27  C   UNL     1       3.173   4.638  17.797  0.00  0.00    +0.000 A 
ENDBRANCH  20  26
ENDBRANCH   1  20
TORSDOF 3
ENDMDL
