MODEL 1
REMARK VINA RESULT:      -5.7      0.000      0.000
REMARK  Name = 
REMARK  10 active torsions:
REMARK  status: ('A' for Active; 'I' for Inactive)
REMARK    1  A    between atoms: C_1  and  C_2
REMARK    2  A    between atoms: C_2  and  N_3
REMARK    3  A    between atoms: N_3  and  C_4
REMARK    4  A    between atoms: C_4  and  C_5
REMARK    5  A    between atoms: N_9  and  C_10
REMARK    6  A    between atoms: N_19  and  C_20
REMARK    7  A    between atoms: N_19  and  C_22
REMARK    8  A    between atoms: C_20  and  C_21
REMARK    9  A    between atoms: C_22  and  C_23
REMARK   10  A    between atoms: N_26  and  C_27
REMARK                            x       y       z     vdW  Elec       q    Type
REMARK                         _______ _______ _______ _____ _____    ______ ____
ROOT
ATOM      1  N   UNL     1      -1.517  16.644  22.750  0.00  0.00    +0.000 N 
ATOM      2  C   UNL     1      -1.469  15.697  21.739  0.00  0.00    +0.000 A 
ATOM      3  N   UNL     1      -0.434  15.773  20.907  0.00  0.00    +0.000 NA
ATOM      4  C   UNL     1      -0.211  14.779  20.024  0.00  0.00    +0.000 A 
ATOM      5  N   UNL     1       0.953  14.889  19.206  0.00  0.00    +0.000 N 
ATOM      6  C   UNL     1      -1.087  13.703  19.849  0.00  0.00    +0.000 A 
ATOM      7  N   UNL     1      -0.821  12.666  18.997  0.00  0.00    +0.000 NA
ATOM      8  C   UNL     1      -1.752  11.720  18.832  0.00  0.00    +0.000 A 
ATOM      9  N   UNL     1      -1.499  10.625  18.031  0.00  0.00    +0.000 N 
ATOM     10  N   UNL     1      -2.919  11.786  19.449  0.00  0.00    +0.000 NA
ATOM     11  C   UNL     1      -3.123  12.756  20.364  0.00  0.00    +0.000 A 
ATOM     12  N   UNL     1      -4.327  12.512  21.000  0.00  0.00    +0.000 N 
ATOM     13  C   UNL     1      -2.221  13.783  20.651  0.00  0.00    +0.000 A 
ATOM     14  N   UNL     1      -2.392  14.739  21.622  0.00  0.00    +0.000 NA
ATOM     15  H   UNL     1       1.289  13.950  18.997  0.00  0.00    +0.000 HD
ATOM     16  H   UNL     1      -4.707  11.722  20.485  0.00  0.00    +0.000 HD
ENDROOT
BRANCH   5  17
ATOM     17  C   UNL     1       1.986  15.818  19.705  0.00  0.00    +0.000 C 
ATOM     18  C   UNL     1       3.292  15.096  20.073  0.00  0.00    +0.000 C 
ATOM     19  C   UNL     1       4.016  14.536  18.854  0.00  0.00    +0.000 C 
ATOM     20  C   UNL     1       4.305  15.616  17.819  0.00  0.00    +0.000 C 
ATOM     21  C   UNL     1       3.074  16.443  17.456  0.00  0.00    +0.000 C 
ATOM     22  C   UNL     1       2.285  16.922  18.676  0.00  0.00    +0.000 C 
ENDBRANCH   5  17
BRANCH  12  23
ATOM     23  C   UNL     1      -5.322  13.493  21.407  0.00  0.00    +0.000 C 
ATOM     24  C   UNL     1      -5.779  14.418  20.274  0.00  0.00    +0.000 C 
ATOM     25  C   UNL     1      -6.472  13.668  19.135  0.00  0.00    +0.000 C 
ATOM     26  C   UNL     1      -7.642  12.821  19.632  0.00  0.00    +0.000 C 
ATOM     27  C   UNL     1      -7.261  11.922  20.806  0.00  0.00    +0.000 C 
ATOM     28  C   UNL     1      -6.546  12.700  21.923  0.00  0.00    +0.000 C 
ENDBRANCH  12  23
BRANCH   1  30
ATOM     29  C   UNL     1      -0.060  18.618  23.140  0.00  0.00    +0.000 C 
ATOM     30  C   UNL     1      -1.209  18.016  22.337  0.00  0.00    +0.000 C 
ENDBRANCH   1  30
BRANCH   1  31
ATOM     31  C   UNL     1      -2.382  16.465  23.910  0.00  0.00    +0.000 C 
ATOM     32  C   UNL     1      -1.677  15.762  25.064  0.00  0.00    +0.000 C 
ENDBRANCH   1  31
BRANCH   9  33
ATOM     33  C   UNL     1      -2.590   9.946  17.340  0.00  0.00    +0.000 C 
ATOM     34  C   UNL     1      -2.682  10.272  15.856  0.00  0.00    +0.000 C 
ENDBRANCH   9  33
BRANCH   9  35
ATOM     35  C   UNL     1      -0.162  10.063  18.012  0.00  0.00    +0.000 C 
ATOM     36  C   UNL     1       0.281   9.658  19.407  0.00  0.00    +0.000 C 
ENDBRANCH   9  35
TORSDOF 6
ENDMDL
MODEL 2
REMARK VINA RESULT:      -5.7      1.695      6.744
REMARK  Name = 
REMARK  10 active torsions:
REMARK  status: ('A' for Active; 'I' for Inactive)
REMARK    1  A    between atoms: C_1  and  C_2
REMARK    2  A    between atoms: C_2  and  N_3
REMARK    3  A    between atoms: N_3  and  C_4
REMARK    4  A    between atoms: C_4  and  C_5
REMARK    5  A    between atoms: N_9  and  C_10
REMARK    6  A    between atoms: N_19  and  C_20
REMARK    7  A    between atoms: N_19  and  C_22
REMARK    8  A    between atoms: C_20  and  C_21
REMARK    9  A    between atoms: C_22  and  C_23
REMARK   10  A    between atoms: N_26  and  C_27
REMARK                            x       y       z     vdW  Elec       q    Type
REMARK                         _______ _______ _______ _____ _____    ______ ____
ROOT
ATOM      1  N   UNL     1      -1.073  15.916  23.805  0.00  0.00    +0.000 N 
ATOM      2  C   UNL     1      -1.488  14.959  22.892  0.00  0.00    +0.000 A 
ATOM      3  N   UNL     1      -2.586  14.277  23.209  0.00  0.00    +0.000 NA
ATOM      4  C   UNL     1      -3.161  13.473  22.292  0.00  0.00    +0.000 A 
ATOM      5  N   UNL     1      -4.373  12.821  22.672  0.00  0.00    +0.000 N 
ATOM      6  C   UNL     1      -2.597  13.220  21.038  0.00  0.00    +0.000 A 
ATOM      7  N   UNL     1      -3.220  12.454  20.090  0.00  0.00    +0.000 NA
ATOM      8  C   UNL     1      -2.571  12.198  18.949  0.00  0.00    +0.000 A 
ATOM      9  N   UNL     1      -3.187  11.483  17.941  0.00  0.00    +0.000 N 
ATOM     10  N   UNL     1      -1.344  12.643  18.738  0.00  0.00    +0.000 NA
ATOM     11  C   UNL     1      -0.788  13.483  19.636  0.00  0.00    +0.000 A 
ATOM     12  N   UNL     1       0.404  13.954  19.116  0.00  0.00    +0.000 N 
ATOM     13  C   UNL     1      -1.372  13.852  20.849  0.00  0.00    +0.000 A 
ATOM     14  N   UNL     1      -0.843  14.752  21.741  0.00  0.00    +0.000 NA
ATOM     15  H   UNL     1      -4.946  12.698  21.839  0.00  0.00    +0.000 HD
ATOM     16  H   UNL     1       0.510  13.422  18.255  0.00  0.00    +0.000 HD
ENDROOT
BRANCH   5  17
ATOM     17  C   UNL     1      -5.075  13.424  23.822  0.00  0.00    +0.000 C 
ATOM     18  C   UNL     1      -5.647  14.812  23.496  0.00  0.00    +0.000 C 
ATOM     19  C   UNL     1      -6.795  14.754  22.495  0.00  0.00    +0.000 C 
ATOM     20  C   UNL     1      -7.917  13.840  22.969  0.00  0.00    +0.000 C 
ATOM     21  C   UNL     1      -7.425  12.459  23.397  0.00  0.00    +0.000 C 
ATOM     22  C   UNL     1      -6.207  12.510  24.322  0.00  0.00    +0.000 C 
ENDBRANCH   5  17
BRANCH  12  23
ATOM     23  C   UNL     1       1.650  14.179  19.833  0.00  0.00    +0.000 C 
ATOM     24  C   UNL     1       2.879  13.577  19.144  0.00  0.00    +0.000 C 
ATOM     25  C   UNL     1       3.152  14.191  17.770  0.00  0.00    +0.000 C 
ATOM     26  C   UNL     1       3.271  15.712  17.833  0.00  0.00    +0.000 C 
ATOM     27  C   UNL     1       2.102  16.365  18.566  0.00  0.00    +0.000 C 
ATOM     28  C   UNL     1       1.838  15.711  19.932  0.00  0.00    +0.000 C 
ENDBRANCH  12  23
BRANCH   1  30
ATOM     29  C   UNL     1      -1.737  16.552  26.113  0.00  0.00    +0.000 C 
ATOM     30  C   UNL     1      -1.107  15.496  25.210  0.00  0.00    +0.000 C 
ENDBRANCH   1  30
BRANCH   1  31
ATOM     31  C   UNL     1      -0.117  16.950  23.432  0.00  0.00    +0.000 C 
ATOM     32  C   UNL     1      -0.792  18.213  22.910  0.00  0.00    +0.000 C 
ENDBRANCH   1  31
BRANCH   9  33
ATOM     33  C   UNL     1      -2.397  10.674  17.020  0.00  0.00    +0.000 C 
ATOM     34  C   UNL     1      -2.784  10.844  15.557  0.00  0.00    +0.000 C 
ENDBRANCH   9  33
BRANCH   9  35
ATOM     35  C   UNL     1      -4.607  11.673  17.714  0.00  0.00    +0.000 C 
ATOM     36  C   UNL     1      -5.396  10.445  18.129  0.00  0.00    +0.000 C 
ENDBRANCH   9  35
TORSDOF 6
ENDMDL
MODEL 3
REMARK VINA RESULT:      -5.6      1.172      1.315
REMARK  Name = 
REMARK  10 active torsions:
REMARK  status: ('A' for Active; 'I' for Inactive)
REMARK    1  A    between atoms: C_1  and  C_2
REMARK    2  A    between atoms: C_2  and  N_3
REMARK    3  A    between atoms: N_3  and  C_4
REMARK    4  A    between atoms: C_4  and  C_5
REMARK    5  A    between atoms: N_9  and  C_10
REMARK    6  A    between atoms: N_19  and  C_20
REMARK    7  A    between atoms: N_19  and  C_22
REMARK    8  A    between atoms: C_20  and  C_21
REMARK    9  A    between atoms: C_22  and  C_23
REMARK   10  A    between atoms: N_26  and  C_27
REMARK                            x       y       z     vdW  Elec       q    Type
REMARK                         _______ _______ _______ _____ _____    ______ ____
ROOT
ATOM      1  N   UNL     1      -1.003  16.364  23.776  0.00  0.00    +0.000 N 
ATOM      2  C   UNL     1      -1.263  15.600  22.649  0.00  0.00    +0.000 A 
ATOM      3  N   UNL     1      -0.451  15.783  21.611  0.00  0.00    +0.000 NA
ATOM      4  C   UNL     1      -0.515  14.946  20.556  0.00  0.00    +0.000 A 
ATOM      5  N   UNL     1       0.428  15.155  19.506  0.00  0.00    +0.000 N 
ATOM      6  C   UNL     1      -1.481  13.942  20.436  0.00  0.00    +0.000 A 
ATOM      7  N   UNL     1      -1.498  13.056  19.394  0.00  0.00    +0.000 NA
ATOM      8  C   UNL     1      -2.506  12.180  19.316  0.00  0.00    +0.000 A 
ATOM      9  N   UNL     1      -2.529  11.229  18.317  0.00  0.00    +0.000 N 
ATOM     10  N   UNL     1      -3.487  12.178  20.203  0.00  0.00    +0.000 NA
ATOM     11  C   UNL     1      -3.399  12.985  21.280  0.00  0.00    +0.000 A 
ATOM     12  N   UNL     1      -4.433  12.676  22.146  0.00  0.00    +0.000 N 
ATOM     13  C   UNL     1      -2.385  13.921  21.494  0.00  0.00    +0.000 A 
ATOM     14  N   UNL     1      -2.253  14.704  22.614  0.00  0.00    +0.000 NA
ATOM     15  H   UNL     1       0.637  14.255  19.077  0.00  0.00    +0.000 HD
ATOM     16  H   UNL     1      -4.979  11.996  21.622  0.00  0.00    +0.000 HD
ENDROOT
BRANCH   5  17
ATOM     17  C   UNL     1       1.613  15.954  19.876  0.00  0.00    +0.000 C 
ATOM     18  C   UNL     1       2.929  15.249  19.515  0.00  0.00    +0.000 C 
ATOM     19  C   UNL     1       3.147  15.147  18.009  0.00  0.00    +0.000 C 
ATOM     20  C   UNL     1       3.098  16.512  17.335  0.00  0.00    +0.000 C 
ATOM     21  C   UNL     1       1.859  17.321  17.707  0.00  0.00    +0.000 C 
ATOM     22  C   UNL     1       1.578  17.341  19.211  0.00  0.00    +0.000 C 
ENDBRANCH   5  17
BRANCH  12  23
ATOM     23  C   UNL     1      -5.232  13.604  22.931  0.00  0.00    +0.000 C 
ATOM     24  C   UNL     1      -5.825  14.756  22.113  0.00  0.00    +0.000 C 
ATOM     25  C   UNL     1      -6.801  14.281  21.036  0.00  0.00    +0.000 C 
ATOM     26  C   UNL     1      -7.916  13.411  21.613  0.00  0.00    +0.000 C 
ATOM     27  C   UNL     1      -7.386  12.280  22.491  0.00  0.00    +0.000 C 
ATOM     28  C   UNL     1      -6.391  12.786  23.548  0.00  0.00    +0.000 C 
ENDBRANCH  12  23
BRANCH   1  30
ATOM     29  C   UNL     1      -1.968  18.625  23.416  0.00  0.00    +0.000 C 
ATOM     30  C   UNL     1      -0.705  17.776  23.519  0.00  0.00    +0.000 C 
ENDBRANCH   1  30
BRANCH   1  31
ATOM     31  C   UNL     1      -1.579  16.019  25.070  0.00  0.00    +0.000 C 
ATOM     32  C   UNL     1      -0.599  16.217  26.220  0.00  0.00    +0.000 C 
ENDBRANCH   1  31
BRANCH   9  33
ATOM     33  C   UNL     1      -3.798  10.711  17.817  0.00  0.00    +0.000 C 
ATOM     34  C   UNL     1      -4.090  11.078  16.369  0.00  0.00    +0.000 C 
ENDBRANCH   9  33
BRANCH   9  35
ATOM     35  C   UNL     1      -1.277  10.637  17.884  0.00  0.00    +0.000 C 
ATOM     36  C   UNL     1      -0.577   9.936  19.034  0.00  0.00    +0.000 C 
ENDBRANCH   9  35
TORSDOF 6
ENDMDL
MODEL 4
REMARK VINA RESULT:      -5.5      1.489      8.390
REMARK  Name = 
REMARK  10 active torsions:
REMARK  status: ('A' for Active; 'I' for Inactive)
REMARK    1  A    between atoms: C_1  and  C_2
REMARK    2  A    between atoms: C_2  and  N_3
REMARK    3  A    between atoms: N_3  and  C_4
REMARK    4  A    between atoms: C_4  and  C_5
REMARK    5  A    between atoms: N_9  and  C_10
REMARK    6  A    between atoms: N_19  and  C_20
REMARK    7  A    between atoms: N_19  and  C_22
REMARK    8  A    between atoms: C_20  and  C_21
REMARK    9  A    between atoms: C_22  and  C_23
REMARK   10  A    between atoms: N_26  and  C_27
REMARK                            x       y       z     vdW  Elec       q    Type
REMARK                         _______ _______ _______ _____ _____    ______ ____
ROOT
ATOM      1  N   UNL     1      -0.922  10.488  18.889  0.00  0.00    +0.000 N 
ATOM      2  C   UNL     1      -1.314  11.672  19.492  0.00  0.00    +0.000 A 
ATOM      3  N   UNL     1      -2.597  12.001  19.368  0.00  0.00    +0.000 NA
ATOM      4  C   UNL     1      -3.096  13.029  20.085  0.00  0.00    +0.000 A 
ATOM      5  N   UNL     1      -4.494  13.288  19.958  0.00  0.00    +0.000 N 
ATOM      6  C   UNL     1      -2.302  13.859  20.882  0.00  0.00    +0.000 A 
ATOM      7  N   UNL     1      -2.827  14.859  21.656  0.00  0.00    +0.000 NA
ATOM      8  C   UNL     1      -1.986  15.657  22.325  0.00  0.00    +0.000 A 
ATOM      9  N   UNL     1      -2.474  16.636  23.165  0.00  0.00    +0.000 N 
ATOM     10  N   UNL     1      -0.675  15.513  22.227  0.00  0.00    +0.000 NA
ATOM     11  C   UNL     1      -0.180  14.459  21.547  0.00  0.00    +0.000 A 
ATOM     12  N   UNL     1       1.189  14.418  21.739  0.00  0.00    +0.000 N 
ATOM     13  C   UNL     1      -0.949  13.539  20.833  0.00  0.00    +0.000 A 
ATOM     14  N   UNL     1      -0.461  12.430  20.187  0.00  0.00    +0.000 NA
ATOM     15  H   UNL     1      -4.831  13.670  20.840  0.00  0.00    +0.000 HD
ATOM     16  H   UNL     1       1.378  15.271  22.260  0.00  0.00    +0.000 HD
ENDROOT
BRANCH   5  17
ATOM     17  C   UNL     1      -5.294  12.169  19.422  0.00  0.00    +0.000 C 
ATOM     18  C   UNL     1      -6.614  11.977  20.185  0.00  0.00    +0.000 C 
ATOM     19  C   UNL     1      -7.593  13.123  19.961  0.00  0.00    +0.000 C 
ATOM     20  C   UNL     1      -7.885  13.341  18.482  0.00  0.00    +0.000 C 
ATOM     21  C   UNL     1      -6.623  13.457  17.632  0.00  0.00    +0.000 C 
ATOM     22  C   UNL     1      -5.592  12.366  17.926  0.00  0.00    +0.000 C 
ENDBRANCH   5  17
BRANCH  12  23
ATOM     23  C   UNL     1       2.207  14.085  20.753  0.00  0.00    +0.000 C 
ATOM     24  C   UNL     1       2.154  14.953  19.491  0.00  0.00    +0.000 C 
ATOM     25  C   UNL     1       2.413  16.433  19.774  0.00  0.00    +0.000 C 
ATOM     26  C   UNL     1       3.729  16.656  20.515  0.00  0.00    +0.000 C 
ATOM     27  C   UNL     1       3.867  15.771  21.751  0.00  0.00    +0.000 C 
ATOM     28  C   UNL     1       3.578  14.293  21.440  0.00  0.00    +0.000 C 
ENDBRANCH  12  23
BRANCH   1  30
ATOM     29  C   UNL     1      -2.823   9.615  17.550  0.00  0.00    +0.000 C 
ATOM     30  C   UNL     1      -1.445  10.270  17.537  0.00  0.00    +0.000 C 
ENDBRANCH   1  30
BRANCH   1  31
ATOM     31  C   UNL     1       0.341   9.847  19.236  0.00  0.00    +0.000 C 
ATOM     32  C   UNL     1       1.166   9.473  18.010  0.00  0.00    +0.000 C 
ENDBRANCH   1  31
BRANCH   9  33
ATOM     33  C   UNL     1      -1.711  17.857  23.399  0.00  0.00    +0.000 C 
ATOM     34  C   UNL     1      -1.295  18.060  24.849  0.00  0.00    +0.000 C 
ENDBRANCH   9  33
BRANCH   9  35
ATOM     35  C   UNL     1      -3.675  16.367  23.934  0.00  0.00    +0.000 C 
ATOM     36  C   UNL     1      -4.792  17.323  23.556  0.00  0.00    +0.000 C 
ENDBRANCH   9  35
TORSDOF 6
ENDMDL
MODEL 5
REMARK VINA RESULT:      -5.5      2.331      6.692
REMARK  Name = 
REMARK  10 active torsions:
REMARK  status: ('A' for Active; 'I' for Inactive)
REMARK    1  A    between atoms: C_1  and  C_2
REMARK    2  A    between atoms: C_2  and  N_3
REMARK    3  A    between atoms: N_3  and  C_4
REMARK    4  A    between atoms: C_4  and  C_5
REMARK    5  A    between atoms: N_9  and  C_10
REMARK    6  A    between atoms: N_19  and  C_20
REMARK    7  A    between atoms: N_19  and  C_22
REMARK    8  A    between atoms: C_20  and  C_21
REMARK    9  A    between atoms: C_22  and  C_23
REMARK   10  A    between atoms: N_26  and  C_27
REMARK                            x       y       z     vdW  Elec       q    Type
REMARK                         _______ _______ _______ _____ _____    ______ ____
ROOT
ATOM      1  N   UNL     1      -0.770  14.904  22.738  0.00  0.00    +0.000 N 
ATOM      2  C   UNL     1      -1.471  14.094  21.859  0.00  0.00    +0.000 A 
ATOM      3  N   UNL     1      -2.761  13.905  22.129  0.00  0.00    +0.000 NA
ATOM      4  C   UNL     1      -3.551  13.296  21.223  0.00  0.00    +0.000 A 
ATOM      5  N   UNL     1      -4.938  13.185  21.544  0.00  0.00    +0.000 N 
ATOM      6  C   UNL     1      -3.063  12.735  20.038  0.00  0.00    +0.000 A 
ATOM      7  N   UNL     1      -3.882  12.176  19.095  0.00  0.00    +0.000 NA
ATOM      8  C   UNL     1      -3.322  11.591  18.030  0.00  0.00    +0.000 A 
ATOM      9  N   UNL     1      -4.112  11.071  17.025  0.00  0.00    +0.000 N 
ATOM     10  N   UNL     1      -2.009  11.521  17.892  0.00  0.00    +0.000 NA
ATOM     11  C   UNL     1      -1.222  12.169  18.775  0.00  0.00    +0.000 A 
ATOM     12  N   UNL     1       0.085  12.108  18.325  0.00  0.00    +0.000 N 
ATOM     13  C   UNL     1      -1.682  12.841  19.909  0.00  0.00    +0.000 A 
ATOM     14  N   UNL     1      -0.896  13.554  20.781  0.00  0.00    +0.000 NA
ATOM     15  H   UNL     1      -5.471  13.210  20.676  0.00  0.00    +0.000 HD
ATOM     16  H   UNL     1       0.023  11.499  17.512  0.00  0.00    +0.000 HD
ENDROOT
BRANCH   5  17
ATOM     17  C   UNL     1      -5.415  14.110  22.591  0.00  0.00    +0.000 C 
ATOM     18  C   UNL     1      -6.813  14.669  22.283  0.00  0.00    +0.000 C 
ATOM     19  C   UNL     1      -7.901  13.604  22.364  0.00  0.00    +0.000 C 
ATOM     20  C   UNL     1      -7.917  12.909  23.719  0.00  0.00    +0.000 C 
ATOM     21  C   UNL     1      -6.544  12.395  24.145  0.00  0.00    +0.000 C 
ATOM     22  C   UNL     1      -5.429  13.429  23.970  0.00  0.00    +0.000 C 
ENDBRANCH   5  17
BRANCH  12  23
ATOM     23  C   UNL     1       1.284  11.914  19.126  0.00  0.00    +0.000 C 
ATOM     24  C   UNL     1       1.058  11.071  20.385  0.00  0.00    +0.000 C 
ATOM     25  C   UNL     1       0.611   9.641  20.073  0.00  0.00    +0.000 C 
ATOM     26  C   UNL     1       1.576   8.931  19.125  0.00  0.00    +0.000 C 
ATOM     27  C   UNL     1       1.889   9.754  17.878  0.00  0.00    +0.000 C 
ATOM     28  C   UNL     1       2.312  11.190  18.223  0.00  0.00    +0.000 C 
ENDBRANCH  12  23
BRANCH   1  30
ATOM     29  C   UNL     1      -1.244  15.953  24.939  0.00  0.00    +0.000 C 
ATOM     30  C   UNL     1      -1.033  14.659  24.159  0.00  0.00    +0.000 C 
ENDBRANCH   1  30
BRANCH   1  31
ATOM     31  C   UNL     1       0.526  15.464  22.377  0.00  0.00    +0.000 C 
ATOM     32  C   UNL     1       0.541  16.987  22.425  0.00  0.00    +0.000 C 
ENDBRANCH   1  31
BRANCH   9  33
ATOM     33  C   UNL     1      -3.644   9.943  16.226  0.00  0.00    +0.000 C 
ATOM     34  C   UNL     1      -3.322  10.297  14.781  0.00  0.00    +0.000 C 
ENDBRANCH   9  33
BRANCH   9  35
ATOM     35  C   UNL     1      -5.339  11.758  16.670  0.00  0.00    +0.000 C 
ATOM     36  C   UNL     1      -6.405  11.557  17.731  0.00  0.00    +0.000 C 
ENDBRANCH   9  35
TORSDOF 6
ENDMDL
MODEL 6
REMARK VINA RESULT:      -5.4      1.418      6.784
REMARK  Name = 
REMARK  10 active torsions:
REMARK  status: ('A' for Active; 'I' for Inactive)
REMARK    1  A    between atoms: C_1  and  C_2
REMARK    2  A    between atoms: C_2  and  N_3
REMARK    3  A    between atoms: N_3  and  C_4
REMARK    4  A    between atoms: C_4  and  C_5
REMARK    5  A    between atoms: N_9  and  C_10
REMARK    6  A    between atoms: N_19  and  C_20
REMARK    7  A    between atoms: N_19  and  C_22
REMARK    8  A    between atoms: C_20  and  C_21
REMARK    9  A    between atoms: C_22  and  C_23
REMARK   10  A    between atoms: N_26  and  C_27
REMARK                            x       y       z     vdW  Elec       q    Type
REMARK                         _______ _______ _______ _____ _____    ______ ____
ROOT
ATOM      1  N   UNL     1      -1.376  16.801  23.463  0.00  0.00    +0.000 N 
ATOM      2  C   UNL     1      -1.623  15.702  22.656  0.00  0.00    +0.000 A 
ATOM      3  N   UNL     1      -2.654  14.935  23.001  0.00  0.00    +0.000 NA
ATOM      4  C   UNL     1      -3.077  13.966  22.164  0.00  0.00    +0.000 A 
ATOM      5  N   UNL     1      -4.229  13.224  22.563  0.00  0.00    +0.000 N 
ATOM      6  C   UNL     1      -2.412  13.638  20.979  0.00  0.00    +0.000 A 
ATOM      7  N   UNL     1      -2.885  12.698  20.104  0.00  0.00    +0.000 NA
ATOM      8  C   UNL     1      -2.141  12.389  19.035  0.00  0.00    +0.000 A 
ATOM      9  N   UNL     1      -2.609  11.494  18.095  0.00  0.00    +0.000 N 
ATOM     10  N   UNL     1      -0.962  12.951  18.830  0.00  0.00    +0.000 NA
ATOM     11  C   UNL     1      -0.561  13.949  19.643  0.00  0.00    +0.000 A 
ATOM     12  N   UNL     1       0.600  14.495  19.126  0.00  0.00    +0.000 N 
ATOM     13  C   UNL     1      -1.257  14.386  20.772  0.00  0.00    +0.000 A 
ATOM     14  N   UNL     1      -0.889  15.440  21.571  0.00  0.00    +0.000 NA
ATOM     15  H   UNL     1      -4.732  12.936  21.725  0.00  0.00    +0.000 HD
ATOM     16  H   UNL     1       0.818  13.883  18.344  0.00  0.00    +0.000 HD
ENDROOT
BRANCH   5  17
ATOM     17  C   UNL     1      -5.065  13.868  23.595  0.00  0.00    +0.000 C 
ATOM     18  C   UNL     1      -5.937  14.995  23.021  0.00  0.00    +0.000 C 
ATOM     19  C   UNL     1      -7.029  14.477  22.092  0.00  0.00    +0.000 C 
ATOM     20  C   UNL     1      -7.915  13.445  22.777  0.00  0.00    +0.000 C 
ATOM     21  C   UNL     1      -7.124  12.328  23.451  0.00  0.00    +0.000 C 
ATOM     22  C   UNL     1      -5.961  12.839  24.305  0.00  0.00    +0.000 C 
ENDBRANCH   5  17
BRANCH  12  23
ATOM     23  C   UNL     1       1.766  14.950  19.870  0.00  0.00    +0.000 C 
ATOM     24  C   UNL     1       3.037  14.144  19.582  0.00  0.00    +0.000 C 
ATOM     25  C   UNL     1       3.490  14.247  18.124  0.00  0.00    +0.000 C 
ATOM     26  C   UNL     1       3.669  15.696  17.678  0.00  0.00    +0.000 C 
ATOM     27  C   UNL     1       2.455  16.565  17.997  0.00  0.00    +0.000 C 
ATOM     28  C   UNL     1       2.010  16.422  19.461  0.00  0.00    +0.000 C 
ENDBRANCH  12  23
BRANCH   1  30
ATOM     29  C   UNL     1      -2.375  17.528  25.618  0.00  0.00    +0.000 C 
ATOM     30  C   UNL     1      -1.449  16.547  24.905  0.00  0.00    +0.000 C 
ENDBRANCH   1  30
BRANCH   1  31
ATOM     31  C   UNL     1      -0.521  17.891  23.011  0.00  0.00    +0.000 C 
ATOM     32  C   UNL     1       0.866  17.851  23.643  0.00  0.00    +0.000 C 
ENDBRANCH   1  31
BRANCH   9  33
ATOM     33  C   UNL     1      -1.678  10.682  17.319  0.00  0.00    +0.000 C 
ATOM     34  C   UNL     1      -0.732   9.843  18.166  0.00  0.00    +0.000 C 
ENDBRANCH   9  33
BRANCH   9  35
ATOM     35  C   UNL     1      -4.025  11.485  17.778  0.00  0.00    +0.000 C 
ATOM     36  C   UNL     1      -4.260  11.074  16.336  0.00  0.00    +0.000 C 
ENDBRANCH   9  35
TORSDOF 6
ENDMDL
MODEL 7
REMARK VINA RESULT:      -5.3      0.890      1.363
REMARK  Name = 
REMARK  10 active torsions:
REMARK  status: ('A' for Active; 'I' for Inactive)
REMARK    1  A    between atoms: C_1  and  C_2
REMARK    2  A    between atoms: C_2  and  N_3
REMARK    3  A    between atoms: N_3  and  C_4
REMARK    4  A    between atoms: C_4  and  C_5
REMARK    5  A    between atoms: N_9  and  C_10
REMARK    6  A    between atoms: N_19  and  C_20
REMARK    7  A    between atoms: N_19  and  C_22
REMARK    8  A    between atoms: C_20  and  C_21
REMARK    9  A    between atoms: C_22  and  C_23
REMARK   10  A    between atoms: N_26  and  C_27
REMARK                            x       y       z     vdW  Elec       q    Type
REMARK                         _______ _______ _______ _____ _____    ______ ____
ROOT
ATOM      1  N   UNL     1      -1.537  17.271  22.036  0.00  0.00    +0.000 N 
ATOM      2  C   UNL     1      -1.460  16.174  21.192  0.00  0.00    +0.000 A 
ATOM      3  N   UNL     1      -0.431  16.149  20.347  0.00  0.00    +0.000 NA
ATOM      4  C   UNL     1      -0.178  15.033  19.635  0.00  0.00    +0.000 A 
ATOM      5  N   UNL     1       0.979  15.048  18.799  0.00  0.00    +0.000 N 
ATOM      6  C   UNL     1      -1.016  13.914  19.646  0.00  0.00    +0.000 A 
ATOM      7  N   UNL     1      -0.717  12.762  18.971  0.00  0.00    +0.000 NA
ATOM      8  C   UNL     1      -1.615  11.770  18.971  0.00  0.00    +0.000 A 
ATOM      9  N   UNL     1      -1.327  10.569  18.356  0.00  0.00    +0.000 N 
ATOM     10  N   UNL     1      -2.781  11.896  19.581  0.00  0.00    +0.000 NA
ATOM     11  C   UNL     1      -3.015  12.994  20.329  0.00  0.00    +0.000 A 
ATOM     12  N   UNL     1      -4.207  12.816  21.008  0.00  0.00    +0.000 N 
ATOM     13  C   UNL     1      -2.149  14.084  20.436  0.00  0.00    +0.000 A 
ATOM     14  N   UNL     1      -2.349  15.179  21.240  0.00  0.00    +0.000 NA
ATOM     15  H   UNL     1       1.346  14.099  18.742  0.00  0.00    +0.000 HD
ATOM     16  H   UNL     1      -4.561  11.940  20.631  0.00  0.00    +0.000 HD
ENDROOT
BRANCH   5  17
ATOM     17  C   UNL     1       1.981  16.080  19.131  0.00  0.00    +0.000 C 
ATOM     18  C   UNL     1       3.011  15.585  20.157  0.00  0.00    +0.000 C 
ATOM     19  C   UNL     1       3.929  14.507  19.593  0.00  0.00    +0.000 C 
ATOM     20  C   UNL     1       4.648  14.974  18.334  0.00  0.00    +0.000 C 
ATOM     21  C   UNL     1       3.704  15.562  17.288  0.00  0.00    +0.000 C 
ATOM     22  C   UNL     1       2.711  16.571  17.869  0.00  0.00    +0.000 C 
ENDBRANCH   5  17
BRANCH  12  23
ATOM     23  C   UNL     1      -5.234  13.816  21.259  0.00  0.00    +0.000 C 
ATOM     24  C   UNL     1      -6.631  13.400  20.787  0.00  0.00    +0.000 C 
ATOM     25  C   UNL     1      -7.162  12.163  21.512  0.00  0.00    +0.000 C 
ATOM     26  C   UNL     1      -7.145  12.334  23.030  0.00  0.00    +0.000 C 
ATOM     27  C   UNL     1      -5.793  12.809  23.554  0.00  0.00    +0.000 C 
ATOM     28  C   UNL     1      -5.275  14.039  22.790  0.00  0.00    +0.000 C 
ENDBRANCH  12  23
BRANCH   1  30
ATOM     29  C   UNL     1      -1.815  18.631  19.976  0.00  0.00    +0.000 C 
ATOM     30  C   UNL     1      -1.279  18.567  21.402  0.00  0.00    +0.000 C 
ENDBRANCH   1  30
BRANCH   1  31
ATOM     31  C   UNL     1      -2.389  17.254  23.218  0.00  0.00    +0.000 C 
ATOM     32  C   UNL     1      -1.596  17.108  24.511  0.00  0.00    +0.000 C 
ENDBRANCH   1  31
BRANCH   9  33
ATOM     33  C   UNL     1      -2.397   9.750  17.795  0.00  0.00    +0.000 C 
ATOM     34  C   UNL     1      -2.671  10.013  16.321  0.00  0.00    +0.000 C 
ENDBRANCH   9  33
BRANCH   9  35
ATOM     35  C   UNL     1       0.029  10.057  18.415  0.00  0.00    +0.000 C 
ATOM     36  C   UNL     1       0.394   9.637  19.828  0.00  0.00    +0.000 C 
ENDBRANCH   9  35
TORSDOF 6
ENDMDL
MODEL 8
REMARK VINA RESULT:      -5.3      1.179      1.386
REMARK  Name = 
REMARK  10 active torsions:
REMARK  status: ('A' for Active; 'I' for Inactive)
REMARK    1  A    between atoms: C_1  and  C_2
REMARK    2  A    between atoms: C_2  and  N_3
REMARK    3  A    between atoms: N_3  and  C_4
REMARK    4  A    between atoms: C_4  and  C_5
REMARK    5  A    between atoms: N_9  and  C_10
REMARK    6  A    between atoms: N_19  and  C_20
REMARK    7  A    between atoms: N_19  and  C_22
REMARK    8  A    between atoms: C_20  and  C_21
REMARK    9  A    between atoms: C_22  and  C_23
REMARK   10  A    between atoms: N_26  and  C_27
REMARK                            x       y       z     vdW  Elec       q    Type
REMARK                         _______ _______ _______ _____ _____    ______ ____
ROOT
ATOM      1  N   UNL     1      -2.809  16.690  22.860  0.00  0.00    +0.000 N 
ATOM      2  C   UNL     1      -2.407  15.778  21.897  0.00  0.00    +0.000 A 
ATOM      3  N   UNL     1      -1.231  16.009  21.319  0.00  0.00    +0.000 NA
ATOM      4  C   UNL     1      -0.683  15.071  20.520  0.00  0.00    +0.000 A 
ATOM      5  N   UNL     1       0.611  15.352  19.986  0.00  0.00    +0.000 N 
ATOM      6  C   UNL     1      -1.344  13.891  20.164  0.00  0.00    +0.000 A 
ATOM      7  N   UNL     1      -0.754  12.916  19.406  0.00  0.00    +0.000 NA
ATOM      8  C   UNL     1      -1.488  11.857  19.045  0.00  0.00    +0.000 A 
ATOM      9  N   UNL     1      -0.916  10.822  18.334  0.00  0.00    +0.000 N 
ATOM     10  N   UNL     1      -2.763  11.755  19.381  0.00  0.00    +0.000 NA
ATOM     11  C   UNL     1      -3.296  12.670  20.216  0.00  0.00    +0.000 A 
ATOM     12  N   UNL     1      -4.569  12.255  20.566  0.00  0.00    +0.000 N 
ATOM     13  C   UNL     1      -2.630  13.802  20.688  0.00  0.00    +0.000 A 
ATOM     14  N   UNL     1      -3.142  14.708  21.584  0.00  0.00    +0.000 NA
ATOM     15  H   UNL     1       1.108  14.470  19.869  0.00  0.00    +0.000 HD
ATOM     16  H   UNL     1      -4.713  11.432  19.986  0.00  0.00    +0.000 HD
ENDROOT
BRANCH   5  17
ATOM     17  C   UNL     1       1.369  16.400  20.696  0.00  0.00    +0.000 C 
ATOM     18  C   UNL     1       2.410  15.815  21.663  0.00  0.00    +0.000 C 
ATOM     19  C   UNL     1       3.554  15.114  20.939  0.00  0.00    +0.000 C 
ATOM     20  C   UNL     1       4.246  16.035  19.943  0.00  0.00    +0.000 C 
ATOM     21  C   UNL     1       3.273  16.729  18.993  0.00  0.00    +0.000 C 
ATOM     22  C   UNL     1       2.068  17.347  19.705  0.00  0.00    +0.000 C 
ENDBRANCH   5  17
BRANCH  12  23
ATOM     23  C   UNL     1      -5.753  13.086  20.725  0.00  0.00    +0.000 C 
ATOM     24  C   UNL     1      -6.090  13.929  19.491  0.00  0.00    +0.000 C 
ATOM     25  C   UNL     1      -6.421  13.080  18.262  0.00  0.00    +0.000 C 
ATOM     26  C   UNL     1      -7.539  12.078  18.540  0.00  0.00    +0.000 C 
ATOM     27  C   UNL     1      -7.289  11.250  19.798  0.00  0.00    +0.000 C 
ATOM     28  C   UNL     1      -6.935  12.129  21.009  0.00  0.00    +0.000 C 
ENDBRANCH  12  23
BRANCH   1  30
ATOM     29  C   UNL     1      -3.692  18.631  21.585  0.00  0.00    +0.000 C 
ATOM     30  C   UNL     1      -2.604  18.099  22.512  0.00  0.00    +0.000 C 
ENDBRANCH   1  30
BRANCH   1  31
ATOM     31  C   UNL     1      -3.881  16.374  23.796  0.00  0.00    +0.000 C 
ATOM     32  C   UNL     1      -3.803  17.197  25.077  0.00  0.00    +0.000 C 
ENDBRANCH   1  31
BRANCH   9  33
ATOM     33  C   UNL     1      -1.722  10.018  17.421  0.00  0.00    +0.000 C 
ATOM     34  C   UNL     1      -2.335  10.809  16.274  0.00  0.00    +0.000 C 
ENDBRANCH   9  33
BRANCH   9  35
ATOM     35  C   UNL     1       0.454  10.445  18.624  0.00  0.00    +0.000 C 
ATOM     36  C   UNL     1       0.892   9.271  17.767  0.00  0.00    +0.000 C 
ENDBRANCH   9  35
TORSDOF 6
ENDMDL
MODEL 9
REMARK VINA RESULT:      -5.3      0.905      1.327
REMARK  Name = 
REMARK  10 active torsions:
REMARK  status: ('A' for Active; 'I' for Inactive)
REMARK    1  A    between atoms: C_1  and  C_2
REMARK    2  A    between atoms: C_2  and  N_3
REMARK    3  A    between atoms: N_3  and  C_4
REMARK    4  A    between atoms: C_4  and  C_5
REMARK    5  A    between atoms: N_9  and  C_10
REMARK    6  A    between atoms: N_19  and  C_20
REMARK    7  A    between atoms: N_19  and  C_22
REMARK    8  A    between atoms: C_20  and  C_21
REMARK    9  A    between atoms: C_22  and  C_23
REMARK   10  A    between atoms: N_26  and  C_27
REMARK                            x       y       z     vdW  Elec       q    Type
REMARK                         _______ _______ _______ _____ _____    ______ ____
ROOT
ATOM      1  N   UNL     1      -2.014  16.219  23.103  0.00  0.00    +0.000 N 
ATOM      2  C   UNL     1      -1.973  15.384  21.998  0.00  0.00    +0.000 A 
ATOM      3  N   UNL     1      -0.884  15.464  21.237  0.00  0.00    +0.000 NA
ATOM      4  C   UNL     1      -0.681  14.554  20.262  0.00  0.00    +0.000 A 
ATOM      5  N   UNL     1       0.538  14.655  19.527  0.00  0.00    +0.000 N 
ATOM      6  C   UNL     1      -1.623  13.579  19.921  0.00  0.00    +0.000 A 
ATOM      7  N   UNL     1      -1.382  12.620  18.975  0.00  0.00    +0.000 NA
ATOM      8  C   UNL     1      -2.369  11.776  18.655  0.00  0.00    +0.000 A 
ATOM      9  N   UNL     1      -2.149  10.756  17.752  0.00  0.00    +0.000 N 
ATOM     10  N   UNL     1      -3.566  11.871  19.211  0.00  0.00    +0.000 NA
ATOM     11  C   UNL     1      -3.753  12.752  20.215  0.00  0.00    +0.000 A 
ATOM     12  N   UNL     1      -5.010  12.541  20.753  0.00  0.00    +0.000 N 
ATOM     13  C   UNL     1      -2.797  13.665  20.664  0.00  0.00    +0.000 A 
ATOM     14  N   UNL     1      -2.956  14.523  21.724  0.00  0.00    +0.000 NA
ATOM     15  H   UNL     1       0.814  13.719  19.234  0.00  0.00    +0.000 HD
ATOM     16  H   UNL     1      -5.415  11.844  20.133  0.00  0.00    +0.000 HD
ENDROOT
BRANCH   5  17
ATOM     17  C   UNL     1       1.604  15.437  20.183  0.00  0.00    +0.000 C 
ATOM     18  C   UNL     1       2.927  14.661  20.273  0.00  0.00    +0.000 C 
ATOM     19  C   UNL     1       3.571  14.440  18.910  0.00  0.00    +0.000 C 
ATOM     20  C   UNL     1       3.799  15.751  18.169  0.00  0.00    +0.000 C 
ATOM     21  C   UNL     1       2.552  16.629  18.105  0.00  0.00    +0.000 C 
ATOM     22  C   UNL     1       1.842  16.771  19.454  0.00  0.00    +0.000 C 
ENDBRANCH   5  17
BRANCH  12  23
ATOM     23  C   UNL     1      -5.952  13.551  21.211  0.00  0.00    +0.000 C 
ATOM     24  C   UNL     1      -7.417  13.212  20.915  0.00  0.00    +0.000 C 
ATOM     25  C   UNL     1      -7.890  11.944  21.627  0.00  0.00    +0.000 C 
ATOM     26  C   UNL     1      -7.656  12.010  23.135  0.00  0.00    +0.000 C 
ATOM     27  C   UNL     1      -6.226  12.406  23.492  0.00  0.00    +0.000 C 
ATOM     28  C   UNL     1      -5.772  13.669  22.743  0.00  0.00    +0.000 C 
ENDBRANCH  12  23
BRANCH   1  30
ATOM     29  C   UNL     1      -2.560  18.621  23.422  0.00  0.00    +0.000 C 
ATOM     30  C   UNL     1      -1.577  17.597  22.863  0.00  0.00    +0.000 C 
ENDBRANCH   1  30
BRANCH   1  31
ATOM     31  C   UNL     1      -2.961  15.989  24.187  0.00  0.00    +0.000 C 
ATOM     32  C   UNL     1      -2.352  15.201  25.341  0.00  0.00    +0.000 C 
ENDBRANCH   1  31
BRANCH   9  33
ATOM     33  C   UNL     1      -3.243  10.246  16.931  0.00  0.00    +0.000 C 
ATOM     34  C   UNL     1      -3.399  10.960  15.595  0.00  0.00    +0.000 C 
ENDBRANCH   9  33
BRANCH   9  35
ATOM     35  C   UNL     1      -0.860  10.091  17.745  0.00  0.00    +0.000 C 
ATOM     36  C   UNL     1      -0.397   9.780  19.156  0.00  0.00    +0.000 C 
ENDBRANCH   9  35
TORSDOF 6
ENDMDL
