MODEL 1
REMARK VINA RESULT:      -7.3      0.000      0.000
REMARK  Name = 
REMARK  6 active torsions:
REMARK  status: ('A' for Active; 'I' for Inactive)
REMARK    1  A    between atoms: C_1  and  O_2
REMARK    2  A    between atoms: O_2  and  C_3
REMARK    3  A    between atoms: C_7  and  S_8
REMARK    4  A    between atoms: S_8  and  N_11
REMARK    5  A    between atoms: C_15  and  C_16
REMARK    6  A    between atoms: C_15  and  C_17
REMARK                            x       y       z     vdW  Elec       q    Type
REMARK                         _______ _______ _______ _____ _____    ______ ____
ROOT
ATOM      1  N   UNL     1       4.950   6.705  16.963  0.00  0.00    +0.000 NA
ATOM      2  C   UNL     1       6.218   7.272  17.480  0.00  0.00    +0.000 C 
ATOM      3  C   UNL     1       7.313   6.207  17.593  0.00  0.00    +0.000 C 
ATOM      4  O   UNL     1       7.486   5.323  16.484  0.00  0.00    +0.000 OA
ATOM      5  C   UNL     1       6.329   4.963  15.700  0.00  0.00    +0.000 C 
ATOM      6  C   UNL     1       5.759   3.577  16.052  0.00  0.00    +0.000 C 
ATOM      7  C   UNL     1       5.241   6.058  15.624  0.00  0.00    +0.000 C 
ENDROOT
BRANCH   5   8
ATOM      8  C   UNL     1       6.969   4.758  14.301  0.00  0.00    +0.000 C 
ATOM      9  N   UNL     1       6.455   3.703  13.583  0.00  0.00    +0.000 N 
ATOM     10  O   UNL     1       7.837   5.480  13.818  0.00  0.00    +0.000 OA
ATOM     11  H   UNL     1       5.946   2.977  14.075  0.00  0.00    +0.000 HD
ATOM     12  H   UNL     1       6.872   3.478  12.689  0.00  0.00    +0.000 HD
ENDBRANCH   5   8
BRANCH   1  13
ATOM     13  S   UNL     1       3.998   5.794  18.052  0.00  0.00    +0.000 S 
ATOM     14  O   UNL     1       4.841   5.414  19.164  0.00  0.00    +0.000 OA
ATOM     15  O   UNL     1       3.298   4.793  17.277  0.00  0.00    +0.000 OA
BRANCH  13  20
ATOM     16  C   UNL     1       1.709   9.086  18.597  0.00  0.00    +0.000 A 
ATOM     17  C   UNL     1       1.260   8.905  19.909  0.00  0.00    +0.000 A 
ATOM     18  C   UNL     1       1.562   7.742  20.616  0.00  0.00    +0.000 A 
ATOM     19  C   UNL     1       2.329   6.739  20.019  0.00  0.00    +0.000 A 
ATOM     20  C   UNL     1       2.774   6.910  18.704  0.00  0.00    +0.000 A 
ATOM     21  C   UNL     1       2.465   8.081  17.991  0.00  0.00    +0.000 A 
BRANCH  16  23
ATOM     22  C   UNL     1       1.063  11.356  18.941  0.00  0.00    +0.000 C 
ATOM     23  O   UNL     1       1.375  10.293  18.048  0.00  0.00    +0.000 OA
ENDBRANCH  16  23
ENDBRANCH  13  20
ENDBRANCH   1  13
TORSDOF 4
ENDMDL
MODEL 2
REMARK VINA RESULT:      -7.0      0.977      1.172
REMARK  Name = 
REMARK  6 active torsions:
REMARK  status: ('A' for Active; 'I' for Inactive)
REMARK    1  A    between atoms: C_1  and  O_2
REMARK    2  A    between atoms: O_2  and  C_3
REMARK    3  A    between atoms: C_7  and  S_8
REMARK    4  A    between atoms: S_8  and  N_11
REMARK    5  A    between atoms: C_15  and  C_16
REMARK    6  A    between atoms: C_15  and  C_17
REMARK                            x       y       z     vdW  Elec       q    Type
REMARK                         _______ _______ _______ _____ _____    ______ ____
ROOT
ATOM      1  N   UNL     1       5.073   5.996  17.072  0.00  0.00    +0.000 NA
ATOM      2  C   UNL     1       6.326   6.411  17.744  0.00  0.00    +0.000 C 
ATOM      3  C   UNL     1       7.433   5.364  17.581  0.00  0.00    +0.000 C 
ATOM      4  O   UNL     1       7.630   4.815  16.276  0.00  0.00    +0.000 OA
ATOM      5  C   UNL     1       6.488   4.673  15.406  0.00  0.00    +0.000 C 
ATOM      6  C   UNL     1       5.929   3.239  15.359  0.00  0.00    +0.000 C 
ATOM      7  C   UNL     1       5.388   5.740  15.613  0.00  0.00    +0.000 C 
ENDROOT
BRANCH   5   8
ATOM      8  C   UNL     1       7.149   4.860  14.014  0.00  0.00    +0.000 C 
ATOM      9  N   UNL     1       6.623   4.072  13.018  0.00  0.00    +0.000 N 
ATOM     10  O   UNL     1       8.043   5.665  13.769  0.00  0.00    +0.000 OA
ATOM     11  H   UNL     1       6.088   3.249  13.275  0.00  0.00    +0.000 HD
ATOM     12  H   UNL     1       7.052   4.100  12.101  0.00  0.00    +0.000 HD
ENDBRANCH   5   8
BRANCH   1  13
ATOM     13  S   UNL     1       4.117   4.817  17.858  0.00  0.00    +0.000 S 
ATOM     14  O   UNL     1       4.966   4.108  18.789  0.00  0.00    +0.000 OA
ATOM     15  O   UNL     1       3.385   4.106  16.833  0.00  0.00    +0.000 OA
BRANCH  13  20
ATOM     16  C   UNL     1       1.941   7.838  19.442  0.00  0.00    +0.000 A 
ATOM     17  C   UNL     1       1.470   7.259  20.624  0.00  0.00    +0.000 A 
ATOM     18  C   UNL     1       1.721   5.918  20.915  0.00  0.00    +0.000 A 
ATOM     19  C   UNL     1       2.458   5.135  20.025  0.00  0.00    +0.000 A 
ATOM     20  C   UNL     1       2.925   5.707  18.837  0.00  0.00    +0.000 A 
ATOM     21  C   UNL     1       2.667   7.057  18.543  0.00  0.00    +0.000 A 
BRANCH  16  23
ATOM     22  C   UNL     1       1.282   9.641  18.027  0.00  0.00    +0.000 C 
ATOM     23  O   UNL     1       1.657   9.170  19.316  0.00  0.00    +0.000 OA
ENDBRANCH  16  23
ENDBRANCH  13  20
ENDBRANCH   1  13
TORSDOF 4
ENDMDL
MODEL 3
REMARK VINA RESULT:      -7.0      1.108      1.663
REMARK  Name = 
REMARK  6 active torsions:
REMARK  status: ('A' for Active; 'I' for Inactive)
REMARK    1  A    between atoms: C_1  and  O_2
REMARK    2  A    between atoms: O_2  and  C_3
REMARK    3  A    between atoms: C_7  and  S_8
REMARK    4  A    between atoms: S_8  and  N_11
REMARK    5  A    between atoms: C_15  and  C_16
REMARK    6  A    between atoms: C_15  and  C_17
REMARK                            x       y       z     vdW  Elec       q    Type
REMARK                         _______ _______ _______ _____ _____    ______ ____
ROOT
ATOM      1  N   UNL     1       5.124   6.865  16.957  0.00  0.00    +0.000 NA
ATOM      2  C   UNL     1       6.467   7.209  17.480  0.00  0.00    +0.000 C 
ATOM      3  C   UNL     1       7.367   5.974  17.591  0.00  0.00    +0.000 C 
ATOM      4  O   UNL     1       7.391   5.078  16.479  0.00  0.00    +0.000 OA
ATOM      5  C   UNL     1       6.193   4.921  15.691  0.00  0.00    +0.000 C 
ATOM      6  C   UNL     1       5.397   3.649  16.036  0.00  0.00    +0.000 C 
ATOM      7  C   UNL     1       5.305   6.183  15.617  0.00  0.00    +0.000 C 
ENDROOT
BRANCH   5   8
ATOM      8  C   UNL     1       6.794   4.615  14.293  0.00  0.00    +0.000 C 
ATOM      9  N   UNL     1       6.352   3.445  13.721  0.00  0.00    +0.000 N 
ATOM     10  O   UNL     1       7.571   5.351  13.692  0.00  0.00    +0.000 OA
ATOM     11  H   UNL     1       5.933   2.737  14.315  0.00  0.00    +0.000 HD
ATOM     12  H   UNL     1       6.753   3.156  12.837  0.00  0.00    +0.000 HD
ENDBRANCH   5   8
BRANCH   1  13
ATOM     13  S   UNL     1       4.028   6.125  18.041  0.00  0.00    +0.000 S 
ATOM     14  O   UNL     1       4.787   5.635  19.170  0.00  0.00    +0.000 OA
ATOM     15  O   UNL     1       3.195   5.232  17.265  0.00  0.00    +0.000 OA
BRANCH  13  20
ATOM     16  C   UNL     1       1.371   8.150  20.323  0.00  0.00    +0.000 A 
ATOM     17  C   UNL     1       0.964   9.164  19.452  0.00  0.00    +0.000 A 
ATOM     18  C   UNL     1       1.554   9.311  18.197  0.00  0.00    +0.000 A 
ATOM     19  C   UNL     1       2.562   8.434  17.791  0.00  0.00    +0.000 A 
ATOM     20  C   UNL     1       2.980   7.423  18.661  0.00  0.00    +0.000 A 
ATOM     21  C   UNL     1       2.388   7.279  19.927  0.00  0.00    +0.000 A 
BRANCH  16  23
ATOM     22  C   UNL     1       0.303   9.338  22.093  0.00  0.00    +0.000 C 
ATOM     23  O   UNL     1       0.672   8.101  21.498  0.00  0.00    +0.000 OA
ENDBRANCH  16  23
ENDBRANCH  13  20
ENDBRANCH   1  13
TORSDOF 4
ENDMDL
MODEL 4
REMARK VINA RESULT:      -6.9      3.292      4.508
REMARK  Name = 
REMARK  6 active torsions:
REMARK  status: ('A' for Active; 'I' for Inactive)
REMARK    1  A    between atoms: C_1  and  O_2
REMARK    2  A    between atoms: O_2  and  C_3
REMARK    3  A    between atoms: C_7  and  S_8
REMARK    4  A    between atoms: S_8  and  N_11
REMARK    5  A    between atoms: C_15  and  C_16
REMARK    6  A    between atoms: C_15  and  C_17
REMARK                            x       y       z     vdW  Elec       q    Type
REMARK                         _______ _______ _______ _____ _____    ______ ____
ROOT
ATOM      1  N   UNL     1       3.028   5.347  19.836  0.00  0.00    +0.000 NA
ATOM      2  C   UNL     1       1.843   4.815  20.549  0.00  0.00    +0.000 C 
ATOM      3  C   UNL     1       1.300   3.547  19.882  0.00  0.00    +0.000 C 
ATOM      4  O   UNL     1       2.247   2.546  19.506  0.00  0.00    +0.000 OA
ATOM      5  C   UNL     1       3.568   2.961  19.100  0.00  0.00    +0.000 C 
ATOM      6  C   UNL     1       3.760   2.979  17.572  0.00  0.00    +0.000 C 
ATOM      7  C   UNL     1       4.073   4.251  19.784  0.00  0.00    +0.000 C 
ENDROOT
BRANCH   5   8
ATOM      8  C   UNL     1       4.418   1.749  19.567  0.00  0.00    +0.000 C 
ATOM      9  N   UNL     1       4.359   0.653  18.739  0.00  0.00    +0.000 N 
ATOM     10  O   UNL     1       5.134   1.742  20.565  0.00  0.00    +0.000 OA
ATOM     11  H   UNL     1       3.587   0.573  18.085  0.00  0.00    +0.000 HD
ATOM     12  H   UNL     1       4.841  -0.192  19.020  0.00  0.00    +0.000 HD
ENDBRANCH   5   8
BRANCH   1  13
ATOM     13  S   UNL     1       2.748   6.195  18.379  0.00  0.00    +0.000 S 
ATOM     14  O   UNL     1       1.640   5.558  17.702  0.00  0.00    +0.000 OA
ATOM     15  O   UNL     1       4.027   6.352  17.721  0.00  0.00    +0.000 OA
BRANCH  13  20
ATOM     16  C   UNL     1       1.138   9.238  20.505  0.00  0.00    +0.000 A 
ATOM     17  C   UNL     1       0.852  10.166  19.500  0.00  0.00    +0.000 A 
ATOM     18  C   UNL     1       1.228   9.930  18.178  0.00  0.00    +0.000 A 
ATOM     19  C   UNL     1       1.893   8.750  17.840  0.00  0.00    +0.000 A 
ATOM     20  C   UNL     1       2.189   7.821  18.842  0.00  0.00    +0.000 A 
ATOM     21  C   UNL     1       1.814   8.062  20.175  0.00  0.00    +0.000 A 
BRANCH  16  23
ATOM     22  C   UNL     1      -0.475   8.892  22.228  0.00  0.00    +0.000 C 
ATOM     23  O   UNL     1       0.669   9.584  21.742  0.00  0.00    +0.000 OA
ENDBRANCH  16  23
ENDBRANCH  13  20
ENDBRANCH   1  13
TORSDOF 4
ENDMDL
MODEL 5
REMARK VINA RESULT:      -6.7      3.289      5.787
REMARK  Name = 
REMARK  6 active torsions:
REMARK  status: ('A' for Active; 'I' for Inactive)
REMARK    1  A    between atoms: C_1  and  O_2
REMARK    2  A    between atoms: O_2  and  C_3
REMARK    3  A    between atoms: C_7  and  S_8
REMARK    4  A    between atoms: S_8  and  N_11
REMARK    5  A    between atoms: C_15  and  C_16
REMARK    6  A    between atoms: C_15  and  C_17
REMARK                            x       y       z     vdW  Elec       q    Type
REMARK                         _______ _______ _______ _____ _____    ______ ____
ROOT
ATOM      1  N   UNL     1       3.390   5.138  19.758  0.00  0.00    +0.000 NA
ATOM      2  C   UNL     1       2.257   4.868  20.673  0.00  0.00    +0.000 C 
ATOM      3  C   UNL     1       1.622   3.499  20.403  0.00  0.00    +0.000 C 
ATOM      4  O   UNL     1       2.504   2.389  20.231  0.00  0.00    +0.000 OA
ATOM      5  C   UNL     1       3.796   2.618  19.631  0.00  0.00    +0.000 C 
ATOM      6  C   UNL     1       3.855   2.233  18.141  0.00  0.00    +0.000 C 
ATOM      7  C   UNL     1       4.395   4.015  19.914  0.00  0.00    +0.000 C 
ENDROOT
BRANCH   5   8
ATOM      8  C   UNL     1       4.648   1.527  20.331  0.00  0.00    +0.000 C 
ATOM      9  N   UNL     1       4.909   0.419  19.560  0.00  0.00    +0.000 N 
ATOM     10  O   UNL     1       5.108   1.622  21.466  0.00  0.00    +0.000 OA
ATOM     11  H   UNL     1       4.326   0.236  18.750  0.00  0.00    +0.000 HD
ATOM     12  H   UNL     1       5.408  -0.356  19.979  0.00  0.00    +0.000 HD
ENDBRANCH   5   8
BRANCH   1  13
ATOM     13  S   UNL     1       3.009   5.595  18.155  0.00  0.00    +0.000 S 
ATOM     14  O   UNL     1       2.722   7.013  18.156  0.00  0.00    +0.000 OA
ATOM     15  O   UNL     1       2.041   4.643  17.656  0.00  0.00    +0.000 OA
BRANCH  13  20
ATOM     16  C   UNL     1       6.690   6.225  16.597  0.00  0.00    +0.000 A 
ATOM     17  C   UNL     1       6.648   5.437  15.444  0.00  0.00    +0.000 A 
ATOM     18  C   UNL     1       5.546   4.628  15.167  0.00  0.00    +0.000 A 
ATOM     19  C   UNL     1       4.460   4.602  16.044  0.00  0.00    +0.000 A 
ATOM     20  C   UNL     1       4.499   5.382  17.204  0.00  0.00    +0.000 A 
ATOM     21  C   UNL     1       5.612   6.193  17.484  0.00  0.00    +0.000 A 
BRANCH  16  23
ATOM     22  C   UNL     1       7.758   8.106  17.602  0.00  0.00    +0.000 C 
ATOM     23  O   UNL     1       7.812   6.999  16.711  0.00  0.00    +0.000 OA
ENDBRANCH  16  23
ENDBRANCH  13  20
ENDBRANCH   1  13
TORSDOF 4
ENDMDL
MODEL 6
REMARK VINA RESULT:      -6.7      3.231      6.884
REMARK  Name = 
REMARK  6 active torsions:
REMARK  status: ('A' for Active; 'I' for Inactive)
REMARK    1  A    between atoms: C_1  and  O_2
REMARK    2  A    between atoms: O_2  and  C_3
REMARK    3  A    between atoms: C_7  and  S_8
REMARK    4  A    between atoms: S_8  and  N_11
REMARK    5  A    between atoms: C_15  and  C_16
REMARK    6  A    between atoms: C_15  and  C_17
REMARK                            x       y       z     vdW  Elec       q    Type
REMARK                         _______ _______ _______ _____ _____    ______ ____
ROOT
ATOM      1  N   UNL     1       3.460   3.771  17.905  0.00  0.00    +0.000 NA
ATOM      2  C   UNL     1       4.250   2.560  18.231  0.00  0.00    +0.000 C 
ATOM      3  C   UNL     1       4.542   2.458  19.732  0.00  0.00    +0.000 C 
ATOM      4  O   UNL     1       3.457   2.700  20.629  0.00  0.00    +0.000 OA
ATOM      5  C   UNL     1       2.437   3.645  20.244  0.00  0.00    +0.000 C 
ATOM      6  C   UNL     1       2.608   5.028  20.899  0.00  0.00    +0.000 C 
ATOM      7  C   UNL     1       2.184   3.729  18.722  0.00  0.00    +0.000 C 
ENDROOT
BRANCH   5   8
ATOM      8  C   UNL     1       1.193   3.048  20.954  0.00  0.00    +0.000 C 
ATOM      9  N   UNL     1       0.127   2.790  20.125  0.00  0.00    +0.000 N 
ATOM     10  O   UNL     1       1.138   2.775  22.150  0.00  0.00    +0.000 OA
ATOM     11  H   UNL     1       0.086   3.248  19.221  0.00  0.00    +0.000 HD
ATOM     12  H   UNL     1      -0.736   2.458  20.536  0.00  0.00    +0.000 HD
ENDBRANCH   5   8
BRANCH   1  13
ATOM     13  S   UNL     1       4.291   5.264  17.877  0.00  0.00    +0.000 S 
ATOM     14  O   UNL     1       5.175   5.299  19.022  0.00  0.00    +0.000 OA
ATOM     15  O   UNL     1       3.304   6.301  17.671  0.00  0.00    +0.000 OA
BRANCH  13  20
ATOM     16  C   UNL     1       5.763   4.327  14.227  0.00  0.00    +0.000 A 
ATOM     17  C   UNL     1       7.098   4.722  14.349  0.00  0.00    +0.000 A 
ATOM     18  C   UNL     1       7.553   5.365  15.500  0.00  0.00    +0.000 A 
ATOM     19  C   UNL     1       6.673   5.617  16.555  0.00  0.00    +0.000 A 
ATOM     20  C   UNL     1       5.334   5.231  16.435  0.00  0.00    +0.000 A 
ATOM     21  C   UNL     1       4.876   4.588  15.273  0.00  0.00    +0.000 A 
BRANCH  16  23
ATOM     22  C   UNL     1       6.527   3.512  12.119  0.00  0.00    +0.000 C 
ATOM     23  O   UNL     1       5.475   3.668  13.063  0.00  0.00    +0.000 OA
ENDBRANCH  16  23
ENDBRANCH  13  20
ENDBRANCH   1  13
TORSDOF 4
ENDMDL
MODEL 7
REMARK VINA RESULT:      -6.6      2.986      6.088
REMARK  Name = 
REMARK  6 active torsions:
REMARK  status: ('A' for Active; 'I' for Inactive)
REMARK    1  A    between atoms: C_1  and  O_2
REMARK    2  A    between atoms: O_2  and  C_3
REMARK    3  A    between atoms: C_7  and  S_8
REMARK    4  A    between atoms: S_8  and  N_11
REMARK    5  A    between atoms: C_15  and  C_16
REMARK    6  A    between atoms: C_15  and  C_17
REMARK                            x       y       z     vdW  Elec       q    Type
REMARK                         _______ _______ _______ _____ _____    ______ ____
ROOT
ATOM      1  N   UNL     1       3.059   5.733  19.693  0.00  0.00    +0.000 NA
ATOM      2  C   UNL     1       1.887   5.607  20.592  0.00  0.00    +0.000 C 
ATOM      3  C   UNL     1       1.182   4.258  20.420  0.00  0.00    +0.000 C 
ATOM      4  O   UNL     1       2.002   3.090  20.371  0.00  0.00    +0.000 OA
ATOM      5  C   UNL     1       3.321   3.193  19.796  0.00  0.00    +0.000 C 
ATOM      6  C   UNL     1       3.398   2.676  18.347  0.00  0.00    +0.000 C 
ATOM      7  C   UNL     1       3.992   4.573  19.977  0.00  0.00    +0.000 C 
ENDROOT
BRANCH   5   8
ATOM      8  C   UNL     1       4.088   2.121  20.614  0.00  0.00    +0.000 C 
ATOM      9  N   UNL     1       5.128   1.522  19.943  0.00  0.00    +0.000 N 
ATOM     10  O   UNL     1       3.847   1.831  21.782  0.00  0.00    +0.000 OA
ATOM     11  H   UNL     1       5.152   1.572  18.930  0.00  0.00    +0.000 HD
ATOM     12  H   UNL     1       5.630   0.770  20.400  0.00  0.00    +0.000 HD
ENDBRANCH   5   8
BRANCH   1  13
ATOM     13  S   UNL     1       2.750   6.069  18.046  0.00  0.00    +0.000 S 
ATOM     14  O   UNL     1       2.286   7.436  17.953  0.00  0.00    +0.000 OA
ATOM     15  O   UNL     1       1.951   4.979  17.529  0.00  0.00    +0.000 OA
BRANCH  13  20
ATOM     16  C   UNL     1       5.904   4.740  15.888  0.00  0.00    +0.000 A 
ATOM     17  C   UNL     1       6.916   5.612  16.299  0.00  0.00    +0.000 A 
ATOM     18  C   UNL     1       6.642   6.675  17.160  0.00  0.00    +0.000 A 
ATOM     19  C   UNL     1       5.343   6.876  17.630  0.00  0.00    +0.000 A 
ATOM     20  C   UNL     1       4.324   6.012  17.217  0.00  0.00    +0.000 A 
ATOM     21  C   UNL     1       4.601   4.945  16.345  0.00  0.00    +0.000 A 
BRANCH  16  23
ATOM     22  C   UNL     1       6.124   3.861  13.682  0.00  0.00    +0.000 C 
ATOM     23  O   UNL     1       6.331   3.721  15.082  0.00  0.00    +0.000 OA
ENDBRANCH  16  23
ENDBRANCH  13  20
ENDBRANCH   1  13
TORSDOF 4
ENDMDL
MODEL 8
REMARK VINA RESULT:      -6.4      1.924      2.611
REMARK  Name = 
REMARK  6 active torsions:
REMARK  status: ('A' for Active; 'I' for Inactive)
REMARK    1  A    between atoms: C_1  and  O_2
REMARK    2  A    between atoms: O_2  and  C_3
REMARK    3  A    between atoms: C_7  and  S_8
REMARK    4  A    between atoms: S_8  and  N_11
REMARK    5  A    between atoms: C_15  and  C_16
REMARK    6  A    between atoms: C_15  and  C_17
REMARK                            x       y       z     vdW  Elec       q    Type
REMARK                         _______ _______ _______ _____ _____    ______ ____
ROOT
ATOM      1  N   UNL     1       4.098   5.992  19.053  0.00  0.00    +0.000 NA
ATOM      2  C   UNL     1       3.842   4.637  19.597  0.00  0.00    +0.000 C 
ATOM      3  C   UNL     1       3.994   3.555  18.522  0.00  0.00    +0.000 C 
ATOM      4  O   UNL     1       5.140   3.631  17.673  0.00  0.00    +0.000 OA
ATOM      5  C   UNL     1       5.674   4.930  17.344  0.00  0.00    +0.000 C 
ATOM      6  C   UNL     1       5.251   5.430  15.951  0.00  0.00    +0.000 C 
ATOM      7  C   UNL     1       5.487   5.996  18.447  0.00  0.00    +0.000 C 
ENDROOT
BRANCH   5   8
ATOM      8  C   UNL     1       7.181   4.600  17.179  0.00  0.00    +0.000 C 
ATOM      9  N   UNL     1       7.852   4.373  18.357  0.00  0.00    +0.000 N 
ATOM     10  O   UNL     1       7.758   4.498  16.100  0.00  0.00    +0.000 OA
ATOM     11  H   UNL     1       7.447   4.709  19.225  0.00  0.00    +0.000 HD
ATOM     12  H   UNL     1       8.852   4.214  18.322  0.00  0.00    +0.000 HD
ENDBRANCH   5   8
BRANCH   1  13
ATOM     13  S   UNL     1       2.861   6.705  18.114  0.00  0.00    +0.000 S 
ATOM     14  O   UNL     1       1.977   5.650  17.673  0.00  0.00    +0.000 OA
ATOM     15  O   UNL     1       3.500   7.585  17.160  0.00  0.00    +0.000 OA
BRANCH  13  20
ATOM     16  C   UNL     1       0.983   9.909  19.720  0.00  0.00    +0.000 A 
ATOM     17  C   UNL     1       0.882   9.535  21.063  0.00  0.00    +0.000 A 
ATOM     18  C   UNL     1       1.291   8.271  21.488  0.00  0.00    +0.000 A 
ATOM     19  C   UNL     1       1.817   7.361  20.570  0.00  0.00    +0.000 A 
ATOM     20  C   UNL     1       1.914   7.727  19.224  0.00  0.00    +0.000 A 
ATOM     21  C   UNL     1       1.496   8.998  18.796  0.00  0.00    +0.000 A 
BRANCH  16  23
ATOM     22  C   UNL     1      -0.591  11.371  18.684  0.00  0.00    +0.000 C 
ATOM     23  O   UNL     1       0.586  11.192  19.461  0.00  0.00    +0.000 OA
ENDBRANCH  16  23
ENDBRANCH  13  20
ENDBRANCH   1  13
TORSDOF 4
ENDMDL
MODEL 9
REMARK VINA RESULT:      -6.4      2.272      3.271
REMARK  Name = 
REMARK  6 active torsions:
REMARK  status: ('A' for Active; 'I' for Inactive)
REMARK    1  A    between atoms: C_1  and  O_2
REMARK    2  A    between atoms: O_2  and  C_3
REMARK    3  A    between atoms: C_7  and  S_8
REMARK    4  A    between atoms: S_8  and  N_11
REMARK    5  A    between atoms: C_15  and  C_16
REMARK    6  A    between atoms: C_15  and  C_17
REMARK                            x       y       z     vdW  Elec       q    Type
REMARK                         _______ _______ _______ _____ _____    ______ ____
ROOT
ATOM      1  N   UNL     1       4.035   5.966  19.254  0.00  0.00    +0.000 NA
ATOM      2  C   UNL     1       3.727   4.596  19.727  0.00  0.00    +0.000 C 
ATOM      3  C   UNL     1       4.068   3.539  18.671  0.00  0.00    +0.000 C 
ATOM      4  O   UNL     1       5.329   3.654  18.011  0.00  0.00    +0.000 OA
ATOM      5  C   UNL     1       5.879   4.970  17.792  0.00  0.00    +0.000 C 
ATOM      6  C   UNL     1       5.666   5.491  16.359  0.00  0.00    +0.000 C 
ATOM      7  C   UNL     1       5.500   6.010  18.871  0.00  0.00    +0.000 C 
ENDROOT
BRANCH   5   8
ATOM      8  C   UNL     1       7.401   4.673  17.857  0.00  0.00    +0.000 C 
ATOM      9  N   UNL     1       7.989   4.947  19.070  0.00  0.00    +0.000 N 
ATOM     10  O   UNL     1       8.057   4.192  16.938  0.00  0.00    +0.000 OA
ATOM     11  H   UNL     1       7.515   5.570  19.715  0.00  0.00    +0.000 HD
ATOM     12  H   UNL     1       8.991   4.833  19.158  0.00  0.00    +0.000 HD
ENDBRANCH   5   8
BRANCH   1  13
ATOM     13  S   UNL     1       2.942   6.675  18.147  0.00  0.00    +0.000 S 
ATOM     14  O   UNL     1       1.942   5.684  17.818  0.00  0.00    +0.000 OA
ATOM     15  O   UNL     1       3.730   7.305  17.110  0.00  0.00    +0.000 OA
BRANCH  13  20
ATOM     16  C   UNL     1       0.841   8.639  20.993  0.00  0.00    +0.000 A 
ATOM     17  C   UNL     1       0.363   9.743  20.281  0.00  0.00    +0.000 A 
ATOM     18  C   UNL     1       0.744   9.963  18.957  0.00  0.00    +0.000 A 
ATOM     19  C   UNL     1       1.611   9.072  18.322  0.00  0.00    +0.000 A 
ATOM     20  C   UNL     1       2.099   7.970  19.031  0.00  0.00    +0.000 A 
ATOM     21  C   UNL     1       1.718   7.752  20.366  0.00  0.00    +0.000 A 
BRANCH  16  23
ATOM     22  C   UNL     1      -0.030   9.730  22.927  0.00  0.00    +0.000 C 
ATOM     23  O   UNL     1       0.345   8.529  22.262  0.00  0.00    +0.000 OA
ENDBRANCH  16  23
ENDBRANCH  13  20
ENDBRANCH   1  13
TORSDOF 4
ENDMDL
