MODEL 1
REMARK VINA RESULT:      -6.9      0.000      0.000
REMARK  Name = 
REMARK  7 active torsions:
REMARK  status: ('A' for Active; 'I' for Inactive)
REMARK    1  A    between atoms: C_2  and  C_3
REMARK    2  A    between atoms: C_3  and  C_4
REMARK    3  A    between atoms: C_4  and  N_5
REMARK    4  A    between atoms: N_8  and  C_9
REMARK    5  A    between atoms: C_9  and  C_10
REMARK    6  A    between atoms: C_10  and  O_11
REMARK    7  A    between atoms: C_25  and  C_26
REMARK                            x       y       z     vdW  Elec       q    Type
REMARK                         _______ _______ _______ _____ _____    ______ ____
ROOT
ATOM      1  O   UNL     1       4.576   7.747  17.104  0.00  0.00    +0.000 OA
ATOM      2  C   UNL     1       4.048   6.853  17.764  0.00  0.00    +0.000 C 
ATOM      3  N   UNL     1       2.800   6.941  18.472  0.00  0.00    +0.000 N 
ATOM      4  C   UNL     1       2.159   8.213  18.668  0.00  0.00    +0.000 A 
ATOM      5  C   UNL     1       2.095   9.140  17.616  0.00  0.00    +0.000 A 
ATOM      6  C   UNL     1       1.372  10.327  17.757  0.00  0.00    +0.000 A 
ATOM      7  C   UNL     1       0.711  10.616  18.947  0.00  0.00    +0.000 A 
ATOM      8  C   UNL     1       0.794   9.726  20.014  0.00  0.00    +0.000 A 
ATOM      9  C   UNL     1       1.516   8.533  19.881  0.00  0.00    +0.000 A 
ATOM     10  S   UNL     1       1.665   7.487  21.315  0.00  0.00    +0.000 S 
ATOM     11  C   UNL     1       1.723   5.928  20.480  0.00  0.00    +0.000 A 
ATOM     12  C   UNL     1       1.293   4.788  21.179  0.00  0.00    +0.000 A 
ATOM     13  C   UNL     1       1.272   3.537  20.564  0.00  0.00    +0.000 A 
ATOM     14  C   UNL     1       1.607   3.417  19.214  0.00  0.00    +0.000 A 
ATOM     15  C   UNL     1       2.003   4.574  18.518  0.00  0.00    +0.000 A 
ATOM     16  C   UNL     1       2.177   5.821  19.159  0.00  0.00    +0.000 A 
ENDROOT
BRANCH  14  17
ATOM     17  C   UNL     1       1.559   2.071  18.524  0.00  0.00    +0.000 C 
ATOM     18  F   UNL     1       0.297   1.612  18.315  0.00  0.00    +0.000 F 
ATOM     19  F   UNL     1       2.170   2.080  17.309  0.00  0.00    +0.000 F 
ATOM     20  F   UNL     1       2.184   1.092  19.232  0.00  0.00    +0.000 F 
ENDBRANCH  14  17
BRANCH   2  21
ATOM     21  C   UNL     1       4.739   5.522  17.949  0.00  0.00    +0.000 C 
BRANCH  21  22
ATOM     22  C   UNL     1       6.239   5.250  17.893  0.00  0.00    +0.000 C 
BRANCH  22  23
ATOM     23  N   UNL     1       6.456   4.395  16.704  0.00  0.00    +0.000 NA
ATOM     24  C   UNL     1       5.255   3.953  15.983  0.00  0.00    +0.000 C 
ATOM     25  C   UNL     1       4.933   4.714  14.695  0.00  0.00    +0.000 C 
ATOM     26  N   UNL     1       6.029   4.648  13.720  0.00  0.00    +0.000 NA
ATOM     27  C   UNL     1       7.206   5.265  14.386  0.00  0.00    +0.000 C 
ATOM     28  C   UNL     1       7.568   4.730  15.808  0.00  0.00    +0.000 C 
BRANCH  26  29
ATOM     29  C   UNL     1       6.320   3.255  13.290  0.00  0.00    +0.000 C 
BRANCH  29  30
ATOM     30  C   UNL     1       5.750   2.891  11.901  0.00  0.00    +0.000 C 
BRANCH  30  31
ATOM     31  O   UNL     1       5.939   1.503  11.630  0.00  0.00    +0.000 OA
ATOM     32  H   UNL     1       5.482   1.038  12.357  0.00  0.00    +0.000 HD
ENDBRANCH  30  31
ENDBRANCH  29  30
ENDBRANCH  26  29
ENDBRANCH  22  23
ENDBRANCH  21  22
ENDBRANCH   2  21
TORSDOF 7
ENDMDL
MODEL 2
REMARK VINA RESULT:      -6.9      7.310     11.649
REMARK  Name = 
REMARK  7 active torsions:
REMARK  status: ('A' for Active; 'I' for Inactive)
REMARK    1  A    between atoms: C_2  and  C_3
REMARK    2  A    between atoms: C_3  and  C_4
REMARK    3  A    between atoms: C_4  and  N_5
REMARK    4  A    between atoms: N_8  and  C_9
REMARK    5  A    between atoms: C_9  and  C_10
REMARK    6  A    between atoms: C_10  and  O_11
REMARK    7  A    between atoms: C_25  and  C_26
REMARK                            x       y       z     vdW  Elec       q    Type
REMARK                         _______ _______ _______ _____ _____    ______ ____
ROOT
ATOM      1  O   UNL     1      -1.506  10.283  17.052  0.00  0.00    +0.000 OA
ATOM      2  C   UNL     1      -1.600  10.763  18.180  0.00  0.00    +0.000 C 
ATOM      3  N   UNL     1      -0.673  10.582  19.264  0.00  0.00    +0.000 N 
ATOM      4  C   UNL     1       0.363   9.587  19.181  0.00  0.00    +0.000 A 
ATOM      5  C   UNL     1       1.090   9.424  17.991  0.00  0.00    +0.000 A 
ATOM      6  C   UNL     1       2.175   8.547  17.936  0.00  0.00    +0.000 A 
ATOM      7  C   UNL     1       2.548   7.811  19.057  0.00  0.00    +0.000 A 
ATOM      8  C   UNL     1       1.816   7.931  20.234  0.00  0.00    +0.000 A 
ATOM      9  C   UNL     1       0.727   8.810  20.298  0.00  0.00    +0.000 A 
ATOM     10  S   UNL     1      -0.227   8.843  21.803  0.00  0.00    +0.000 S 
ATOM     11  C   UNL     1      -0.704  10.546  21.757  0.00  0.00    +0.000 A 
ATOM     12  C   UNL     1      -0.998  11.182  22.974  0.00  0.00    +0.000 A 
ATOM     13  C   UNL     1      -1.336  12.534  23.012  0.00  0.00    +0.000 A 
ATOM     14  C   UNL     1      -1.313  13.293  21.840  0.00  0.00    +0.000 A 
ATOM     15  C   UNL     1      -0.984  12.647  20.633  0.00  0.00    +0.000 A 
ATOM     16  C   UNL     1      -0.786  11.252  20.550  0.00  0.00    +0.000 A 
ENDROOT
BRANCH  14  17
ATOM     17  C   UNL     1      -1.648  14.768  21.869  0.00  0.00    +0.000 C 
ATOM     18  F   UNL     1      -2.239  15.168  23.025  0.00  0.00    +0.000 F 
ATOM     19  F   UNL     1      -0.555  15.560  21.702  0.00  0.00    +0.000 F 
ATOM     20  F   UNL     1      -2.509  15.132  20.881  0.00  0.00    +0.000 F 
ENDBRANCH  14  17
BRANCH   2  21
ATOM     21  C   UNL     1      -2.806  11.587  18.569  0.00  0.00    +0.000 C 
BRANCH  21  22
ATOM     22  C   UNL     1      -4.164  11.612  17.873  0.00  0.00    +0.000 C 
BRANCH  22  23
ATOM     23  N   UNL     1      -5.168  11.339  18.927  0.00  0.00    +0.000 NA
ATOM     24  C   UNL     1      -4.977  12.024  20.211  0.00  0.00    +0.000 C 
ATOM     25  C   UNL     1      -5.863  13.248  20.454  0.00  0.00    +0.000 C 
ATOM     26  N   UNL     1      -7.293  12.923  20.385  0.00  0.00    +0.000 NA
ATOM     27  C   UNL     1      -7.528  12.398  19.015  0.00  0.00    +0.000 C 
ATOM     28  C   UNL     1      -6.578  11.256  18.529  0.00  0.00    +0.000 C 
BRANCH  26  29
ATOM     29  C   UNL     1      -7.698  11.935  21.420  0.00  0.00    +0.000 C 
BRANCH  29  30
ATOM     30  C   UNL     1      -7.626  12.472  22.867  0.00  0.00    +0.000 C 
BRANCH  30  31
ATOM     31  O   UNL     1      -7.562  11.393  23.799  0.00  0.00    +0.000 OA
ATOM     32  H   UNL     1      -8.272  10.780  23.527  0.00  0.00    +0.000 HD
ENDBRANCH  30  31
ENDBRANCH  29  30
ENDBRANCH  26  29
ENDBRANCH  22  23
ENDBRANCH  21  22
ENDBRANCH   2  21
TORSDOF 7
ENDMDL
MODEL 3
REMARK VINA RESULT:      -6.9      7.427     11.804
REMARK  Name = 
REMARK  7 active torsions:
REMARK  status: ('A' for Active; 'I' for Inactive)
REMARK    1  A    between atoms: C_2  and  C_3
REMARK    2  A    between atoms: C_3  and  C_4
REMARK    3  A    between atoms: C_4  and  N_5
REMARK    4  A    between atoms: N_8  and  C_9
REMARK    5  A    between atoms: C_9  and  C_10
REMARK    6  A    between atoms: C_10  and  O_11
REMARK    7  A    between atoms: C_25  and  C_26
REMARK                            x       y       z     vdW  Elec       q    Type
REMARK                         _______ _______ _______ _____ _____    ______ ____
ROOT
ATOM      1  O   UNL     1      -1.961  10.041  17.161  0.00  0.00    +0.000 OA
ATOM      2  C   UNL     1      -2.001  10.645  18.231  0.00  0.00    +0.000 C 
ATOM      3  N   UNL     1      -0.990  10.636  19.253  0.00  0.00    +0.000 N 
ATOM      4  C   UNL     1       0.091   9.689  19.203  0.00  0.00    +0.000 A 
ATOM      5  C   UNL     1       0.739   9.422  17.988  0.00  0.00    +0.000 A 
ATOM      6  C   UNL     1       1.866   8.598  17.948  0.00  0.00    +0.000 A 
ATOM      7  C   UNL     1       2.358   8.016  19.113  0.00  0.00    +0.000 A 
ATOM      8  C   UNL     1       1.706   8.239  20.323  0.00  0.00    +0.000 A 
ATOM      9  C   UNL     1       0.576   9.066  20.371  0.00  0.00    +0.000 A 
ATOM     10  S   UNL     1      -0.268   9.230  21.931  0.00  0.00    +0.000 S 
ATOM     11  C   UNL     1      -0.842  10.891  21.729  0.00  0.00    +0.000 A 
ATOM     12  C   UNL     1      -1.083  11.651  22.886  0.00  0.00    +0.000 A 
ATOM     13  C   UNL     1      -1.494  12.981  22.796  0.00  0.00    +0.000 A 
ATOM     14  C   UNL     1      -1.596  13.597  21.547  0.00  0.00    +0.000 A 
ATOM     15  C   UNL     1      -1.318  12.831  20.399  0.00  0.00    +0.000 A 
ATOM     16  C   UNL     1      -1.049  11.446  20.460  0.00  0.00    +0.000 A 
ENDROOT
BRANCH  14  17
ATOM     17  C   UNL     1      -2.010  15.047  21.434  0.00  0.00    +0.000 C 
ATOM     18  F   UNL     1      -3.341  15.249  21.624  0.00  0.00    +0.000 F 
ATOM     19  F   UNL     1      -1.369  15.850  22.324  0.00  0.00    +0.000 F 
ATOM     20  F   UNL     1      -1.739  15.580  20.213  0.00  0.00    +0.000 F 
ENDBRANCH  14  17
BRANCH   2  21
ATOM     21  C   UNL     1      -3.221  11.450  18.615  0.00  0.00    +0.000 C 
BRANCH  21  22
ATOM     22  C   UNL     1      -4.461  11.702  17.763  0.00  0.00    +0.000 C 
BRANCH  22  23
ATOM     23  N   UNL     1      -5.459  12.320  18.665  0.00  0.00    +0.000 NA
ATOM     24  C   UNL     1      -6.720  11.591  18.851  0.00  0.00    +0.000 C 
ATOM     25  C   UNL     1      -6.846  10.797  20.153  0.00  0.00    +0.000 C 
ATOM     26  N   UNL     1      -6.700  11.648  21.341  0.00  0.00    +0.000 NA
ATOM     27  C   UNL     1      -5.344  12.249  21.249  0.00  0.00    +0.000 C 
ATOM     28  C   UNL     1      -4.975  12.945  19.901  0.00  0.00    +0.000 C 
BRANCH  26  29
ATOM     29  C   UNL     1      -7.752  12.696  21.417  0.00  0.00    +0.000 C 
BRANCH  29  30
ATOM     30  C   UNL     1      -7.916  13.325  22.819  0.00  0.00    +0.000 C 
BRANCH  30  31
ATOM     31  O   UNL     1      -7.908  12.314  23.826  0.00  0.00    +0.000 OA
ATOM     32  H   UNL     1      -8.142  11.489  23.358  0.00  0.00    +0.000 HD
ENDBRANCH  30  31
ENDBRANCH  29  30
ENDBRANCH  26  29
ENDBRANCH  22  23
ENDBRANCH  21  22
ENDBRANCH   2  21
TORSDOF 7
ENDMDL
MODEL 4
REMARK VINA RESULT:      -6.9      1.100      1.633
REMARK  Name = 
REMARK  7 active torsions:
REMARK  status: ('A' for Active; 'I' for Inactive)
REMARK    1  A    between atoms: C_2  and  C_3
REMARK    2  A    between atoms: C_3  and  C_4
REMARK    3  A    between atoms: C_4  and  N_5
REMARK    4  A    between atoms: N_8  and  C_9
REMARK    5  A    between atoms: C_9  and  C_10
REMARK    6  A    between atoms: C_10  and  O_11
REMARK    7  A    between atoms: C_25  and  C_26
REMARK                            x       y       z     vdW  Elec       q    Type
REMARK                         _______ _______ _______ _____ _____    ______ ____
ROOT
ATOM      1  O   UNL     1       3.492   9.032  17.039  0.00  0.00    +0.000 OA
ATOM      2  C   UNL     1       3.332   7.978  17.651  0.00  0.00    +0.000 C 
ATOM      3  N   UNL     1       2.244   7.663  18.536  0.00  0.00    +0.000 N 
ATOM      4  C   UNL     1       1.339   8.690  18.977  0.00  0.00    +0.000 A 
ATOM      5  C   UNL     1       0.861   9.646  18.068  0.00  0.00    +0.000 A 
ATOM      6  C   UNL     1      -0.109  10.574  18.456  0.00  0.00    +0.000 A 
ATOM      7  C   UNL     1      -0.609  10.574  19.755  0.00  0.00    +0.000 A 
ATOM      8  C   UNL     1      -0.119   9.657  20.681  0.00  0.00    +0.000 A 
ATOM      9  C   UNL     1       0.852   8.723  20.299  0.00  0.00    +0.000 A 
ATOM     10  S   UNL     1       1.508   7.645  21.557  0.00  0.00    +0.000 S 
ATOM     11  C   UNL     1       1.823   6.234  20.536  0.00  0.00    +0.000 A 
ATOM     12  C   UNL     1       1.827   4.968  21.143  0.00  0.00    +0.000 A 
ATOM     13  C   UNL     1       2.024   3.813  20.387  0.00  0.00    +0.000 A 
ATOM     14  C   UNL     1       2.144   3.898  18.999  0.00  0.00    +0.000 A 
ATOM     15  C   UNL     1       2.103   5.173  18.402  0.00  0.00    +0.000 A 
ATOM     16  C   UNL     1       2.057   6.363  19.161  0.00  0.00    +0.000 A 
ENDROOT
BRANCH  14  17
ATOM     17  C   UNL     1       2.327   2.652  18.162  0.00  0.00    +0.000 C 
ATOM     18  F   UNL     1       3.417   1.919  18.510  0.00  0.00    +0.000 F 
ATOM     19  F   UNL     1       1.261   1.811  18.227  0.00  0.00    +0.000 F 
ATOM     20  F   UNL     1       2.488   2.924  16.839  0.00  0.00    +0.000 F 
ENDBRANCH  14  17
BRANCH   2  21
ATOM     21  C   UNL     1       4.364   6.877  17.570  0.00  0.00    +0.000 C 
BRANCH  21  22
ATOM     22  C   UNL     1       5.872   7.041  17.404  0.00  0.00    +0.000 C 
BRANCH  22  23
ATOM     23  N   UNL     1       6.202   6.469  16.079  0.00  0.00    +0.000 NA
ATOM     24  C   UNL     1       7.352   5.557  16.024  0.00  0.00    +0.000 C 
ATOM     25  C   UNL     1       7.017   4.064  15.974  0.00  0.00    +0.000 C 
ATOM     26  N   UNL     1       6.181   3.720  14.818  0.00  0.00    +0.000 NA
ATOM     27  C   UNL     1       4.930   4.509  14.968  0.00  0.00    +0.000 C 
ATOM     28  C   UNL     1       5.094   6.042  15.218  0.00  0.00    +0.000 C 
BRANCH  26  29
ATOM     29  C   UNL     1       6.853   4.015  13.525  0.00  0.00    +0.000 C 
BRANCH  29  30
ATOM     30  C   UNL     1       6.112   3.463  12.287  0.00  0.00    +0.000 C 
BRANCH  30  31
ATOM     31  O   UNL     1       6.663   2.208  11.891  0.00  0.00    +0.000 OA
ATOM     32  H   UNL     1       6.246   2.008  11.030  0.00  0.00    +0.000 HD
ENDBRANCH  30  31
ENDBRANCH  29  30
ENDBRANCH  26  29
ENDBRANCH  22  23
ENDBRANCH  21  22
ENDBRANCH   2  21
TORSDOF 7
ENDMDL
MODEL 5
REMARK VINA RESULT:      -6.8      2.883      7.173
REMARK  Name = 
REMARK  7 active torsions:
REMARK  status: ('A' for Active; 'I' for Inactive)
REMARK    1  A    between atoms: C_2  and  C_3
REMARK    2  A    between atoms: C_3  and  C_4
REMARK    3  A    between atoms: C_4  and  N_5
REMARK    4  A    between atoms: N_8  and  C_9
REMARK    5  A    between atoms: C_9  and  C_10
REMARK    6  A    between atoms: C_10  and  O_11
REMARK    7  A    between atoms: C_25  and  C_26
REMARK                            x       y       z     vdW  Elec       q    Type
REMARK                         _______ _______ _______ _____ _____    ______ ____
ROOT
ATOM      1  O   UNL     1       4.133   7.921  17.706  0.00  0.00    +0.000 OA
ATOM      2  C   UNL     1       3.604   6.866  18.048  0.00  0.00    +0.000 C 
ATOM      3  N   UNL     1       4.056   5.541  17.721  0.00  0.00    +0.000 N 
ATOM      4  C   UNL     1       5.076   5.341  16.727  0.00  0.00    +0.000 A 
ATOM      5  C   UNL     1       6.205   6.175  16.698  0.00  0.00    +0.000 A 
ATOM      6  C   UNL     1       7.257   5.917  15.817  0.00  0.00    +0.000 A 
ATOM      7  C   UNL     1       7.200   4.834  14.944  0.00  0.00    +0.000 A 
ATOM      8  C   UNL     1       6.072   4.018  14.932  0.00  0.00    +0.000 A 
ATOM      9  C   UNL     1       5.014   4.269  15.815  0.00  0.00    +0.000 A 
ATOM     10  S   UNL     1       3.560   3.248  15.680  0.00  0.00    +0.000 S 
ATOM     11  C   UNL     1       3.083   3.269  17.384  0.00  0.00    +0.000 A 
ATOM     12  C   UNL     1       2.330   2.189  17.873  0.00  0.00    +0.000 A 
ATOM     13  C   UNL     1       1.961   2.124  19.216  0.00  0.00    +0.000 A 
ATOM     14  C   UNL     1       2.403   3.100  20.110  0.00  0.00    +0.000 A 
ATOM     15  C   UNL     1       3.185   4.159  19.611  0.00  0.00    +0.000 A 
ATOM     16  C   UNL     1       3.443   4.325  18.232  0.00  0.00    +0.000 A 
ENDROOT
BRANCH  14  17
ATOM     17  C   UNL     1       2.037   3.027  21.576  0.00  0.00    +0.000 C 
ATOM     18  F   UNL     1       2.303   4.170  22.260  0.00  0.00    +0.000 F 
ATOM     19  F   UNL     1       0.720   2.756  21.778  0.00  0.00    +0.000 F 
ATOM     20  F   UNL     1       2.708   2.048  22.240  0.00  0.00    +0.000 F 
ENDBRANCH  14  17
BRANCH   2  21
ATOM     21  C   UNL     1       2.316   6.871  18.838  0.00  0.00    +0.000 C 
BRANCH  21  22
ATOM     22  C   UNL     1       2.002   7.702  20.078  0.00  0.00    +0.000 C 
BRANCH  22  23
ATOM     23  N   UNL     1       1.008   8.713  19.653  0.00  0.00    +0.000 NA
ATOM     24  C   UNL     1       0.253   9.384  20.719  0.00  0.00    +0.000 C 
ATOM     25  C   UNL     1       0.720  10.796  21.080  0.00  0.00    +0.000 C 
ATOM     26  N   UNL     1       0.678  11.707  19.929  0.00  0.00    +0.000 NA
ATOM     27  C   UNL     1       1.590  11.123  18.911  0.00  0.00    +0.000 C 
ATOM     28  C   UNL     1       1.372   9.617  18.557  0.00  0.00    +0.000 C 
BRANCH  26  29
ATOM     29  C   UNL     1      -0.697  11.874  19.390  0.00  0.00    +0.000 C 
BRANCH  29  30
ATOM     30  C   UNL     1      -0.800  12.883  18.224  0.00  0.00    +0.000 C 
BRANCH  30  31
ATOM     31  O   UNL     1      -1.563  12.332  17.151  0.00  0.00    +0.000 OA
ATOM     32  H   UNL     1      -1.199  11.436  17.015  0.00  0.00    +0.000 HD
ENDBRANCH  30  31
ENDBRANCH  29  30
ENDBRANCH  26  29
ENDBRANCH  22  23
ENDBRANCH  21  22
ENDBRANCH   2  21
TORSDOF 7
ENDMDL
MODEL 6
REMARK VINA RESULT:      -6.7      4.556      7.132
REMARK  Name = 
REMARK  7 active torsions:
REMARK  status: ('A' for Active; 'I' for Inactive)
REMARK    1  A    between atoms: C_2  and  C_3
REMARK    2  A    between atoms: C_3  and  C_4
REMARK    3  A    between atoms: C_4  and  N_5
REMARK    4  A    between atoms: N_8  and  C_9
REMARK    5  A    between atoms: C_9  and  C_10
REMARK    6  A    between atoms: C_10  and  O_11
REMARK    7  A    between atoms: C_25  and  C_26
REMARK                            x       y       z     vdW  Elec       q    Type
REMARK                         _______ _______ _______ _____ _____    ______ ____
ROOT
ATOM      1  O   UNL     1       3.014  11.661  18.185  0.00  0.00    +0.000 OA
ATOM      2  C   UNL     1       1.810  11.551  18.412  0.00  0.00    +0.000 C 
ATOM      3  N   UNL     1       0.876  12.627  18.600  0.00  0.00    +0.000 N 
ATOM      4  C   UNL     1       1.343  13.976  18.781  0.00  0.00    +0.000 A 
ATOM      5  C   UNL     1       2.383  14.475  17.982  0.00  0.00    +0.000 A 
ATOM      6  C   UNL     1       2.762  15.817  18.065  0.00  0.00    +0.000 A 
ATOM      7  C   UNL     1       2.123  16.680  18.950  0.00  0.00    +0.000 A 
ATOM      8  C   UNL     1       1.114  16.194  19.777  0.00  0.00    +0.000 A 
ATOM      9  C   UNL     1       0.726  14.850  19.699  0.00  0.00    +0.000 A 
ATOM     10  S   UNL     1      -0.501  14.270  20.853  0.00  0.00    +0.000 S 
ATOM     11  C   UNL     1      -1.258  13.051  19.818  0.00  0.00    +0.000 A 
ATOM     12  C   UNL     1      -2.597  12.710  20.071  0.00  0.00    +0.000 A 
ATOM     13  C   UNL     1      -3.266  11.790  19.264  0.00  0.00    +0.000 A 
ATOM     14  C   UNL     1      -2.630  11.251  18.145  0.00  0.00    +0.000 A 
ATOM     15  C   UNL     1      -1.298  11.628  17.886  0.00  0.00    +0.000 A 
ATOM     16  C   UNL     1      -0.556  12.439  18.772  0.00  0.00    +0.000 A 
ENDROOT
BRANCH  14  17
ATOM     17  C   UNL     1      -3.352  10.274  17.242  0.00  0.00    +0.000 C 
ATOM     18  F   UNL     1      -2.594   9.830  16.206  0.00  0.00    +0.000 F 
ATOM     19  F   UNL     1      -3.786   9.168  17.903  0.00  0.00    +0.000 F 
ATOM     20  F   UNL     1      -4.464  10.808  16.670  0.00  0.00    +0.000 F 
ENDBRANCH  14  17
BRANCH   2  21
ATOM     21  C   UNL     1       1.181  10.188  18.584  0.00  0.00    +0.000 C 
BRANCH  21  22
ATOM     22  C   UNL     1       1.428   8.947  17.730  0.00  0.00    +0.000 C 
BRANCH  22  23
ATOM     23  N   UNL     1       2.549   8.225  18.374  0.00  0.00    +0.000 NA
ATOM     24  C   UNL     1       2.195   7.270  19.432  0.00  0.00    +0.000 C 
ATOM     25  C   UNL     1       2.200   5.793  19.027  0.00  0.00    +0.000 C 
ATOM     26  N   UNL     1       3.508   5.359  18.520  0.00  0.00    +0.000 NA
ATOM     27  C   UNL     1       3.787   6.206  17.331  0.00  0.00    +0.000 C 
ATOM     28  C   UNL     1       3.643   7.750  17.520  0.00  0.00    +0.000 C 
BRANCH  26  29
ATOM     29  C   UNL     1       4.581   5.489  19.540  0.00  0.00    +0.000 C 
BRANCH  29  30
ATOM     30  C   UNL     1       6.006   5.262  18.989  0.00  0.00    +0.000 C 
BRANCH  30  31
ATOM     31  O   UNL     1       6.194   3.892  18.634  0.00  0.00    +0.000 OA
ATOM     32  H   UNL     1       5.389   3.437  18.948  0.00  0.00    +0.000 HD
ENDBRANCH  30  31
ENDBRANCH  29  30
ENDBRANCH  26  29
ENDBRANCH  22  23
ENDBRANCH  21  22
ENDBRANCH   2  21
TORSDOF 7
ENDMDL
MODEL 7
REMARK VINA RESULT:      -6.7      4.666      7.423
REMARK  Name = 
REMARK  7 active torsions:
REMARK  status: ('A' for Active; 'I' for Inactive)
REMARK    1  A    between atoms: C_2  and  C_3
REMARK    2  A    between atoms: C_3  and  C_4
REMARK    3  A    between atoms: C_4  and  N_5
REMARK    4  A    between atoms: N_8  and  C_9
REMARK    5  A    between atoms: C_9  and  C_10
REMARK    6  A    between atoms: C_10  and  O_11
REMARK    7  A    between atoms: C_25  and  C_26
REMARK                            x       y       z     vdW  Elec       q    Type
REMARK                         _______ _______ _______ _____ _____    ______ ____
ROOT
ATOM      1  O   UNL     1       2.730  11.352  18.050  0.00  0.00    +0.000 OA
ATOM      2  C   UNL     1       1.532  11.352  18.329  0.00  0.00    +0.000 C 
ATOM      3  N   UNL     1       0.720  12.507  18.599  0.00  0.00    +0.000 N 
ATOM      4  C   UNL     1       1.326  13.795  18.805  0.00  0.00    +0.000 A 
ATOM      5  C   UNL     1       2.376  14.220  17.976  0.00  0.00    +0.000 A 
ATOM      6  C   UNL     1       2.891  15.514  18.088  0.00  0.00    +0.000 A 
ATOM      7  C   UNL     1       2.380  16.400  19.032  0.00  0.00    +0.000 A 
ATOM      8  C   UNL     1       1.365  15.983  19.888  0.00  0.00    +0.000 A 
ATOM      9  C   UNL     1       0.841  14.688  19.781  0.00  0.00    +0.000 A 
ATOM     10  S   UNL     1      -0.386  14.187  20.971  0.00  0.00    +0.000 S 
ATOM     11  C   UNL     1      -1.307  13.090  19.931  0.00  0.00    +0.000 A 
ATOM     12  C   UNL     1      -2.661  12.873  20.234  0.00  0.00    +0.000 A 
ATOM     13  C   UNL     1      -3.452  12.056  19.428  0.00  0.00    +0.000 A 
ATOM     14  C   UNL     1      -2.923  11.502  18.262  0.00  0.00    +0.000 A 
ATOM     15  C   UNL     1      -1.573  11.756  17.954  0.00  0.00    +0.000 A 
ATOM     16  C   UNL     1      -0.715  12.454  18.832  0.00  0.00    +0.000 A 
ENDROOT
BRANCH  14  17
ATOM     17  C   UNL     1      -3.777  10.637  17.361  0.00  0.00    +0.000 C 
ATOM     18  F   UNL     1      -5.111  10.849  17.510  0.00  0.00    +0.000 F 
ATOM     19  F   UNL     1      -3.504  10.819  16.041  0.00  0.00    +0.000 F 
ATOM     20  F   UNL     1      -3.600   9.307  17.582  0.00  0.00    +0.000 F 
ENDBRANCH  14  17
BRANCH   2  21
ATOM     21  C   UNL     1       0.778  10.052  18.483  0.00  0.00    +0.000 C 
BRANCH  21  22
ATOM     22  C   UNL     1       0.702   9.175  19.730  0.00  0.00    +0.000 C 
BRANCH  22  23
ATOM     23  N   UNL     1       1.914   8.326  19.707  0.00  0.00    +0.000 NA
ATOM     24  C   UNL     1       2.029   7.313  20.764  0.00  0.00    +0.000 C 
ATOM     25  C   UNL     1       1.686   5.879  20.354  0.00  0.00    +0.000 C 
ATOM     26  N   UNL     1       2.527   5.399  19.250  0.00  0.00    +0.000 NA
ATOM     27  C   UNL     1       2.272   6.320  18.112  0.00  0.00    +0.000 C 
ATOM     28  C   UNL     1       2.396   7.849  18.406  0.00  0.00    +0.000 C 
BRANCH  26  29
ATOM     29  C   UNL     1       3.968   5.369  19.610  0.00  0.00    +0.000 C 
BRANCH  29  30
ATOM     30  C   UNL     1       4.875   4.730  18.534  0.00  0.00    +0.000 C 
BRANCH  30  31
ATOM     31  O   UNL     1       5.511   3.560  19.046  0.00  0.00    +0.000 OA
ATOM     32  H   UNL     1       5.469   3.652  20.017  0.00  0.00    +0.000 HD
ENDBRANCH  30  31
ENDBRANCH  29  30
ENDBRANCH  26  29
ENDBRANCH  22  23
ENDBRANCH  21  22
ENDBRANCH   2  21
TORSDOF 7
ENDMDL
MODEL 8
REMARK VINA RESULT:      -6.5      7.909     10.420
REMARK  Name = 
REMARK  7 active torsions:
REMARK  status: ('A' for Active; 'I' for Inactive)
REMARK    1  A    between atoms: C_2  and  C_3
REMARK    2  A    between atoms: C_3  and  C_4
REMARK    3  A    between atoms: C_4  and  N_5
REMARK    4  A    between atoms: N_8  and  C_9
REMARK    5  A    between atoms: C_9  and  C_10
REMARK    6  A    between atoms: C_10  and  O_11
REMARK    7  A    between atoms: C_25  and  C_26
REMARK                            x       y       z     vdW  Elec       q    Type
REMARK                         _______ _______ _______ _____ _____    ______ ____
ROOT
ATOM      1  O   UNL     1      -0.895  13.408  22.431  0.00  0.00    +0.000 OA
ATOM      2  C   UNL     1      -1.403  13.126  21.348  0.00  0.00    +0.000 C 
ATOM      3  N   UNL     1      -1.372  11.842  20.701  0.00  0.00    +0.000 N 
ATOM      4  C   UNL     1      -0.505  10.801  21.183  0.00  0.00    +0.000 A 
ATOM      5  C   UNL     1      -0.384  10.565  22.561  0.00  0.00    +0.000 A 
ATOM      6  C   UNL     1       0.360   9.482  23.035  0.00  0.00    +0.000 A 
ATOM      7  C   UNL     1       1.005   8.624  22.148  0.00  0.00    +0.000 A 
ATOM      8  C   UNL     1       0.928   8.865  20.780  0.00  0.00    +0.000 A 
ATOM      9  C   UNL     1       0.182   9.948  20.296  0.00  0.00    +0.000 A 
ATOM     10  S   UNL     1       0.206  10.256  18.542  0.00  0.00    +0.000 S 
ATOM     11  C   UNL     1      -1.426  10.921  18.384  0.00  0.00    +0.000 A 
ATOM     12  C   UNL     1      -2.068  10.807  17.140  0.00  0.00    +0.000 A 
ATOM     13  C   UNL     1      -3.371  11.270  16.962  0.00  0.00    +0.000 A 
ATOM     14  C   UNL     1      -4.083  11.786  18.047  0.00  0.00    +0.000 A 
ATOM     15  C   UNL     1      -3.436  11.863  19.295  0.00  0.00    +0.000 A 
ATOM     16  C   UNL     1      -2.072  11.541  19.461  0.00  0.00    +0.000 A 
ENDROOT
BRANCH  14  17
ATOM     17  C   UNL     1      -5.508  12.264  17.877  0.00  0.00    +0.000 C 
ATOM     18  F   UNL     1      -5.941  13.055  18.894  0.00  0.00    +0.000 F 
ATOM     19  F   UNL     1      -5.693  12.975  16.733  0.00  0.00    +0.000 F 
ATOM     20  F   UNL     1      -6.404  11.243  17.812  0.00  0.00    +0.000 F 
ENDBRANCH  14  17
BRANCH   2  21
ATOM     21  C   UNL     1      -2.092  14.186  20.521  0.00  0.00    +0.000 C 
BRANCH  21  22
ATOM     22  C   UNL     1      -1.827  15.688  20.548  0.00  0.00    +0.000 C 
BRANCH  22  23
ATOM     23  N   UNL     1      -0.682  15.918  19.638  0.00  0.00    +0.000 NA
ATOM     24  C   UNL     1       0.521  16.514  20.231  0.00  0.00    +0.000 C 
ATOM     25  C   UNL     1       1.666  15.543  20.535  0.00  0.00    +0.000 C 
ATOM     26  N   UNL     1       2.124  14.831  19.336  0.00  0.00    +0.000 NA
ATOM     27  C   UNL     1       0.947  14.076  18.834  0.00  0.00    +0.000 C 
ATOM     28  C   UNL     1      -0.376  14.885  18.643  0.00  0.00    +0.000 C 
BRANCH  26  29
ATOM     29  C   UNL     1       2.657  15.753  18.299  0.00  0.00    +0.000 C 
BRANCH  29  30
ATOM     30  C   UNL     1       4.079  15.400  17.810  0.00  0.00    +0.000 C 
BRANCH  30  31
ATOM     31  O   UNL     1       4.250  13.984  17.745  0.00  0.00    +0.000 OA
ATOM     32  H   UNL     1       3.354  13.615  17.873  0.00  0.00    +0.000 HD
ENDBRANCH  30  31
ENDBRANCH  29  30
ENDBRANCH  26  29
ENDBRANCH  22  23
ENDBRANCH  21  22
ENDBRANCH   2  21
TORSDOF 7
ENDMDL
MODEL 9
REMARK VINA RESULT:      -6.5      8.104     10.930
REMARK  Name = 
REMARK  7 active torsions:
REMARK  status: ('A' for Active; 'I' for Inactive)
REMARK    1  A    between atoms: C_2  and  C_3
REMARK    2  A    between atoms: C_3  and  C_4
REMARK    3  A    between atoms: C_4  and  N_5
REMARK    4  A    between atoms: N_8  and  C_9
REMARK    5  A    between atoms: C_9  and  C_10
REMARK    6  A    between atoms: C_10  and  O_11
REMARK    7  A    between atoms: C_25  and  C_26
REMARK                            x       y       z     vdW  Elec       q    Type
REMARK                         _______ _______ _______ _____ _____    ______ ____
ROOT
ATOM      1  O   UNL     1      -1.187  13.391  22.580  0.00  0.00    +0.000 OA
ATOM      2  C   UNL     1      -1.671  13.136  21.479  0.00  0.00    +0.000 C 
ATOM      3  N   UNL     1      -1.575  11.886  20.776  0.00  0.00    +0.000 N 
ATOM      4  C   UNL     1      -0.664  10.865  21.219  0.00  0.00    +0.000 A 
ATOM      5  C   UNL     1      -0.545  10.572  22.587  0.00  0.00    +0.000 A 
ATOM      6  C   UNL     1       0.244   9.505  23.019  0.00  0.00    +0.000 A 
ATOM      7  C   UNL     1       0.937   8.719  22.102  0.00  0.00    +0.000 A 
ATOM      8  C   UNL     1       0.861   9.018  20.745  0.00  0.00    +0.000 A 
ATOM      9  C   UNL     1       0.070  10.086  20.303  0.00  0.00    +0.000 A 
ATOM     10  S   UNL     1       0.095  10.475  18.564  0.00  0.00    +0.000 S 
ATOM     11  C   UNL     1      -1.565  11.070  18.419  0.00  0.00    +0.000 A 
ATOM     12  C   UNL     1      -2.190  10.984  17.164  0.00  0.00    +0.000 A 
ATOM     13  C   UNL     1      -3.511  11.394  16.993  0.00  0.00    +0.000 A 
ATOM     14  C   UNL     1      -4.256  11.826  18.091  0.00  0.00    +0.000 A 
ATOM     15  C   UNL     1      -3.625  11.876  19.349  0.00  0.00    +0.000 A 
ATOM     16  C   UNL     1      -2.248  11.610  19.516  0.00  0.00    +0.000 A 
ENDROOT
BRANCH  14  17
ATOM     17  C   UNL     1      -5.700  12.246  17.928  0.00  0.00    +0.000 C 
ATOM     18  F   UNL     1      -6.568  11.201  17.885  0.00  0.00    +0.000 F 
ATOM     19  F   UNL     1      -6.130  13.060  18.929  0.00  0.00    +0.000 F 
ATOM     20  F   UNL     1      -5.921  12.942  16.781  0.00  0.00    +0.000 F 
ENDBRANCH  14  17
BRANCH   2  21
ATOM     21  C   UNL     1      -2.402  14.200  20.694  0.00  0.00    +0.000 C 
BRANCH  21  22
ATOM     22  C   UNL     1      -1.981  15.654  20.505  0.00  0.00    +0.000 C 
BRANCH  22  23
ATOM     23  N   UNL     1      -0.545  15.621  20.146  0.00  0.00    +0.000 NA
ATOM     24  C   UNL     1      -0.219  15.757  18.721  0.00  0.00    +0.000 C 
ATOM     25  C   UNL     1       0.266  17.139  18.275  0.00  0.00    +0.000 C 
ATOM     26  N   UNL     1       1.469  17.567  19.001  0.00  0.00    +0.000 NA
ATOM     27  C   UNL     1       1.087  17.608  20.437  0.00  0.00    +0.000 C 
ATOM     28  C   UNL     1       0.399  16.331  21.016  0.00  0.00    +0.000 C 
BRANCH  26  29
ATOM     29  C   UNL     1       2.620  16.655  18.773  0.00  0.00    +0.000 C 
BRANCH  29  30
ATOM     30  C   UNL     1       3.157  16.665  17.324  0.00  0.00    +0.000 C 
BRANCH  30  31
ATOM     31  O   UNL     1       3.690  15.387  16.978  0.00  0.00    +0.000 OA
ATOM     32  H   UNL     1       3.938  15.464  16.036  0.00  0.00    +0.000 HD
ENDBRANCH  30  31
ENDBRANCH  29  30
ENDBRANCH  26  29
ENDBRANCH  22  23
ENDBRANCH  21  22
ENDBRANCH   2  21
TORSDOF 7
ENDMDL
