MODEL 1
REMARK VINA RESULT:      -7.4      0.000      0.000
REMARK  Name = 
REMARK  12 active torsions:
REMARK  status: ('A' for Active; 'I' for Inactive)
REMARK    1  A    between atoms: C_1  and  C_2
REMARK    2  A    between atoms: C_2  and  C_3
REMARK    3  A    between atoms: C_3  and  C_4
REMARK    4  A    between atoms: C_4  and  C_5
REMARK    5  A    between atoms: C_8  and  C_10
REMARK    6  A    between atoms: C_14  and  C_15
REMARK    7  A    between atoms: C_16  and  C_17
REMARK    8  A    between atoms: N_20  and  C_21
REMARK    9  A    between atoms: C_21  and  C_22
REMARK   10  A    between atoms: C_22  and  N_23
REMARK   11  A    between atoms: C_22  and  C_24
REMARK   12  A    between atoms: C_24  and  S_25
REMARK                            x       y       z     vdW  Elec       q    Type
REMARK                         _______ _______ _______ _____ _____    ______ ____
ROOT
ATOM      1  C   UNL     1       7.226   6.136  16.698  0.00  0.00    +0.000 C 
ATOM      2  C   UNL     1       6.999   4.955  17.694  0.00  0.00    +0.000 C 
ATOM      3  N   UNL     1       5.577   4.668  17.897  0.00  0.00    +0.000 N 
ATOM      4  C   UNL     1       5.110   4.358  19.178  0.00  0.00    +0.000 C 
ATOM      5  O   UNL     1       5.865   4.212  20.137  0.00  0.00    +0.000 OA
ATOM      6  C   UNL     1       4.837   4.458  16.651  0.00  0.00    +0.000 C 
ATOM      7  C   UNL     1       5.030   5.659  15.709  0.00  0.00    +0.000 C 
ATOM      8  N   UNL     1       6.443   6.002  15.413  0.00  0.00    +0.000 NA
ENDROOT
BRANCH   4   9
ATOM      9  C   UNL     1       3.637   4.288  19.404  0.00  0.00    +0.000 A 
ATOM     10  C   UNL     1       3.021   5.394  20.019  0.00  0.00    +0.000 A 
ATOM     11  C   UNL     1       1.652   5.388  20.270  0.00  0.00    +0.000 A 
ATOM     12  C   UNL     1       0.910   4.242  19.999  0.00  0.00    +0.000 A 
ATOM     13  C   UNL     1       1.513   3.096  19.458  0.00  0.00    +0.000 A 
ATOM     14  C   UNL     1       0.650   1.880  19.254  0.00  0.00    +0.000 C 
ATOM     15  C   UNL     1       2.884   3.129  19.103  0.00  0.00    +0.000 A 
ATOM     16  C   UNL     1       3.546   1.957  18.420  0.00  0.00    +0.000 C 
ENDBRANCH   4   9
BRANCH   1  17
ATOM     17  C   UNL     1       6.982   7.526  17.351  0.00  0.00    +0.000 C 
BRANCH  17  18
ATOM     18  C   UNL     1       8.225   8.025  18.109  0.00  0.00    +0.000 C 
BRANCH  18  20
ATOM     19  C   UNL     1       9.224   9.999  19.283  0.00  0.00    +0.000 C 
ATOM     20  C   UNL     1       8.413   9.542  18.075  0.00  0.00    +0.000 C 
ENDBRANCH  18  20
ENDBRANCH  17  18
ENDBRANCH   1  17
BRANCH   8  21
ATOM     21  C   UNL     1       7.099   4.984  14.549  0.00  0.00    +0.000 C 
BRANCH  21  22
ATOM     22  C   UNL     1       7.624   5.475  13.164  0.00  0.00    +0.000 C 
BRANCH  22  23
ATOM     23  N   UNL     1       9.042   5.890  13.210  0.00  0.00    +0.000 NA
ATOM     24  H   UNL     1       9.192   6.428  14.065  0.00  0.00    +0.000 HD
ATOM     25  H   UNL     1       9.188   6.584  12.475  0.00  0.00    +0.000 HD
ENDBRANCH  22  23
BRANCH  22  26
ATOM     26  C   UNL     1       7.375   4.424  12.057  0.00  0.00    +0.000 C 
BRANCH  26  27
ATOM     27  S   UNL     1       5.991   3.282  12.377  0.00  0.00    +0.000 S 
ATOM     28  H   UNL     1       6.722   2.161  12.294  0.00  0.00    +0.000 HD
ENDBRANCH  26  27
ENDBRANCH  22  26
ENDBRANCH  21  22
ENDBRANCH   8  21
TORSDOF 9
ENDMDL
MODEL 2
REMARK VINA RESULT:      -6.8      1.129      1.187
REMARK  Name = 
REMARK  12 active torsions:
REMARK  status: ('A' for Active; 'I' for Inactive)
REMARK    1  A    between atoms: C_1  and  C_2
REMARK    2  A    between atoms: C_2  and  C_3
REMARK    3  A    between atoms: C_3  and  C_4
REMARK    4  A    between atoms: C_4  and  C_5
REMARK    5  A    between atoms: C_8  and  C_10
REMARK    6  A    between atoms: C_14  and  C_15
REMARK    7  A    between atoms: C_16  and  C_17
REMARK    8  A    between atoms: N_20  and  C_21
REMARK    9  A    between atoms: C_21  and  C_22
REMARK   10  A    between atoms: C_22  and  N_23
REMARK   11  A    between atoms: C_22  and  C_24
REMARK   12  A    between atoms: C_24  and  S_25
REMARK                            x       y       z     vdW  Elec       q    Type
REMARK                         _______ _______ _______ _____ _____    ______ ____
ROOT
ATOM      1  C   UNL     1       7.188   6.003  16.247  0.00  0.00    +0.000 C 
ATOM      2  C   UNL     1       7.112   5.019  17.457  0.00  0.00    +0.000 C 
ATOM      3  N   UNL     1       5.734   4.790  17.898  0.00  0.00    +0.000 N 
ATOM      4  C   UNL     1       5.447   4.717  19.264  0.00  0.00    +0.000 C 
ATOM      5  O   UNL     1       6.326   4.733  20.123  0.00  0.00    +0.000 OA
ATOM      6  C   UNL     1       4.835   4.372  16.819  0.00  0.00    +0.000 C 
ATOM      7  C   UNL     1       4.885   5.385  15.663  0.00  0.00    +0.000 C 
ATOM      8  N   UNL     1       6.241   5.653  15.123  0.00  0.00    +0.000 NA
ENDROOT
BRANCH   4   9
ATOM      9  C   UNL     1       4.019   4.704  19.696  0.00  0.00    +0.000 A 
ATOM     10  C   UNL     1       3.321   5.927  19.664  0.00  0.00    +0.000 A 
ATOM     11  C   UNL     1       1.990   5.987  20.066  0.00  0.00    +0.000 A 
ATOM     12  C   UNL     1       1.378   4.853  20.590  0.00  0.00    +0.000 A 
ATOM     13  C   UNL     1       2.075   3.639  20.707  0.00  0.00    +0.000 A 
ATOM     14  C   UNL     1       1.359   2.478  21.342  0.00  0.00    +0.000 C 
ATOM     15  C   UNL     1       3.396   3.541  20.205  0.00  0.00    +0.000 A 
ATOM     16  C   UNL     1       4.143   2.229  20.211  0.00  0.00    +0.000 C 
ENDBRANCH   4   9
BRANCH   1  17
ATOM     17  C   UNL     1       7.016   7.489  16.671  0.00  0.00    +0.000 C 
BRANCH  17  18
ATOM     18  C   UNL     1       7.981   7.871  17.808  0.00  0.00    +0.000 C 
BRANCH  18  20
ATOM     19  C   UNL     1       9.140   9.655  19.131  0.00  0.00    +0.000 C 
ATOM     20  C   UNL     1       8.252   9.371  17.923  0.00  0.00    +0.000 C 
ENDBRANCH  18  20
ENDBRANCH  17  18
ENDBRANCH   1  17
BRANCH   8  21
ATOM     21  C   UNL     1       6.786   4.491  14.372  0.00  0.00    +0.000 C 
BRANCH  21  22
ATOM     22  C   UNL     1       6.388   4.381  12.867  0.00  0.00    +0.000 C 
BRANCH  22  23
ATOM     23  N   UNL     1       7.562   4.270  11.976  0.00  0.00    +0.000 NA
ATOM     24  H   UNL     1       7.276   4.535  11.032  0.00  0.00    +0.000 HD
ATOM     25  H   UNL     1       7.786   3.278  11.877  0.00  0.00    +0.000 HD
ENDBRANCH  22  23
BRANCH  22  26
ATOM     26  C   UNL     1       5.383   3.231  12.629  0.00  0.00    +0.000 C 
BRANCH  26  27
ATOM     27  S   UNL     1       5.956   1.930  11.489  0.00  0.00    +0.000 S 
ATOM     28  H   UNL     1       4.859   1.938  10.716  0.00  0.00    +0.000 HD
ENDBRANCH  26  27
ENDBRANCH  22  26
ENDBRANCH  21  22
ENDBRANCH   8  21
TORSDOF 9
ENDMDL
MODEL 3
REMARK VINA RESULT:      -6.4      0.648      1.621
REMARK  Name = 
REMARK  12 active torsions:
REMARK  status: ('A' for Active; 'I' for Inactive)
REMARK    1  A    between atoms: C_1  and  C_2
REMARK    2  A    between atoms: C_2  and  C_3
REMARK    3  A    between atoms: C_3  and  C_4
REMARK    4  A    between atoms: C_4  and  C_5
REMARK    5  A    between atoms: C_8  and  C_10
REMARK    6  A    between atoms: C_14  and  C_15
REMARK    7  A    between atoms: C_16  and  C_17
REMARK    8  A    between atoms: N_20  and  C_21
REMARK    9  A    between atoms: C_21  and  C_22
REMARK   10  A    between atoms: C_22  and  N_23
REMARK   11  A    between atoms: C_22  and  C_24
REMARK   12  A    between atoms: C_24  and  S_25
REMARK                            x       y       z     vdW  Elec       q    Type
REMARK                         _______ _______ _______ _____ _____    ______ ____
ROOT
ATOM      1  C   UNL     1       7.023   5.855  16.577  0.00  0.00    +0.000 C 
ATOM      2  C   UNL     1       6.992   4.673  17.598  0.00  0.00    +0.000 C 
ATOM      3  N   UNL     1       5.626   4.247  17.909  0.00  0.00    +0.000 N 
ATOM      4  C   UNL     1       5.288   3.912  19.224  0.00  0.00    +0.000 C 
ATOM      5  O   UNL     1       6.122   3.859  20.125  0.00  0.00    +0.000 OA
ATOM      6  C   UNL     1       4.822   3.942  16.723  0.00  0.00    +0.000 C 
ATOM      7  C   UNL     1       4.821   5.141  15.759  0.00  0.00    +0.000 C 
ATOM      8  N   UNL     1       6.166   5.620  15.356  0.00  0.00    +0.000 NA
ENDROOT
BRANCH   4   9
ATOM      9  C   UNL     1       3.850   3.696  19.560  0.00  0.00    +0.000 A 
ATOM     10  C   UNL     1       3.363   2.377  19.507  0.00  0.00    +0.000 A 
ATOM     11  C   UNL     1       2.028   2.107  19.796  0.00  0.00    +0.000 A 
ATOM     12  C   UNL     1       1.153   3.161  20.044  0.00  0.00    +0.000 A 
ATOM     13  C   UNL     1       1.596   4.493  20.024  0.00  0.00    +0.000 A 
ATOM     14  C   UNL     1       0.572   5.575  20.240  0.00  0.00    +0.000 C 
ATOM     15  C   UNL     1       2.972   4.770  19.834  0.00  0.00    +0.000 A 
ATOM     16  C   UNL     1       3.507   6.179  19.914  0.00  0.00    +0.000 C 
ENDBRANCH   4   9
BRANCH   1  17
ATOM     17  C   UNL     1       6.686   7.223  17.234  0.00  0.00    +0.000 C 
BRANCH  17  18
ATOM     18  C   UNL     1       7.885   7.792  18.013  0.00  0.00    +0.000 C 
BRANCH  18  20
ATOM     19  C   UNL     1       9.057   9.822  18.896  0.00  0.00    +0.000 C 
ATOM     20  C   UNL     1       8.088   9.297  17.841  0.00  0.00    +0.000 C 
ENDBRANCH  18  20
ENDBRANCH  17  18
ENDBRANCH   1  17
BRANCH   8  21
ATOM     21  C   UNL     1       6.858   4.660  14.454  0.00  0.00    +0.000 C 
BRANCH  21  22
ATOM     22  C   UNL     1       7.346   5.217  13.080  0.00  0.00    +0.000 C 
BRANCH  22  23
ATOM     23  N   UNL     1       8.693   5.819  13.159  0.00  0.00    +0.000 NA
ATOM     24  H   UNL     1       8.598   6.833  13.078  0.00  0.00    +0.000 HD
ATOM     25  H   UNL     1       9.198   5.568  12.306  0.00  0.00    +0.000 HD
ENDBRANCH  22  23
BRANCH  22  26
ATOM     26  C   UNL     1       7.267   4.140  11.972  0.00  0.00    +0.000 C 
BRANCH  26  27
ATOM     27  S   UNL     1       5.799   3.064  12.047  0.00  0.00    +0.000 S 
ATOM     28  H   UNL     1       6.271   2.137  11.201  0.00  0.00    +0.000 HD
ENDBRANCH  26  27
ENDBRANCH  22  26
ENDBRANCH  21  22
ENDBRANCH   8  21
TORSDOF 9
ENDMDL
MODEL 4
REMARK VINA RESULT:      -6.2      1.448      1.613
REMARK  Name = 
REMARK  12 active torsions:
REMARK  status: ('A' for Active; 'I' for Inactive)
REMARK    1  A    between atoms: C_1  and  C_2
REMARK    2  A    between atoms: C_2  and  C_3
REMARK    3  A    between atoms: C_3  and  C_4
REMARK    4  A    between atoms: C_4  and  C_5
REMARK    5  A    between atoms: C_8  and  C_10
REMARK    6  A    between atoms: C_14  and  C_15
REMARK    7  A    between atoms: C_16  and  C_17
REMARK    8  A    between atoms: N_20  and  C_21
REMARK    9  A    between atoms: C_21  and  C_22
REMARK   10  A    between atoms: C_22  and  N_23
REMARK   11  A    between atoms: C_22  and  C_24
REMARK   12  A    between atoms: C_24  and  S_25
REMARK                            x       y       z     vdW  Elec       q    Type
REMARK                         _______ _______ _______ _____ _____    ______ ____
ROOT
ATOM      1  C   UNL     1       7.062   5.474  16.046  0.00  0.00    +0.000 C 
ATOM      2  C   UNL     1       7.013   4.649  17.371  0.00  0.00    +0.000 C 
ATOM      3  N   UNL     1       5.647   4.494  17.876  0.00  0.00    +0.000 N 
ATOM      4  C   UNL     1       5.400   4.596  19.249  0.00  0.00    +0.000 C 
ATOM      5  O   UNL     1       6.304   4.708  20.074  0.00  0.00    +0.000 OA
ATOM      6  C   UNL     1       4.713   3.956  16.884  0.00  0.00    +0.000 C 
ATOM      7  C   UNL     1       4.737   4.816  15.609  0.00  0.00    +0.000 C 
ATOM      8  N   UNL     1       6.079   4.998  15.002  0.00  0.00    +0.000 NA
ENDROOT
BRANCH   4   9
ATOM      9  C   UNL     1       3.985   4.655  19.719  0.00  0.00    +0.000 A 
ATOM     10  C   UNL     1       3.328   5.898  19.643  0.00  0.00    +0.000 A 
ATOM     11  C   UNL     1       2.012   6.025  20.076  0.00  0.00    +0.000 A 
ATOM     12  C   UNL     1       1.378   4.941  20.675  0.00  0.00    +0.000 A 
ATOM     13  C   UNL     1       2.037   3.711  20.835  0.00  0.00    +0.000 A 
ATOM     14  C   UNL     1       1.301   2.610  21.549  0.00  0.00    +0.000 C 
ATOM     15  C   UNL     1       3.339   3.541  20.304  0.00  0.00    +0.000 A 
ATOM     16  C   UNL     1       4.041   2.206  20.358  0.00  0.00    +0.000 C 
ENDBRANCH   4   9
BRANCH   1  17
ATOM     17  C   UNL     1       6.916   7.003  16.285  0.00  0.00    +0.000 C 
BRANCH  17  18
ATOM     18  C   UNL     1       7.653   7.452  17.560  0.00  0.00    +0.000 C 
BRANCH  18  20
ATOM     19  C   UNL     1       8.831   9.295  18.781  0.00  0.00    +0.000 C 
ATOM     20  C   UNL     1       7.819   8.966  17.688  0.00  0.00    +0.000 C 
ENDBRANCH  18  20
ENDBRANCH  17  18
ENDBRANCH   1  17
BRANCH   8  21
ATOM     21  C   UNL     1       6.591   3.745  14.387  0.00  0.00    +0.000 C 
BRANCH  21  22
ATOM     22  C   UNL     1       6.201   3.485  12.898  0.00  0.00    +0.000 C 
BRANCH  22  23
ATOM     23  N   UNL     1       4.835   3.952  12.580  0.00  0.00    +0.000 NA
ATOM     24  H   UNL     1       4.690   4.855  13.035  0.00  0.00    +0.000 HD
ATOM     25  H   UNL     1       4.175   3.342  13.067  0.00  0.00    +0.000 HD
ENDBRANCH  22  23
BRANCH  22  26
ATOM     26  C   UNL     1       7.247   4.080  11.927  0.00  0.00    +0.000 C 
BRANCH  26  27
ATOM     27  S   UNL     1       8.078   5.590  12.519  0.00  0.00    +0.000 S 
ATOM     28  H   UNL     1       7.014   6.393  12.372  0.00  0.00    +0.000 HD
ENDBRANCH  26  27
ENDBRANCH  22  26
ENDBRANCH  21  22
ENDBRANCH   8  21
TORSDOF 9
ENDMDL
MODEL 5
REMARK VINA RESULT:      -6.0      3.068      7.125
REMARK  Name = 
REMARK  12 active torsions:
REMARK  status: ('A' for Active; 'I' for Inactive)
REMARK    1  A    between atoms: C_1  and  C_2
REMARK    2  A    between atoms: C_2  and  C_3
REMARK    3  A    between atoms: C_3  and  C_4
REMARK    4  A    between atoms: C_4  and  C_5
REMARK    5  A    between atoms: C_8  and  C_10
REMARK    6  A    between atoms: C_14  and  C_15
REMARK    7  A    between atoms: C_16  and  C_17
REMARK    8  A    between atoms: N_20  and  C_21
REMARK    9  A    between atoms: C_21  and  C_22
REMARK   10  A    between atoms: C_22  and  N_23
REMARK   11  A    between atoms: C_22  and  C_24
REMARK   12  A    between atoms: C_24  and  S_25
REMARK                            x       y       z     vdW  Elec       q    Type
REMARK                         _______ _______ _______ _____ _____    ______ ____
ROOT
ATOM      1  C   UNL     1       4.583   4.570  19.277  0.00  0.00    +0.000 C 
ATOM      2  C   UNL     1       5.984   5.036  18.768  0.00  0.00    +0.000 C 
ATOM      3  N   UNL     1       6.036   5.140  17.308  0.00  0.00    +0.000 N 
ATOM      4  C   UNL     1       7.177   4.711  16.623  0.00  0.00    +0.000 C 
ATOM      5  O   UNL     1       8.194   4.342  17.205  0.00  0.00    +0.000 OA
ATOM      6  C   UNL     1       4.966   5.965  16.740  0.00  0.00    +0.000 C 
ATOM      7  C   UNL     1       3.594   5.453  17.210  0.00  0.00    +0.000 C 
ATOM      8  N   UNL     1       3.435   5.350  18.682  0.00  0.00    +0.000 NA
ENDROOT
BRANCH   4   9
ATOM      9  C   UNL     1       7.126   4.619  15.134  0.00  0.00    +0.000 A 
ATOM     10  C   UNL     1       7.982   5.464  14.402  0.00  0.00    +0.000 A 
ATOM     11  C   UNL     1       7.974   5.437  13.011  0.00  0.00    +0.000 A 
ATOM     12  C   UNL     1       7.048   4.641  12.344  0.00  0.00    +0.000 A 
ATOM     13  C   UNL     1       6.129   3.849  13.050  0.00  0.00    +0.000 A 
ATOM     14  C   UNL     1       5.120   3.066  12.252  0.00  0.00    +0.000 C 
ATOM     15  C   UNL     1       6.198   3.789  14.464  0.00  0.00    +0.000 A 
ATOM     16  C   UNL     1       5.302   2.868  15.255  0.00  0.00    +0.000 C 
ENDBRANCH   4   9
BRANCH   1  17
ATOM     17  C   UNL     1       4.360   3.041  19.103  0.00  0.00    +0.000 C 
BRANCH  17  18
ATOM     18  C   UNL     1       3.045   2.580  19.757  0.00  0.00    +0.000 C 
BRANCH  18  20
ATOM     19  C   UNL     1       0.674   2.731  18.962  0.00  0.00    +0.000 C 
ATOM     20  C   UNL     1       2.015   2.028  18.772  0.00  0.00    +0.000 C 
ENDBRANCH  18  20
ENDBRANCH  17  18
ENDBRANCH   1  17
BRANCH   8  21
ATOM     21  C   UNL     1       3.365   6.685  19.333  0.00  0.00    +0.000 C 
BRANCH  21  22
ATOM     22  C   UNL     1       1.963   7.143  19.843  0.00  0.00    +0.000 C 
BRANCH  22  23
ATOM     23  N   UNL     1       1.706   6.736  21.241  0.00  0.00    +0.000 NA
ATOM     24  H   UNL     1       0.704   6.567  21.348  0.00  0.00    +0.000 HD
ATOM     25  H   UNL     1       1.865   7.550  21.837  0.00  0.00    +0.000 HD
ENDBRANCH  22  23
BRANCH  22  26
ATOM     26  C   UNL     1       1.757   8.663  19.647  0.00  0.00    +0.000 C 
BRANCH  26  27
ATOM     27  S   UNL     1       1.789   9.228  17.914  0.00  0.00    +0.000 S 
ATOM     28  H   UNL     1       0.498   9.588  17.868  0.00  0.00    +0.000 HD
ENDBRANCH  26  27
ENDBRANCH  22  26
ENDBRANCH  21  22
ENDBRANCH   8  21
TORSDOF 9
ENDMDL
MODEL 6
REMARK VINA RESULT:      -6.0      3.803      7.499
REMARK  Name = 
REMARK  12 active torsions:
REMARK  status: ('A' for Active; 'I' for Inactive)
REMARK    1  A    between atoms: C_1  and  C_2
REMARK    2  A    between atoms: C_2  and  C_3
REMARK    3  A    between atoms: C_3  and  C_4
REMARK    4  A    between atoms: C_4  and  C_5
REMARK    5  A    between atoms: C_8  and  C_10
REMARK    6  A    between atoms: C_14  and  C_15
REMARK    7  A    between atoms: C_16  and  C_17
REMARK    8  A    between atoms: N_20  and  C_21
REMARK    9  A    between atoms: C_21  and  C_22
REMARK   10  A    between atoms: C_22  and  N_23
REMARK   11  A    between atoms: C_22  and  C_24
REMARK   12  A    between atoms: C_24  and  S_25
REMARK                            x       y       z     vdW  Elec       q    Type
REMARK                         _______ _______ _______ _____ _____    ______ ____
ROOT
ATOM      1  C   UNL     1       1.663   5.382  20.463  0.00  0.00    +0.000 C 
ATOM      2  C   UNL     1       3.117   4.875  20.724  0.00  0.00    +0.000 C 
ATOM      3  N   UNL     1       3.996   5.096  19.574  0.00  0.00    +0.000 N 
ATOM      4  C   UNL     1       4.921   4.113  19.209  0.00  0.00    +0.000 C 
ATOM      5  O   UNL     1       5.105   3.101  19.881  0.00  0.00    +0.000 OA
ATOM      6  C   UNL     1       3.997   6.481  19.095  0.00  0.00    +0.000 C 
ATOM      7  C   UNL     1       2.560   6.939  18.791  0.00  0.00    +0.000 C 
ATOM      8  N   UNL     1       1.604   6.788  19.915  0.00  0.00    +0.000 NA
ENDROOT
BRANCH   4   9
ATOM      9  C   UNL     1       5.647   4.259  17.913  0.00  0.00    +0.000 A 
ATOM     10  C   UNL     1       6.995   4.660  17.967  0.00  0.00    +0.000 A 
ATOM     11  C   UNL     1       7.726   4.828  16.794  0.00  0.00    +0.000 A 
ATOM     12  C   UNL     1       7.091   4.692  15.564  0.00  0.00    +0.000 A 
ATOM     13  C   UNL     1       5.726   4.371  15.482  0.00  0.00    +0.000 A 
ATOM     14  C   UNL     1       5.103   4.304  14.113  0.00  0.00    +0.000 C 
ATOM     15  C   UNL     1       5.000   4.095  16.666  0.00  0.00    +0.000 A 
ATOM     16  C   UNL     1       3.562   3.641  16.617  0.00  0.00    +0.000 C 
ENDBRANCH   4   9
BRANCH   1  17
ATOM     17  C   UNL     1       0.840   4.407  19.575  0.00  0.00    +0.000 C 
BRANCH  17  18
ATOM     18  C   UNL     1       1.007   2.945  20.027  0.00  0.00    +0.000 C 
BRANCH  18  20
ATOM     19  C   UNL     1       2.521   1.413  18.748  0.00  0.00    +0.000 C 
ATOM     20  C   UNL     1       1.095   1.940  18.879  0.00  0.00    +0.000 C 
ENDBRANCH  18  20
ENDBRANCH  17  18
ENDBRANCH   1  17
BRANCH   8  21
ATOM     21  C   UNL     1       1.874   7.751  21.016  0.00  0.00    +0.000 C 
BRANCH  21  22
ATOM     22  C   UNL     1       0.840   8.903  21.208  0.00  0.00    +0.000 C 
BRANCH  22  23
ATOM     23  N   UNL     1       1.033   9.633  22.479  0.00  0.00    +0.000 NA
ATOM     24  H   UNL     1       1.715  10.378  22.322  0.00  0.00    +0.000 HD
ATOM     25  H   UNL     1       1.520   9.010  23.126  0.00  0.00    +0.000 HD
ENDBRANCH  22  23
BRANCH  22  26
ATOM     26  C   UNL     1       0.830   9.864  19.996  0.00  0.00    +0.000 C 
BRANCH  26  27
ATOM     27  S   UNL     1      -0.768  10.679  19.672  0.00  0.00    +0.000 S 
ATOM     28  H   UNL     1      -0.683  11.547  20.692  0.00  0.00    +0.000 HD
ENDBRANCH  26  27
ENDBRANCH  22  26
ENDBRANCH  21  22
ENDBRANCH   8  21
TORSDOF 9
ENDMDL
MODEL 7
REMARK VINA RESULT:      -6.0      2.565      5.159
REMARK  Name = 
REMARK  12 active torsions:
REMARK  status: ('A' for Active; 'I' for Inactive)
REMARK    1  A    between atoms: C_1  and  C_2
REMARK    2  A    between atoms: C_2  and  C_3
REMARK    3  A    between atoms: C_3  and  C_4
REMARK    4  A    between atoms: C_4  and  C_5
REMARK    5  A    between atoms: C_8  and  C_10
REMARK    6  A    between atoms: C_14  and  C_15
REMARK    7  A    between atoms: C_16  and  C_17
REMARK    8  A    between atoms: N_20  and  C_21
REMARK    9  A    between atoms: C_21  and  C_22
REMARK   10  A    between atoms: C_22  and  N_23
REMARK   11  A    between atoms: C_22  and  C_24
REMARK   12  A    between atoms: C_24  and  S_25
REMARK                            x       y       z     vdW  Elec       q    Type
REMARK                         _______ _______ _______ _____ _____    ______ ____
ROOT
ATOM      1  C   UNL     1       5.047   3.446  18.531  0.00  0.00    +0.000 C 
ATOM      2  C   UNL     1       4.026   4.123  17.562  0.00  0.00    +0.000 C 
ATOM      3  N   UNL     1       3.664   5.474  17.996  0.00  0.00    +0.000 N 
ATOM      4  C   UNL     1       2.337   5.903  17.889  0.00  0.00    +0.000 C 
ATOM      5  O   UNL     1       1.468   5.226  17.345  0.00  0.00    +0.000 OA
ATOM      6  C   UNL     1       4.819   6.342  18.237  0.00  0.00    +0.000 C 
ATOM      7  C   UNL     1       5.782   5.680  19.237  0.00  0.00    +0.000 C 
ATOM      8  N   UNL     1       6.236   4.318  18.861  0.00  0.00    +0.000 NA
ENDROOT
BRANCH   4   9
ATOM      9  C   UNL     1       1.948   7.191  18.535  0.00  0.00    +0.000 A 
ATOM     10  C   UNL     1       1.919   8.341  17.724  0.00  0.00    +0.000 A 
ATOM     11  C   UNL     1       1.577   9.576  18.267  0.00  0.00    +0.000 A 
ATOM     12  C   UNL     1       1.357   9.687  19.637  0.00  0.00    +0.000 A 
ATOM     13  C   UNL     1       1.456   8.570  20.482  0.00  0.00    +0.000 A 
ATOM     14  C   UNL     1       1.264   8.789  21.958  0.00  0.00    +0.000 C 
ATOM     15  C   UNL     1       1.701   7.291  19.924  0.00  0.00    +0.000 A 
ATOM     16  C   UNL     1       1.708   6.049  20.782  0.00  0.00    +0.000 C 
ENDBRANCH   4   9
BRANCH   1  17
ATOM     17  C   UNL     1       4.378   2.912  19.829  0.00  0.00    +0.000 C 
BRANCH  17  18
ATOM     18  C   UNL     1       3.130   2.066  19.518  0.00  0.00    +0.000 C 
BRANCH  18  20
ATOM     19  C   UNL     1       2.119   2.658  21.732  0.00  0.00    +0.000 C 
ATOM     20  C   UNL     1       1.863   2.533  20.233  0.00  0.00    +0.000 C 
ENDBRANCH  18  20
ENDBRANCH  17  18
ENDBRANCH   1  17
BRANCH   8  21
ATOM     21  C   UNL     1       7.163   4.337  17.698  0.00  0.00    +0.000 C 
BRANCH  21  22
ATOM     22  C   UNL     1       6.632   5.004  16.390  0.00  0.00    +0.000 C 
BRANCH  22  23
ATOM     23  N   UNL     1       7.438   6.173  15.983  0.00  0.00    +0.000 NA
ATOM     24  H   UNL     1       7.322   6.905  16.686  0.00  0.00    +0.000 HD
ATOM     25  H   UNL     1       7.001   6.581  15.154  0.00  0.00    +0.000 HD
ENDBRANCH  22  23
BRANCH  22  26
ATOM     26  C   UNL     1       6.502   3.975  15.242  0.00  0.00    +0.000 C 
BRANCH  26  27
ATOM     27  S   UNL     1       6.843   4.632  13.577  0.00  0.00    +0.000 S 
ATOM     28  H   UNL     1       8.175   4.684  13.725  0.00  0.00    +0.000 HD
ENDBRANCH  26  27
ENDBRANCH  22  26
ENDBRANCH  21  22
ENDBRANCH   8  21
TORSDOF 9
ENDMDL
MODEL 8
REMARK VINA RESULT:      -6.0      3.569      7.347
REMARK  Name = 
REMARK  12 active torsions:
REMARK  status: ('A' for Active; 'I' for Inactive)
REMARK    1  A    between atoms: C_1  and  C_2
REMARK    2  A    between atoms: C_2  and  C_3
REMARK    3  A    between atoms: C_3  and  C_4
REMARK    4  A    between atoms: C_4  and  C_5
REMARK    5  A    between atoms: C_8  and  C_10
REMARK    6  A    between atoms: C_14  and  C_15
REMARK    7  A    between atoms: C_16  and  C_17
REMARK    8  A    between atoms: N_20  and  C_21
REMARK    9  A    between atoms: C_21  and  C_22
REMARK   10  A    between atoms: C_22  and  N_23
REMARK   11  A    between atoms: C_22  and  C_24
REMARK   12  A    between atoms: C_24  and  S_25
REMARK                            x       y       z     vdW  Elec       q    Type
REMARK                         _______ _______ _______ _____ _____    ______ ____
ROOT
ATOM      1  C   UNL     1       2.181   5.738  19.797  0.00  0.00    +0.000 C 
ATOM      2  C   UNL     1       3.723   5.535  19.927  0.00  0.00    +0.000 C 
ATOM      3  N   UNL     1       4.403   5.613  18.631  0.00  0.00    +0.000 N 
ATOM      4  C   UNL     1       5.442   4.724  18.340  0.00  0.00    +0.000 C 
ATOM      5  O   UNL     1       5.889   3.937  19.171  0.00  0.00    +0.000 OA
ATOM      6  C   UNL     1       4.091   6.830  17.879  0.00  0.00    +0.000 C 
ATOM      7  C   UNL     1       2.569   6.980  17.715  0.00  0.00    +0.000 C 
ATOM      8  N   UNL     1       1.798   6.951  18.983  0.00  0.00    +0.000 NA
ENDROOT
BRANCH   4   9
ATOM      9  C   UNL     1       5.969   4.673  16.944  0.00  0.00    +0.000 A 
ATOM     10  C   UNL     1       7.221   5.268  16.701  0.00  0.00    +0.000 A 
ATOM     11  C   UNL     1       7.764   5.266  15.419  0.00  0.00    +0.000 A 
ATOM     12  C   UNL     1       7.019   4.759  14.359  0.00  0.00    +0.000 A 
ATOM     13  C   UNL     1       5.733   4.232  14.560  0.00  0.00    +0.000 A 
ATOM     14  C   UNL     1       4.971   3.762  13.350  0.00  0.00    +0.000 C 
ATOM     15  C   UNL     1       5.216   4.134  15.875  0.00  0.00    +0.000 A 
ATOM     16  C   UNL     1       3.886   3.475  16.148  0.00  0.00    +0.000 C 
ENDBRANCH   4   9
BRANCH   1  17
ATOM     17  C   UNL     1       1.450   4.470  19.274  0.00  0.00    +0.000 C 
BRANCH  17  18
ATOM     18  C   UNL     1       2.045   3.183  19.874  0.00  0.00    +0.000 C 
BRANCH  18  20
ATOM     19  C   UNL     1       3.474   1.431  18.795  0.00  0.00    +0.000 C 
ATOM     20  C   UNL     1       2.060   1.993  18.915  0.00  0.00    +0.000 C 
ENDBRANCH  18  20
ENDBRANCH  17  18
ENDBRANCH   1  17
BRANCH   8  21
ATOM     21  C   UNL     1       2.016   8.175  19.801  0.00  0.00    +0.000 C 
BRANCH  21  22
ATOM     22  C   UNL     1       1.026   8.412  20.983  0.00  0.00    +0.000 C 
BRANCH  22  23
ATOM     23  N   UNL     1       1.719   8.722  22.251  0.00  0.00    +0.000 NA
ATOM     24  H   UNL     1       1.028   9.064  22.921  0.00  0.00    +0.000 HD
ATOM     25  H   UNL     1       2.309   9.541  22.092  0.00  0.00    +0.000 HD
ENDBRANCH  22  23
BRANCH  22  26
ATOM     26  C   UNL     1      -0.027   9.490  20.633  0.00  0.00    +0.000 C 
BRANCH  26  27
ATOM     27  S   UNL     1       0.633  11.177  20.440  0.00  0.00    +0.000 S 
ATOM     28  H   UNL     1      -0.525  11.803  20.699  0.00  0.00    +0.000 HD
ENDBRANCH  26  27
ENDBRANCH  22  26
ENDBRANCH  21  22
ENDBRANCH   8  21
TORSDOF 9
ENDMDL
MODEL 9
REMARK VINA RESULT:      -5.9      3.655      7.628
REMARK  Name = 
REMARK  12 active torsions:
REMARK  status: ('A' for Active; 'I' for Inactive)
REMARK    1  A    between atoms: C_1  and  C_2
REMARK    2  A    between atoms: C_2  and  C_3
REMARK    3  A    between atoms: C_3  and  C_4
REMARK    4  A    between atoms: C_4  and  C_5
REMARK    5  A    between atoms: C_8  and  C_10
REMARK    6  A    between atoms: C_14  and  C_15
REMARK    7  A    between atoms: C_16  and  C_17
REMARK    8  A    between atoms: N_20  and  C_21
REMARK    9  A    between atoms: C_21  and  C_22
REMARK   10  A    between atoms: C_22  and  N_23
REMARK   11  A    between atoms: C_22  and  C_24
REMARK   12  A    between atoms: C_24  and  S_25
REMARK                            x       y       z     vdW  Elec       q    Type
REMARK                         _______ _______ _______ _____ _____    ______ ____
ROOT
ATOM      1  C   UNL     1       2.318   5.612  20.033  0.00  0.00    +0.000 C 
ATOM      2  C   UNL     1       3.872   5.502  19.922  0.00  0.00    +0.000 C 
ATOM      3  N   UNL     1       4.331   5.528  18.531  0.00  0.00    +0.000 N 
ATOM      4  C   UNL     1       5.367   4.680  18.128  0.00  0.00    +0.000 C 
ATOM      5  O   UNL     1       5.989   3.977  18.921  0.00  0.00    +0.000 OA
ATOM      6  C   UNL     1       3.825   6.672  17.768  0.00  0.00    +0.000 C 
ATOM      7  C   UNL     1       2.290   6.727  17.845  0.00  0.00    +0.000 C 
ATOM      8  N   UNL     1       1.733   6.743  19.220  0.00  0.00    +0.000 NA
ENDROOT
BRANCH   4   9
ATOM      9  C   UNL     1       5.668   4.561  16.671  0.00  0.00    +0.000 A 
ATOM     10  C   UNL     1       4.932   3.617  15.931  0.00  0.00    +0.000 A 
ATOM     11  C   UNL     1       5.172   3.447  14.571  0.00  0.00    +0.000 A 
ATOM     12  C   UNL     1       6.211   4.147  13.964  0.00  0.00    +0.000 A 
ATOM     13  C   UNL     1       7.013   5.036  14.697  0.00  0.00    +0.000 A 
ATOM     14  C   UNL     1       8.155   5.705  13.979  0.00  0.00    +0.000 C 
ATOM     15  C   UNL     1       6.710   5.294  16.057  0.00  0.00    +0.000 A 
ATOM     16  C   UNL     1       7.478   6.323  16.851  0.00  0.00    +0.000 C 
ENDBRANCH   4   9
BRANCH   1  17
ATOM     17  C   UNL     1       1.598   4.272  19.711  0.00  0.00    +0.000 C 
BRANCH  17  18
ATOM     18  C   UNL     1       2.384   3.061  20.248  0.00  0.00    +0.000 C 
BRANCH  18  20
ATOM     19  C   UNL     1       2.204   2.459  17.823  0.00  0.00    +0.000 C 
ATOM     20  C   UNL     1       2.717   2.011  19.188  0.00  0.00    +0.000 C 
ENDBRANCH  18  20
ENDBRANCH  17  18
ENDBRANCH   1  17
BRANCH   8  21
ATOM     21  C   UNL     1       1.998   8.030  19.918  0.00  0.00    +0.000 C 
BRANCH  21  22
ATOM     22  C   UNL     1       1.051   8.390  21.105  0.00  0.00    +0.000 C 
BRANCH  22  23
ATOM     23  N   UNL     1       1.790   8.825  22.309  0.00  0.00    +0.000 NA
ATOM     24  H   UNL     1       2.348   8.038  22.646  0.00  0.00    +0.000 HD
ATOM     25  H   UNL     1       1.112   8.963  23.060  0.00  0.00    +0.000 HD
ENDBRANCH  22  23
BRANCH  22  26
ATOM     26  C   UNL     1      -0.014   9.430  20.685  0.00  0.00    +0.000 C 
BRANCH  26  27
ATOM     27  S   UNL     1      -0.420  10.673  21.955  0.00  0.00    +0.000 S 
ATOM     28  H   UNL     1       0.704  11.389  21.803  0.00  0.00    +0.000 HD
ENDBRANCH  26  27
ENDBRANCH  22  26
ENDBRANCH  21  22
ENDBRANCH   8  21
TORSDOF 9
ENDMDL
