MODEL 1
REMARK VINA RESULT:      -7.8      0.000      0.000
REMARK  Name = 
REMARK  8 active torsions:
REMARK  status: ('A' for Active; 'I' for Inactive)
REMARK    1  A    between atoms: C_1  and  O_2
REMARK    2  A    between atoms: O_2  and  C_3
REMARK    3  A    between atoms: C_7  and  C_8
REMARK    4  A    between atoms: N_12  and  N_13
REMARK    5  A    between atoms: C_16  and  C_17
REMARK    6  A    between atoms: C_18  and  C_19
REMARK    7  A    between atoms: C_19  and  C_20
REMARK    8  A    between atoms: C_26  and  O_27
REMARK                            x       y       z     vdW  Elec       q    Type
REMARK                         _______ _______ _______ _____ _____    ______ ____
ROOT
ATOM      1  C   UNL     1       3.897   4.861  19.374  0.00  0.00    +0.000 C 
ATOM      2  C   UNL     1       3.040   5.887  19.483  0.00  0.00    +0.000 C 
ATOM      3  S   UNL     1       1.900   6.060  20.780  0.00  0.00    +0.000 S 
ATOM      4  C   UNL     1       1.562   7.725  20.361  0.00  0.00    +0.000 C 
ATOM      5  N   UNL     1       0.829   8.504  21.080  0.00  0.00    +0.000 NA
ATOM      6  N   UNL     1       2.194   8.052  19.208  0.00  0.00    +0.000 N 
ATOM      7  C   UNL     1       2.993   7.114  18.627  0.00  0.00    +0.000 C 
ATOM      8  O   UNL     1       3.554   7.288  17.565  0.00  0.00    +0.000 OA
ATOM      9  H   UNL     1       2.145   8.976  18.808  0.00  0.00    +0.000 HD
ENDROOT
BRANCH   5  10
ATOM     10  N   UNL     1       0.612   9.775  20.582  0.00  0.00    +0.000 N 
ATOM     11  C   UNL     1      -0.348  10.601  21.089  0.00  0.00    +0.000 A 
ATOM     12  N   UNL     1      -0.973  11.485  20.345  0.00  0.00    +0.000 NA
ATOM     13  C   UNL     1      -1.916  12.177  21.093  0.00  0.00    +0.000 A 
ATOM     14  C   UNL     1      -2.798  13.148  20.388  0.00  0.00    +0.000 C 
ATOM     15  C   UNL     1      -1.929  11.873  22.448  0.00  0.00    +0.000 A 
ATOM     16  S   UNL     1      -0.815  10.608  22.743  0.00  0.00    +0.000 S 
ATOM     17  H   UNL     1       0.636   9.855  19.564  0.00  0.00    +0.000 HD
BRANCH  15  18
ATOM     18  C   UNL     1      -2.749  12.485  23.483  0.00  0.00    +0.000 C 
ATOM     19  C   UNL     1      -2.484  13.897  23.950  0.00  0.00    +0.000 C 
ATOM     20  O   UNL     1      -3.694  11.882  24.004  0.00  0.00    +0.000 OA
ENDBRANCH  15  18
ENDBRANCH   5  10
BRANCH   1  25
ATOM     21  C   UNL     1       6.070   4.115  16.358  0.00  0.00    +0.000 A 
ATOM     22  C   UNL     1       7.288   4.640  16.807  0.00  0.00    +0.000 A 
ATOM     23  C   UNL     1       7.382   5.291  18.039  0.00  0.00    +0.000 A 
ATOM     24  C   UNL     1       6.257   5.402  18.855  0.00  0.00    +0.000 A 
ATOM     25  C   UNL     1       5.031   4.880  18.433  0.00  0.00    +0.000 A 
ATOM     26  C   UNL     1       4.931   4.278  17.157  0.00  0.00    +0.000 A 
BRANCH  21  28
ATOM     27  C   UNL     1       6.483   4.336  14.022  0.00  0.00    +0.000 C 
ATOM     28  O   UNL     1       6.155   3.506  15.131  0.00  0.00    +0.000 OA
ENDBRANCH  21  28
BRANCH  26  29
ATOM     29  O   UNL     1       3.709   3.856  16.693  0.00  0.00    +0.000 OA
ATOM     30  H   UNL     1       3.013   4.126  17.313  0.00  0.00    +0.000 HD
ENDBRANCH  26  29
ENDBRANCH   1  25
TORSDOF 5
ENDMDL
MODEL 2
REMARK VINA RESULT:      -7.6      6.590      8.519
REMARK  Name = 
REMARK  8 active torsions:
REMARK  status: ('A' for Active; 'I' for Inactive)
REMARK    1  A    between atoms: C_1  and  O_2
REMARK    2  A    between atoms: O_2  and  C_3
REMARK    3  A    between atoms: C_7  and  C_8
REMARK    4  A    between atoms: N_12  and  N_13
REMARK    5  A    between atoms: C_16  and  C_17
REMARK    6  A    between atoms: C_18  and  C_19
REMARK    7  A    between atoms: C_19  and  C_20
REMARK    8  A    between atoms: C_26  and  O_27
REMARK                            x       y       z     vdW  Elec       q    Type
REMARK                         _______ _______ _______ _____ _____    ______ ____
ROOT
ATOM      1  C   UNL     1       4.630   4.375  16.556  0.00  0.00    +0.000 C 
ATOM      2  C   UNL     1       5.613   5.181  16.984  0.00  0.00    +0.000 C 
ATOM      3  S   UNL     1       6.355   6.404  16.001  0.00  0.00    +0.000 S 
ATOM      4  C   UNL     1       7.131   7.149  17.382  0.00  0.00    +0.000 C 
ATOM      5  N   UNL     1       7.777   8.262  17.320  0.00  0.00    +0.000 NA
ATOM      6  N   UNL     1       6.928   6.397  18.491  0.00  0.00    +0.000 N 
ATOM      7  C   UNL     1       6.149   5.286  18.378  0.00  0.00    +0.000 C 
ATOM      8  O   UNL     1       5.956   4.515  19.296  0.00  0.00    +0.000 OA
ATOM      9  H   UNL     1       7.275   6.668  19.398  0.00  0.00    +0.000 HD
ENDROOT
BRANCH   5  10
ATOM     10  N   UNL     1       8.381   8.688  18.488  0.00  0.00    +0.000 N 
ATOM     11  C   UNL     1       8.923   9.934  18.615  0.00  0.00    +0.000 A 
ATOM     12  N   UNL     1       9.957  10.169  19.389  0.00  0.00    +0.000 NA
ATOM     13  C   UNL     1      10.328  11.506  19.319  0.00  0.00    +0.000 A 
ATOM     14  C   UNL     1      11.552  11.936  20.051  0.00  0.00    +0.000 C 
ATOM     15  C   UNL     1       9.493  12.308  18.553  0.00  0.00    +0.000 A 
ATOM     16  S   UNL     1       8.300  11.324  17.819  0.00  0.00    +0.000 S 
ATOM     17  H   UNL     1       8.982   8.000  18.945  0.00  0.00    +0.000 HD
BRANCH  15  18
ATOM     18  C   UNL     1       9.585  13.747  18.357  0.00  0.00    +0.000 C 
ATOM     19  C   UNL     1      10.623  14.340  17.434  0.00  0.00    +0.000 C 
ATOM     20  O   UNL     1       8.815  14.530  18.924  0.00  0.00    +0.000 OA
ENDBRANCH  15  18
ENDBRANCH   5  10
BRANCH   1  25
ATOM     21  C   UNL     1       2.264   3.371  19.344  0.00  0.00    +0.000 A 
ATOM     22  C   UNL     1       2.581   2.012  19.447  0.00  0.00    +0.000 A 
ATOM     23  C   UNL     1       3.495   1.417  18.574  0.00  0.00    +0.000 A 
ATOM     24  C   UNL     1       4.127   2.186  17.599  0.00  0.00    +0.000 A 
ATOM     25  C   UNL     1       3.834   3.548  17.481  0.00  0.00    +0.000 A 
ATOM     26  C   UNL     1       2.862   4.128  18.327  0.00  0.00    +0.000 A 
BRANCH  21  28
ATOM     27  C   UNL     1       1.138   2.941  21.399  0.00  0.00    +0.000 C 
ATOM     28  O   UNL     1       1.354   3.794  20.280  0.00  0.00    +0.000 OA
ENDBRANCH  21  28
BRANCH  26  29
ATOM     29  O   UNL     1       2.493   5.439  18.149  0.00  0.00    +0.000 OA
ATOM     30  H   UNL     1       1.601   5.579  18.506  0.00  0.00    +0.000 HD
ENDBRANCH  26  29
ENDBRANCH   1  25
TORSDOF 5
ENDMDL
MODEL 3
REMARK VINA RESULT:      -7.4      1.181      1.764
REMARK  Name = 
REMARK  8 active torsions:
REMARK  status: ('A' for Active; 'I' for Inactive)
REMARK    1  A    between atoms: C_1  and  O_2
REMARK    2  A    between atoms: O_2  and  C_3
REMARK    3  A    between atoms: C_7  and  C_8
REMARK    4  A    between atoms: N_12  and  N_13
REMARK    5  A    between atoms: C_16  and  C_17
REMARK    6  A    between atoms: C_18  and  C_19
REMARK    7  A    between atoms: C_19  and  C_20
REMARK    8  A    between atoms: C_26  and  O_27
REMARK                            x       y       z     vdW  Elec       q    Type
REMARK                         _______ _______ _______ _____ _____    ______ ____
ROOT
ATOM      1  C   UNL     1       3.327   4.547  19.284  0.00  0.00    +0.000 C 
ATOM      2  C   UNL     1       2.640   5.675  19.517  0.00  0.00    +0.000 C 
ATOM      3  S   UNL     1       1.643   5.926  20.916  0.00  0.00    +0.000 S 
ATOM      4  C   UNL     1       1.516   7.644  20.610  0.00  0.00    +0.000 C 
ATOM      5  N   UNL     1       0.963   8.473  21.427  0.00  0.00    +0.000 NA
ATOM      6  N   UNL     1       2.095   7.949  19.423  0.00  0.00    +0.000 N 
ATOM      7  C   UNL     1       2.703   6.946  18.730  0.00  0.00    +0.000 C 
ATOM      8  O   UNL     1       3.196   7.104  17.632  0.00  0.00    +0.000 OA
ATOM      9  H   UNL     1       2.149   8.894  19.075  0.00  0.00    +0.000 HD
ENDROOT
BRANCH   5  10
ATOM     10  N   UNL     1       0.893   9.790  21.013  0.00  0.00    +0.000 N 
ATOM     11  C   UNL     1      -0.108  10.626  21.413  0.00  0.00    +0.000 A 
ATOM     12  N   UNL     1      -0.550  11.600  20.651  0.00  0.00    +0.000 NA
ATOM     13  C   UNL     1      -1.584  12.283  21.278  0.00  0.00    +0.000 A 
ATOM     14  C   UNL     1      -2.282  13.356  20.517  0.00  0.00    +0.000 C 
ATOM     15  C   UNL     1      -1.855  11.874  22.577  0.00  0.00    +0.000 A 
ATOM     16  S   UNL     1      -0.866  10.529  22.952  0.00  0.00    +0.000 S 
ATOM     17  H   UNL     1       1.104   9.949  20.026  0.00  0.00    +0.000 HD
BRANCH  15  18
ATOM     18  C   UNL     1      -2.822  12.447  23.500  0.00  0.00    +0.000 C 
ATOM     19  C   UNL     1      -2.650  13.851  24.033  0.00  0.00    +0.000 C 
ATOM     20  O   UNL     1      -3.820  11.819  23.869  0.00  0.00    +0.000 OA
ENDBRANCH  15  18
ENDBRANCH   5  10
BRANCH   1  25
ATOM     21  C   UNL     1       6.544   5.167  17.374  0.00  0.00    +0.000 A 
ATOM     22  C   UNL     1       6.211   4.577  16.149  0.00  0.00    +0.000 A 
ATOM     23  C   UNL     1       4.990   3.924  15.973  0.00  0.00    +0.000 A 
ATOM     24  C   UNL     1       4.068   3.875  17.018  0.00  0.00    +0.000 A 
ATOM     25  C   UNL     1       4.374   4.465  18.249  0.00  0.00    +0.000 A 
ATOM     26  C   UNL     1       5.637   5.069  18.438  0.00  0.00    +0.000 A 
BRANCH  21  28
ATOM     27  C   UNL     1       7.800   7.188  17.487  0.00  0.00    +0.000 C 
ATOM     28  O   UNL     1       7.777   5.769  17.375  0.00  0.00    +0.000 OA
ENDBRANCH  21  28
BRANCH  26  29
ATOM     29  O   UNL     1       5.984   5.557  19.675  0.00  0.00    +0.000 OA
ATOM     30  H   UNL     1       6.938   5.443  19.815  0.00  0.00    +0.000 HD
ENDBRANCH  26  29
ENDBRANCH   1  25
TORSDOF 5
ENDMDL
MODEL 4
REMARK VINA RESULT:      -7.2      3.134      4.154
REMARK  Name = 
REMARK  8 active torsions:
REMARK  status: ('A' for Active; 'I' for Inactive)
REMARK    1  A    between atoms: C_1  and  O_2
REMARK    2  A    between atoms: O_2  and  C_3
REMARK    3  A    between atoms: C_7  and  C_8
REMARK    4  A    between atoms: N_12  and  N_13
REMARK    5  A    between atoms: C_16  and  C_17
REMARK    6  A    between atoms: C_18  and  C_19
REMARK    7  A    between atoms: C_19  and  C_20
REMARK    8  A    between atoms: C_26  and  O_27
REMARK                            x       y       z     vdW  Elec       q    Type
REMARK                         _______ _______ _______ _____ _____    ______ ____
ROOT
ATOM      1  C   UNL     1       3.131   7.077  17.829  0.00  0.00    +0.000 C 
ATOM      2  C   UNL     1       2.475   8.080  18.430  0.00  0.00    +0.000 C 
ATOM      3  S   UNL     1       2.308   9.668  17.751  0.00  0.00    +0.000 S 
ATOM      4  C   UNL     1       1.071  10.114  18.907  0.00  0.00    +0.000 C 
ATOM      5  N   UNL     1       0.406  11.215  18.846  0.00  0.00    +0.000 NA
ATOM      6  N   UNL     1       0.923   9.133  19.829  0.00  0.00    +0.000 N 
ATOM      7  C   UNL     1       1.664   7.999  19.686  0.00  0.00    +0.000 C 
ATOM      8  O   UNL     1       1.647   7.090  20.489  0.00  0.00    +0.000 OA
ATOM      9  H   UNL     1       0.240   9.187  20.570  0.00  0.00    +0.000 HD
ENDROOT
BRANCH   5  10
ATOM     10  N   UNL     1      -0.497  11.444  19.867  0.00  0.00    +0.000 N 
ATOM     11  C   UNL     1      -1.818  11.689  19.629  0.00  0.00    +0.000 A 
ATOM     12  N   UNL     1      -2.539  12.455  20.415  0.00  0.00    +0.000 NA
ATOM     13  C   UNL     1      -3.839  12.562  19.938  0.00  0.00    +0.000 A 
ATOM     14  C   UNL     1      -4.774  13.481  20.646  0.00  0.00    +0.000 C 
ATOM     15  C   UNL     1      -4.123  11.780  18.826  0.00  0.00    +0.000 A 
ATOM     16  S   UNL     1      -2.687  11.001  18.316  0.00  0.00    +0.000 S 
ATOM     17  H   UNL     1      -0.163  12.050  20.619  0.00  0.00    +0.000 HD
BRANCH  15  18
ATOM     18  C   UNL     1      -5.406  11.630  18.157  0.00  0.00    +0.000 C 
ATOM     19  C   UNL     1      -5.884  12.655  17.155  0.00  0.00    +0.000 C 
ATOM     20  O   UNL     1      -6.141  10.659  18.370  0.00  0.00    +0.000 OA
ENDBRANCH  15  18
ENDBRANCH   5  10
BRANCH   1  25
ATOM     21  C   UNL     1       4.054   3.668  19.208  0.00  0.00    +0.000 A 
ATOM     22  C   UNL     1       2.912   2.945  18.842  0.00  0.00    +0.000 A 
ATOM     23  C   UNL     1       1.830   3.575  18.224  0.00  0.00    +0.000 A 
ATOM     24  C   UNL     1       1.887   4.938  17.937  0.00  0.00    +0.000 A 
ATOM     25  C   UNL     1       3.021   5.680  18.285  0.00  0.00    +0.000 A 
ATOM     26  C   UNL     1       4.085   5.048  18.967  0.00  0.00    +0.000 A 
BRANCH  21  28
ATOM     27  C   UNL     1       4.580   1.779  20.562  0.00  0.00    +0.000 C 
ATOM     28  O   UNL     1       5.023   2.897  19.800  0.00  0.00    +0.000 OA
ENDBRANCH  21  28
BRANCH  26  29
ATOM     29  O   UNL     1       5.155   5.790  19.404  0.00  0.00    +0.000 OA
ATOM     30  H   UNL     1       4.869   6.390  20.113  0.00  0.00    +0.000 HD
ENDBRANCH  26  29
ENDBRANCH   1  25
TORSDOF 5
ENDMDL
MODEL 5
REMARK VINA RESULT:      -7.2      3.332     10.469
REMARK  Name = 
REMARK  8 active torsions:
REMARK  status: ('A' for Active; 'I' for Inactive)
REMARK    1  A    between atoms: C_1  and  O_2
REMARK    2  A    between atoms: O_2  and  C_3
REMARK    3  A    between atoms: C_7  and  C_8
REMARK    4  A    between atoms: N_12  and  N_13
REMARK    5  A    between atoms: C_16  and  C_17
REMARK    6  A    between atoms: C_18  and  C_19
REMARK    7  A    between atoms: C_19  and  C_20
REMARK    8  A    between atoms: C_26  and  O_27
REMARK                            x       y       z     vdW  Elec       q    Type
REMARK                         _______ _______ _______ _____ _____    ______ ____
ROOT
ATOM      1  C   UNL     1      -1.264  12.207  20.216  0.00  0.00    +0.000 C 
ATOM      2  C   UNL     1      -0.635  11.023  20.241  0.00  0.00    +0.000 C 
ATOM      3  S   UNL     1       0.229  10.360  18.890  0.00  0.00    +0.000 S 
ATOM      4  C   UNL     1       0.994   9.137  19.882  0.00  0.00    +0.000 C 
ATOM      5  N   UNL     1       1.916   8.347  19.453  0.00  0.00    +0.000 NA
ATOM      6  N   UNL     1       0.486   9.175  21.139  0.00  0.00    +0.000 N 
ATOM      7  C   UNL     1      -0.432  10.137  21.431  0.00  0.00    +0.000 C 
ATOM      8  O   UNL     1      -0.989  10.216  22.506  0.00  0.00    +0.000 OA
ATOM      9  H   UNL     1       0.813   8.564  21.871  0.00  0.00    +0.000 HD
ENDROOT
BRANCH   5  10
ATOM     10  N   UNL     1       2.378   7.399  20.346  0.00  0.00    +0.000 N 
ATOM     11  C   UNL     1       2.200   6.061  20.144  0.00  0.00    +0.000 A 
ATOM     12  N   UNL     1       2.066   5.217  21.140  0.00  0.00    +0.000 NA
ATOM     13  C   UNL     1       1.873   3.925  20.666  0.00  0.00    +0.000 A 
ATOM     14  C   UNL     1       1.594   2.847  21.655  0.00  0.00    +0.000 C 
ATOM     15  C   UNL     1       1.963   3.786  19.288  0.00  0.00    +0.000 A 
ATOM     16  S   UNL     1       2.172   5.334  18.587  0.00  0.00    +0.000 S 
ATOM     17  H   UNL     1       2.235   7.622  21.332  0.00  0.00    +0.000 HD
BRANCH  15  18
ATOM     18  C   UNL     1       1.879   2.555  18.517  0.00  0.00    +0.000 C 
ATOM     19  C   UNL     1       3.129   1.833  18.069  0.00  0.00    +0.000 C 
ATOM     20  O   UNL     1       0.793   2.051  18.213  0.00  0.00    +0.000 OA
ENDBRANCH  15  18
ENDBRANCH   5  10
BRANCH   1  25
ATOM     21  C   UNL     1      -1.282  14.104  23.499  0.00  0.00    +0.000 A 
ATOM     22  C   UNL     1      -2.588  13.832  23.924  0.00  0.00    +0.000 A 
ATOM     23  C   UNL     1      -3.470  13.107  23.121  0.00  0.00    +0.000 A 
ATOM     24  C   UNL     1      -3.046  12.618  21.886  0.00  0.00    +0.000 A 
ATOM     25  C   UNL     1      -1.744  12.868  21.443  0.00  0.00    +0.000 A 
ATOM     26  C   UNL     1      -0.878  13.657  22.234  0.00  0.00    +0.000 A 
BRANCH  21  28
ATOM     27  C   UNL     1      -1.266  15.434  25.476  0.00  0.00    +0.000 C 
ATOM     28  O   UNL     1      -0.548  14.823  24.409  0.00  0.00    +0.000 OA
ENDBRANCH  21  28
BRANCH  26  29
ATOM     29  O   UNL     1       0.366  13.994  21.759  0.00  0.00    +0.000 OA
ATOM     30  H   UNL     1       0.478  14.958  21.791  0.00  0.00    +0.000 HD
ENDBRANCH  26  29
ENDBRANCH   1  25
TORSDOF 5
ENDMDL
MODEL 6
REMARK VINA RESULT:      -7.2      3.118      4.100
REMARK  Name = 
REMARK  8 active torsions:
REMARK  status: ('A' for Active; 'I' for Inactive)
REMARK    1  A    between atoms: C_1  and  O_2
REMARK    2  A    between atoms: O_2  and  C_3
REMARK    3  A    between atoms: C_7  and  C_8
REMARK    4  A    between atoms: N_12  and  N_13
REMARK    5  A    between atoms: C_16  and  C_17
REMARK    6  A    between atoms: C_18  and  C_19
REMARK    7  A    between atoms: C_19  and  C_20
REMARK    8  A    between atoms: C_26  and  O_27
REMARK                            x       y       z     vdW  Elec       q    Type
REMARK                         _______ _______ _______ _____ _____    ______ ____
ROOT
ATOM      1  C   UNL     1       3.678   5.762  17.646  0.00  0.00    +0.000 C 
ATOM      2  C   UNL     1       3.095   6.825  18.220  0.00  0.00    +0.000 C 
ATOM      3  S   UNL     1       3.056   8.406  17.506  0.00  0.00    +0.000 S 
ATOM      4  C   UNL     1       1.847   8.970  18.639  0.00  0.00    +0.000 C 
ATOM      5  N   UNL     1       1.268  10.117  18.549  0.00  0.00    +0.000 NA
ATOM      6  N   UNL     1       1.616   8.022  19.581  0.00  0.00    +0.000 N 
ATOM      7  C   UNL     1       2.269   6.833  19.468  0.00  0.00    +0.000 C 
ATOM      8  O   UNL     1       2.177   5.946  20.291  0.00  0.00    +0.000 OA
ATOM      9  H   UNL     1       0.933   8.144  20.313  0.00  0.00    +0.000 HD
ENDROOT
BRANCH   5  10
ATOM     10  N   UNL     1       0.376  10.436  19.556  0.00  0.00    +0.000 N 
ATOM     11  C   UNL     1      -0.888  10.878  19.295  0.00  0.00    +0.000 A 
ATOM     12  N   UNL     1      -1.515  11.710  20.094  0.00  0.00    +0.000 NA
ATOM     13  C   UNL     1      -2.772  12.022  19.590  0.00  0.00    +0.000 A 
ATOM     14  C   UNL     1      -3.586  13.039  20.311  0.00  0.00    +0.000 C 
ATOM     15  C   UNL     1      -3.130  11.332  18.440  0.00  0.00    +0.000 A 
ATOM     16  S   UNL     1      -1.807  10.372  17.934  0.00  0.00    +0.000 S 
ATOM     17  H   UNL     1       0.771  10.958  20.340  0.00  0.00    +0.000 HD
BRANCH  15  18
ATOM     18  C   UNL     1      -4.400  11.393  17.733  0.00  0.00    +0.000 C 
ATOM     19  C   UNL     1      -5.673  10.894  18.376  0.00  0.00    +0.000 C 
ATOM     20  O   UNL     1      -4.488  11.865  16.594  0.00  0.00    +0.000 OA
ENDBRANCH  15  18
ENDBRANCH   5  10
BRANCH   1  25
ATOM     21  C   UNL     1       4.297   2.367  19.219  0.00  0.00    +0.000 A 
ATOM     22  C   UNL     1       3.168   1.681  18.756  0.00  0.00    +0.000 A 
ATOM     23  C   UNL     1       2.186   2.333  18.008  0.00  0.00    +0.000 A 
ATOM     24  C   UNL     1       2.334   3.681  17.688  0.00  0.00    +0.000 A 
ATOM     25  C   UNL     1       3.457   4.387  18.131  0.00  0.00    +0.000 A 
ATOM     26  C   UNL     1       4.415   3.736  18.941  0.00  0.00    +0.000 A 
BRANCH  21  28
ATOM     27  C   UNL     1       4.872   1.390  21.315  0.00  0.00    +0.000 C 
ATOM     28  O   UNL     1       5.163   1.578  19.934  0.00  0.00    +0.000 OA
ENDBRANCH  21  28
BRANCH  26  29
ATOM     29  O   UNL     1       5.466   4.448  19.466  0.00  0.00    +0.000 OA
ATOM     30  H   UNL     1       5.853   3.959  20.210  0.00  0.00    +0.000 HD
ENDBRANCH  26  29
ENDBRANCH   1  25
TORSDOF 5
ENDMDL
MODEL 7
REMARK VINA RESULT:      -7.0      2.473     10.907
REMARK  Name = 
REMARK  8 active torsions:
REMARK  status: ('A' for Active; 'I' for Inactive)
REMARK    1  A    between atoms: C_1  and  O_2
REMARK    2  A    between atoms: O_2  and  C_3
REMARK    3  A    between atoms: C_7  and  C_8
REMARK    4  A    between atoms: N_12  and  N_13
REMARK    5  A    between atoms: C_16  and  C_17
REMARK    6  A    between atoms: C_18  and  C_19
REMARK    7  A    between atoms: C_19  and  C_20
REMARK    8  A    between atoms: C_26  and  O_27
REMARK                            x       y       z     vdW  Elec       q    Type
REMARK                         _______ _______ _______ _____ _____    ______ ____
ROOT
ATOM      1  C   UNL     1      -1.375  12.709  20.878  0.00  0.00    +0.000 C 
ATOM      2  C   UNL     1      -0.826  11.489  20.788  0.00  0.00    +0.000 C 
ATOM      3  S   UNL     1      -0.019  10.895  19.371  0.00  0.00    +0.000 S 
ATOM      4  C   UNL     1       0.670   9.540  20.240  0.00  0.00    +0.000 C 
ATOM      5  N   UNL     1       1.533   8.733  19.728  0.00  0.00    +0.000 NA
ATOM      6  N   UNL     1       0.176   9.498  21.501  0.00  0.00    +0.000 N 
ATOM      7  C   UNL     1      -0.674  10.488  21.891  0.00  0.00    +0.000 C 
ATOM      8  O   UNL     1      -1.215  10.507  22.977  0.00  0.00    +0.000 OA
ATOM      9  H   UNL     1       0.468   8.804  22.172  0.00  0.00    +0.000 HD
ENDROOT
BRANCH   5  10
ATOM     10  N   UNL     1       1.938   7.680  20.526  0.00  0.00    +0.000 N 
ATOM     11  C   UNL     1       2.098   6.416  20.038  0.00  0.00    +0.000 A 
ATOM     12  N   UNL     1       1.891   5.351  20.778  0.00  0.00    +0.000 NA
ATOM     13  C   UNL     1       2.096   4.193  20.038  0.00  0.00    +0.000 A 
ATOM     14  C   UNL     1       1.803   2.884  20.686  0.00  0.00    +0.000 C 
ATOM     15  C   UNL     1       2.560   4.396  18.746  0.00  0.00    +0.000 A 
ATOM     16  S   UNL     1       2.617   6.078  18.435  0.00  0.00    +0.000 S 
ATOM     17  H   UNL     1       1.507   7.642  21.451  0.00  0.00    +0.000 HD
BRANCH  15  18
ATOM     18  C   UNL     1       2.931   3.381  17.771  0.00  0.00    +0.000 C 
ATOM     19  C   UNL     1       4.375   3.174  17.377  0.00  0.00    +0.000 C 
ATOM     20  O   UNL     1       2.088   2.648  17.243  0.00  0.00    +0.000 OA
ENDBRANCH  15  18
ENDBRANCH   5  10
BRANCH   1  25
ATOM     21  C   UNL     1      -3.578  14.032  23.666  0.00  0.00    +0.000 A 
ATOM     22  C   UNL     1      -2.612  14.680  24.445  0.00  0.00    +0.000 A 
ATOM     23  C   UNL     1      -1.259  14.624  24.108  0.00  0.00    +0.000 A 
ATOM     24  C   UNL     1      -0.854  13.937  22.965  0.00  0.00    +0.000 A 
ATOM     25  C   UNL     1      -1.800  13.288  22.165  0.00  0.00    +0.000 A 
ATOM     26  C   UNL     1      -3.160  13.297  22.549  0.00  0.00    +0.000 A 
BRANCH  21  28
ATOM     27  C   UNL     1      -5.616  15.264  23.587  0.00  0.00    +0.000 C 
ATOM     28  O   UNL     1      -4.858  14.191  24.136  0.00  0.00    +0.000 OA
ENDBRANCH  21  28
BRANCH  26  29
ATOM     29  O   UNL     1      -4.080  12.576  21.827  0.00  0.00    +0.000 OA
ATOM     30  H   UNL     1      -4.557  13.167  21.222  0.00  0.00    +0.000 HD
ENDBRANCH  26  29
ENDBRANCH   1  25
TORSDOF 5
ENDMDL
MODEL 8
REMARK VINA RESULT:      -7.0      3.246     10.616
REMARK  Name = 
REMARK  8 active torsions:
REMARK  status: ('A' for Active; 'I' for Inactive)
REMARK    1  A    between atoms: C_1  and  O_2
REMARK    2  A    between atoms: O_2  and  C_3
REMARK    3  A    between atoms: C_7  and  C_8
REMARK    4  A    between atoms: N_12  and  N_13
REMARK    5  A    between atoms: C_16  and  C_17
REMARK    6  A    between atoms: C_18  and  C_19
REMARK    7  A    between atoms: C_19  and  C_20
REMARK    8  A    between atoms: C_26  and  O_27
REMARK                            x       y       z     vdW  Elec       q    Type
REMARK                         _______ _______ _______ _____ _____    ______ ____
ROOT
ATOM      1  C   UNL     1      -0.830  12.529  20.586  0.00  0.00    +0.000 C 
ATOM      2  C   UNL     1      -0.326  11.286  20.593  0.00  0.00    +0.000 C 
ATOM      3  S   UNL     1       0.102  10.410  19.158  0.00  0.00    +0.000 S 
ATOM      4  C   UNL     1       0.977   9.198  20.069  0.00  0.00    +0.000 C 
ATOM      5  N   UNL     1       1.683   8.270  19.522  0.00  0.00    +0.000 NA
ATOM      6  N   UNL     1       0.810   9.405  21.398  0.00  0.00    +0.000 N 
ATOM      7  C   UNL     1       0.088  10.491  21.792  0.00  0.00    +0.000 C 
ATOM      8  O   UNL     1      -0.169  10.730  22.954  0.00  0.00    +0.000 OA
ATOM      9  H   UNL     1       1.254   8.827  22.095  0.00  0.00    +0.000 HD
ENDROOT
BRANCH   5  10
ATOM     10  N   UNL     1       2.267   7.356  20.379  0.00  0.00    +0.000 N 
ATOM     11  C   UNL     1       2.187   6.010  20.172  0.00  0.00    +0.000 A 
ATOM     12  N   UNL     1       2.174   5.150  21.164  0.00  0.00    +0.000 NA
ATOM     13  C   UNL     1       2.061   3.851  20.687  0.00  0.00    +0.000 A 
ATOM     14  C   UNL     1       1.923   2.747  21.677  0.00  0.00    +0.000 C 
ATOM     15  C   UNL     1       2.089   3.729  19.304  0.00  0.00    +0.000 A 
ATOM     16  S   UNL     1       2.136   5.293  18.611  0.00  0.00    +0.000 S 
ATOM     17  H   UNL     1       2.159   7.560  21.374  0.00  0.00    +0.000 HD
BRANCH  15  18
ATOM     18  C   UNL     1       2.065   2.500  18.525  0.00  0.00    +0.000 C 
ATOM     19  C   UNL     1       3.346   1.790  18.155  0.00  0.00    +0.000 C 
ATOM     20  O   UNL     1       1.004   1.989  18.151  0.00  0.00    +0.000 OA
ENDBRANCH  15  18
ENDBRANCH   5  10
BRANCH   1  25
ATOM     21  C   UNL     1      -2.219  14.193  23.698  0.00  0.00    +0.000 A 
ATOM     22  C   UNL     1      -1.216  15.143  23.927  0.00  0.00    +0.000 A 
ATOM     23  C   UNL     1      -0.073  15.191  23.127  0.00  0.00    +0.000 A 
ATOM     24  C   UNL     1       0.071  14.301  22.063  0.00  0.00    +0.000 A 
ATOM     25  C   UNL     1      -0.920  13.348  21.808  0.00  0.00    +0.000 A 
ATOM     26  C   UNL     1      -2.044  13.266  22.661  0.00  0.00    +0.000 A 
BRANCH  21  28
ATOM     27  C   UNL     1      -4.222  15.319  24.325  0.00  0.00    +0.000 C 
ATOM     28  O   UNL     1      -3.273  14.287  24.571  0.00  0.00    +0.000 OA
ENDBRANCH  21  28
BRANCH  26  29
ATOM     29  O   UNL     1      -2.970  12.267  22.480  0.00  0.00    +0.000 OA
ATOM     30  H   UNL     1      -3.666  12.572  21.875  0.00  0.00    +0.000 HD
ENDBRANCH  26  29
ENDBRANCH   1  25
TORSDOF 5
ENDMDL
MODEL 9
REMARK VINA RESULT:      -7.0      2.476     10.872
REMARK  Name = 
REMARK  8 active torsions:
REMARK  status: ('A' for Active; 'I' for Inactive)
REMARK    1  A    between atoms: C_1  and  O_2
REMARK    2  A    between atoms: O_2  and  C_3
REMARK    3  A    between atoms: C_7  and  C_8
REMARK    4  A    between atoms: N_12  and  N_13
REMARK    5  A    between atoms: C_16  and  C_17
REMARK    6  A    between atoms: C_18  and  C_19
REMARK    7  A    between atoms: C_19  and  C_20
REMARK    8  A    between atoms: C_26  and  O_27
REMARK                            x       y       z     vdW  Elec       q    Type
REMARK                         _______ _______ _______ _____ _____    ______ ____
ROOT
ATOM      1  C   UNL     1      -1.276  13.183  20.917  0.00  0.00    +0.000 C 
ATOM      2  C   UNL     1      -0.793  11.935  20.836  0.00  0.00    +0.000 C 
ATOM      3  S   UNL     1       0.081  11.325  19.467  0.00  0.00    +0.000 S 
ATOM      4  C   UNL     1       0.625   9.914  20.348  0.00  0.00    +0.000 C 
ATOM      5  N   UNL     1       1.477   9.068  19.880  0.00  0.00    +0.000 NA
ATOM      6  N   UNL     1       0.038   9.874  21.569  0.00  0.00    +0.000 N 
ATOM      7  C   UNL     1      -0.780  10.904  21.921  0.00  0.00    +0.000 C 
ATOM      8  O   UNL     1      -1.398  10.932  22.966  0.00  0.00    +0.000 OA
ATOM      9  H   UNL     1       0.240   9.150  22.241  0.00  0.00    +0.000 HD
ENDROOT
BRANCH   5  10
ATOM     10  N   UNL     1       1.761   7.976  20.678  0.00  0.00    +0.000 N 
ATOM     11  C   UNL     1       1.915   6.721  20.167  0.00  0.00    +0.000 A 
ATOM     12  N   UNL     1       1.596   5.645  20.848  0.00  0.00    +0.000 NA
ATOM     13  C   UNL     1       1.823   4.501  20.095  0.00  0.00    +0.000 A 
ATOM     14  C   UNL     1       1.417   3.188  20.669  0.00  0.00    +0.000 C 
ATOM     15  C   UNL     1       2.417   4.720  18.859  0.00  0.00    +0.000 A 
ATOM     16  S   UNL     1       2.571   6.406  18.610  0.00  0.00    +0.000 S 
ATOM     17  H   UNL     1       1.242   7.931  21.557  0.00  0.00    +0.000 HD
BRANCH  15  18
ATOM     18  C   UNL     1       2.838   3.719  17.891  0.00  0.00    +0.000 C 
ATOM     19  C   UNL     1       4.275   3.256  17.828  0.00  0.00    +0.000 C 
ATOM     20  O   UNL     1       2.040   3.203  17.100  0.00  0.00    +0.000 OA
ENDBRANCH  15  18
ENDBRANCH   5  10
BRANCH   1  25
ATOM     21  C   UNL     1      -1.301  14.755  24.368  0.00  0.00    +0.000 A 
ATOM     22  C   UNL     1      -2.640  14.542  24.717  0.00  0.00    +0.000 A 
ATOM     23  C   UNL     1      -3.536  13.963  23.815  0.00  0.00    +0.000 A 
ATOM     24  C   UNL     1      -3.095  13.564  22.555  0.00  0.00    +0.000 A 
ATOM     25  C   UNL     1      -1.760  13.759  22.185  0.00  0.00    +0.000 A 
ATOM     26  C   UNL     1      -0.875  14.402  23.080  0.00  0.00    +0.000 A 
BRANCH  21  28
ATOM     27  C   UNL     1      -1.225  16.265  26.209  0.00  0.00    +0.000 C 
ATOM     28  O   UNL     1      -0.558  15.328  25.369  0.00  0.00    +0.000 OA
ENDBRANCH  21  28
BRANCH  26  29
ATOM     29  O   UNL     1       0.408  14.690  22.685  0.00  0.00    +0.000 OA
ATOM     30  H   UNL     1       0.799  13.914  22.252  0.00  0.00    +0.000 HD
ENDBRANCH  26  29
ENDBRANCH   1  25
TORSDOF 5
ENDMDL
