MODEL 1
REMARK VINA RESULT:      -8.5      0.000      0.000
REMARK  Name = 
REMARK  11 active torsions:
REMARK  status: ('A' for Active; 'I' for Inactive)
REMARK    1  A    between atoms: C_1  and  O_2
REMARK    2  A    between atoms: O_2  and  C_3
REMARK    3  A    between atoms: C_6  and  C_7
REMARK    4  A    between atoms: C_7  and  N_8
REMARK    5  A    between atoms: N_8  and  C_9
REMARK    6  A    between atoms: N_8  and  S_10
REMARK    7  A    between atoms: S_10  and  C_13
REMARK    8  A    between atoms: C_18  and  C_20
REMARK    9  A    between atoms: C_24  and  C_25
REMARK   10  A    between atoms: C_29  and  O_30
REMARK   11  A    between atoms: O_30  and  C_31
REMARK                            x       y       z     vdW  Elec       q    Type
REMARK                         _______ _______ _______ _____ _____    ______ ____
ROOT
ATOM      1  S   UNL     1       4.984   5.035  17.033  0.00  0.00    +0.000 S 
ATOM      2  O   UNL     1       5.125   3.613  17.276  0.00  0.00    +0.000 OA
ATOM      3  O   UNL     1       4.982   5.562  15.682  0.00  0.00    +0.000 OA
ENDROOT
BRANCH   1   4
ATOM      4  C   UNL     1       6.364   5.787  17.838  0.00  0.00    +0.000 A 
ATOM      5  N   UNL     1       7.123   5.242  18.767  0.00  0.00    +0.000 NA
ATOM      6  N   UNL     1       8.111   6.120  19.181  0.00  0.00    +0.000 NA
ATOM      7  C   UNL     1       8.024   7.290  18.578  0.00  0.00    +0.000 A 
ATOM      8  N   UNL     1       8.883   8.336  18.843  0.00  0.00    +0.000 N 
ATOM      9  C   UNL     1       8.692   9.635  18.426  0.00  0.00    +0.000 C 
ATOM     10  O   UNL     1       7.725  10.061  17.798  0.00  0.00    +0.000 OA
ATOM     11  S   UNL     1       6.792   7.371  17.395  0.00  0.00    +0.000 S 
ATOM     12  H   UNL     1       9.603   8.126  19.526  0.00  0.00    +0.000 HD
BRANCH   9  13
ATOM     13  C   UNL     1       9.732  10.626  18.822  0.00  0.00    +0.000 A 
ATOM     14  C   UNL     1       9.831  10.935  20.186  0.00  0.00    +0.000 A 
ATOM     15  C   UNL     1      10.705  11.927  20.626  0.00  0.00    +0.000 A 
ATOM     16  C   UNL     1      11.481  12.624  19.703  0.00  0.00    +0.000 A 
ATOM     17  C   UNL     1      11.401  12.327  18.335  0.00  0.00    +0.000 A 
ATOM     18  C   UNL     1      12.208  13.122  17.349  0.00  0.00    +0.000 C 
ATOM     19  C   UNL     1      10.526  11.316  17.896  0.00  0.00    +0.000 A 
ENDBRANCH   9  13
ENDBRANCH   1   4
BRANCH   1  20
ATOM     20  N   UNL     1       3.519   5.546  17.782  0.00  0.00    +0.000 NA
ATOM     21  C   UNL     1       2.396   4.601  17.600  0.00  0.00    +0.000 C 
BRANCH  20  22
ATOM     22  C   UNL     1       3.187   6.959  17.491  0.00  0.00    +0.000 C 
BRANCH  22  26
ATOM     23  C   UNL     1       0.958   9.202  20.434  0.00  0.00    +0.000 A 
ATOM     24  C   UNL     1       1.524   7.961  20.773  0.00  0.00    +0.000 A 
ATOM     25  C   UNL     1       2.211   7.200  19.824  0.00  0.00    +0.000 A 
ATOM     26  C   UNL     1       2.304   7.646  18.505  0.00  0.00    +0.000 A 
ATOM     27  C   UNL     1       1.626   8.819  18.146  0.00  0.00    +0.000 A 
ATOM     28  C   UNL     1       0.958   9.608  19.092  0.00  0.00    +0.000 A 
BRANCH  23  30
ATOM     29  C   UNL     1       0.161   9.375  22.651  0.00  0.00    +0.000 C 
ATOM     30  O   UNL     1       0.398  10.008  21.391  0.00  0.00    +0.000 OA
ENDBRANCH  23  30
BRANCH  28  31
ATOM     31  O   UNL     1       0.412  10.722  18.516  0.00  0.00    +0.000 OA
ATOM     32  C   UNL     1      -0.982  10.762  18.267  0.00  0.00    +0.000 C 
ENDBRANCH  28  31
ENDBRANCH  22  26
ENDBRANCH  20  22
ENDBRANCH   1  20
TORSDOF 7
ENDMDL
MODEL 2
REMARK VINA RESULT:      -8.1      6.231      9.041
REMARK  Name = 
REMARK  11 active torsions:
REMARK  status: ('A' for Active; 'I' for Inactive)
REMARK    1  A    between atoms: C_1  and  O_2
REMARK    2  A    between atoms: O_2  and  C_3
REMARK    3  A    between atoms: C_6  and  C_7
REMARK    4  A    between atoms: C_7  and  N_8
REMARK    5  A    between atoms: N_8  and  C_9
REMARK    6  A    between atoms: N_8  and  S_10
REMARK    7  A    between atoms: S_10  and  C_13
REMARK    8  A    between atoms: C_18  and  C_20
REMARK    9  A    between atoms: C_24  and  C_25
REMARK   10  A    between atoms: C_29  and  O_30
REMARK   11  A    between atoms: O_30  and  C_31
REMARK                            x       y       z     vdW  Elec       q    Type
REMARK                         _______ _______ _______ _____ _____    ______ ____
ROOT
ATOM      1  S   UNL     1       0.860  12.874  20.535  0.00  0.00    +0.000 S 
ATOM      2  O   UNL     1       1.366  12.896  19.176  0.00  0.00    +0.000 OA
ATOM      3  O   UNL     1       1.522  13.618  21.589  0.00  0.00    +0.000 OA
ENDROOT
BRANCH   1   4
ATOM      4  C   UNL     1       0.925  11.181  21.031  0.00  0.00    +0.000 A 
ATOM      5  N   UNL     1       0.691  10.707  22.238  0.00  0.00    +0.000 NA
ATOM      6  N   UNL     1       0.839   9.331  22.271  0.00  0.00    +0.000 NA
ATOM      7  C   UNL     1       1.215   8.841  21.105  0.00  0.00    +0.000 A 
ATOM      8  N   UNL     1       1.452   7.498  20.896  0.00  0.00    +0.000 N 
ATOM      9  C   UNL     1       2.069   6.973  19.783  0.00  0.00    +0.000 C 
ATOM     10  O   UNL     1       2.530   7.611  18.839  0.00  0.00    +0.000 OA
ATOM     11  S   UNL     1       1.323  10.012  19.863  0.00  0.00    +0.000 S 
ATOM     12  H   UNL     1       1.292   6.912  21.708  0.00  0.00    +0.000 HD
BRANCH   9  13
ATOM     13  C   UNL     1       2.240   5.493  19.747  0.00  0.00    +0.000 A 
ATOM     14  C   UNL     1       2.643   4.927  18.529  0.00  0.00    +0.000 A 
ATOM     15  C   UNL     1       2.725   3.544  18.383  0.00  0.00    +0.000 A 
ATOM     16  C   UNL     1       2.394   2.715  19.452  0.00  0.00    +0.000 A 
ATOM     17  C   UNL     1       1.993   3.261  20.680  0.00  0.00    +0.000 A 
ATOM     18  C   UNL     1       1.593   2.352  21.807  0.00  0.00    +0.000 C 
ATOM     19  C   UNL     1       1.923   4.658  20.828  0.00  0.00    +0.000 A 
ENDBRANCH   9  13
ENDBRANCH   1   4
BRANCH   1  20
ATOM     20  N   UNL     1      -0.778  13.407  20.486  0.00  0.00    +0.000 NA
ATOM     21  C   UNL     1      -1.097  14.446  21.488  0.00  0.00    +0.000 C 
BRANCH  20  22
ATOM     22  C   UNL     1      -1.746  12.288  20.432  0.00  0.00    +0.000 C 
BRANCH  22  26
ATOM     23  C   UNL     1      -3.596  11.141  16.701  0.00  0.00    +0.000 A 
ATOM     24  C   UNL     1      -2.200  11.275  16.785  0.00  0.00    +0.000 A 
ATOM     25  C   UNL     1      -1.585  11.687  17.969  0.00  0.00    +0.000 A 
ATOM     26  C   UNL     1      -2.362  12.018  19.080  0.00  0.00    +0.000 A 
ATOM     27  C   UNL     1      -3.757  12.006  18.949  0.00  0.00    +0.000 A 
ATOM     28  C   UNL     1      -4.388  11.568  17.777  0.00  0.00    +0.000 A 
BRANCH  23  30
ATOM     29  C   UNL     1      -3.283  10.138  14.586  0.00  0.00    +0.000 C 
ATOM     30  O   UNL     1      -4.189  10.614  15.584  0.00  0.00    +0.000 OA
ENDBRANCH  23  30
BRANCH  28  31
ATOM     31  O   UNL     1      -5.749  11.605  17.899  0.00  0.00    +0.000 OA
ATOM     32  C   UNL     1      -6.460  12.727  17.408  0.00  0.00    +0.000 C 
ENDBRANCH  28  31
ENDBRANCH  22  26
ENDBRANCH  20  22
ENDBRANCH   1  20
TORSDOF 7
ENDMDL
MODEL 3
REMARK VINA RESULT:      -7.9      5.496      8.761
REMARK  Name = 
REMARK  11 active torsions:
REMARK  status: ('A' for Active; 'I' for Inactive)
REMARK    1  A    between atoms: C_1  and  O_2
REMARK    2  A    between atoms: O_2  and  C_3
REMARK    3  A    between atoms: C_6  and  C_7
REMARK    4  A    between atoms: C_7  and  N_8
REMARK    5  A    between atoms: N_8  and  C_9
REMARK    6  A    between atoms: N_8  and  S_10
REMARK    7  A    between atoms: S_10  and  C_13
REMARK    8  A    between atoms: C_18  and  C_20
REMARK    9  A    between atoms: C_24  and  C_25
REMARK   10  A    between atoms: C_29  and  O_30
REMARK   11  A    between atoms: O_30  and  C_31
REMARK                            x       y       z     vdW  Elec       q    Type
REMARK                         _______ _______ _______ _____ _____    ______ ____
ROOT
ATOM      1  S   UNL     1      -0.347  12.016  21.566  0.00  0.00    +0.000 S 
ATOM      2  O   UNL     1       0.777  12.906  21.778  0.00  0.00    +0.000 OA
ATOM      3  O   UNL     1      -1.396  11.891  22.560  0.00  0.00    +0.000 OA
ENDROOT
BRANCH   1   4
ATOM      4  C   UNL     1       0.356  10.404  21.409  0.00  0.00    +0.000 A 
ATOM      5  N   UNL     1       0.536   9.528  22.377  0.00  0.00    +0.000 NA
ATOM      6  N   UNL     1       1.120   8.368  21.897  0.00  0.00    +0.000 NA
ATOM      7  C   UNL     1       1.388   8.440  20.607  0.00  0.00    +0.000 A 
ATOM      8  N   UNL     1       1.994   7.416  19.908  0.00  0.00    +0.000 N 
ATOM      9  C   UNL     1       2.506   7.531  18.635  0.00  0.00    +0.000 C 
ATOM     10  O   UNL     1       2.537   8.553  17.954  0.00  0.00    +0.000 OA
ATOM     11  S   UNL     1       0.860   9.889  19.870  0.00  0.00    +0.000 S 
ATOM     12  H   UNL     1       2.198   6.592  20.463  0.00  0.00    +0.000 HD
BRANCH   9  13
ATOM     13  C   UNL     1       3.130   6.309  18.053  0.00  0.00    +0.000 A 
ATOM     14  C   UNL     1       4.295   6.490  17.293  0.00  0.00    +0.000 A 
ATOM     15  C   UNL     1       4.881   5.415  16.629  0.00  0.00    +0.000 A 
ATOM     16  C   UNL     1       4.301   4.151  16.710  0.00  0.00    +0.000 A 
ATOM     17  C   UNL     1       3.138   3.948  17.468  0.00  0.00    +0.000 A 
ATOM     18  C   UNL     1       2.498   2.590  17.506  0.00  0.00    +0.000 C 
ATOM     19  C   UNL     1       2.556   5.034  18.148  0.00  0.00    +0.000 A 
ENDBRANCH   9  13
ENDBRANCH   1   4
BRANCH   1  20
ATOM     20  N   UNL     1      -1.099  12.474  20.086  0.00  0.00    +0.000 NA
ATOM     21  C   UNL     1      -0.175  13.099  19.116  0.00  0.00    +0.000 C 
BRANCH  20  22
ATOM     22  C   UNL     1      -2.368  13.210  20.288  0.00  0.00    +0.000 C 
BRANCH  22  26
ATOM     23  C   UNL     1      -5.872  11.037  19.002  0.00  0.00    +0.000 A 
ATOM     24  C   UNL     1      -4.686  10.972  18.251  0.00  0.00    +0.000 A 
ATOM     25  C   UNL     1      -3.555  11.702  18.625  0.00  0.00    +0.000 A 
ATOM     26  C   UNL     1      -3.606  12.548  19.734  0.00  0.00    +0.000 A 
ATOM     27  C   UNL     1      -4.828  12.706  20.399  0.00  0.00    +0.000 A 
ATOM     28  C   UNL     1      -5.963  11.959  20.054  0.00  0.00    +0.000 A 
BRANCH  23  30
ATOM     29  C   UNL     1      -7.056   9.066  19.540  0.00  0.00    +0.000 C 
ATOM     30  O   UNL     1      -6.937  10.225  18.711  0.00  0.00    +0.000 OA
ENDBRANCH  23  30
BRANCH  28  31
ATOM     31  O   UNL     1      -7.021  12.253  20.869  0.00  0.00    +0.000 OA
ATOM     32  C   UNL     1      -6.777  12.656  22.205  0.00  0.00    +0.000 C 
ENDBRANCH  28  31
ENDBRANCH  22  26
ENDBRANCH  20  22
ENDBRANCH   1  20
TORSDOF 7
ENDMDL
MODEL 4
REMARK VINA RESULT:      -7.8      3.883      8.286
REMARK  Name = 
REMARK  11 active torsions:
REMARK  status: ('A' for Active; 'I' for Inactive)
REMARK    1  A    between atoms: C_1  and  O_2
REMARK    2  A    between atoms: O_2  and  C_3
REMARK    3  A    between atoms: C_6  and  C_7
REMARK    4  A    between atoms: C_7  and  N_8
REMARK    5  A    between atoms: N_8  and  C_9
REMARK    6  A    between atoms: N_8  and  S_10
REMARK    7  A    between atoms: S_10  and  C_13
REMARK    8  A    between atoms: C_18  and  C_20
REMARK    9  A    between atoms: C_24  and  C_25
REMARK   10  A    between atoms: C_29  and  O_30
REMARK   11  A    between atoms: O_30  and  C_31
REMARK                            x       y       z     vdW  Elec       q    Type
REMARK                         _______ _______ _______ _____ _____    ______ ____
ROOT
ATOM      1  S   UNL     1       2.831   5.787  19.312  0.00  0.00    +0.000 S 
ATOM      2  O   UNL     1       1.754   5.322  20.163  0.00  0.00    +0.000 OA
ATOM      3  O   UNL     1       4.183   5.910  19.821  0.00  0.00    +0.000 OA
ENDROOT
BRANCH   1   4
ATOM      4  C   UNL     1       2.361   7.413  18.808  0.00  0.00    +0.000 A 
ATOM      5  N   UNL     1       2.529   7.944  17.613  0.00  0.00    +0.000 NA
ATOM      6  N   UNL     1       2.049   9.241  17.573  0.00  0.00    +0.000 NA
ATOM      7  C   UNL     1       1.581   9.638  18.741  0.00  0.00    +0.000 A 
ATOM      8  N   UNL     1       1.071  10.902  18.955  0.00  0.00    +0.000 N 
ATOM      9  C   UNL     1       0.797  11.438  20.194  0.00  0.00    +0.000 C 
ATOM     10  O   UNL     1       0.998  10.899  21.280  0.00  0.00    +0.000 OA
ATOM     11  S   UNL     1       1.608   8.425  19.946  0.00  0.00    +0.000 S 
ATOM     12  H   UNL     1       1.065  11.497  18.135  0.00  0.00    +0.000 HD
BRANCH   9  13
ATOM     13  C   UNL     1       0.256  12.827  20.217  0.00  0.00    +0.000 A 
ATOM     14  C   UNL     1      -0.999  13.012  20.813  0.00  0.00    +0.000 A 
ATOM     15  C   UNL     1      -1.621  14.258  20.784  0.00  0.00    +0.000 A 
ATOM     16  C   UNL     1      -0.996  15.328  20.148  0.00  0.00    +0.000 A 
ATOM     17  C   UNL     1       0.262  15.166  19.550  0.00  0.00    +0.000 A 
ATOM     18  C   UNL     1       0.900  16.317  18.827  0.00  0.00    +0.000 C 
ATOM     19  C   UNL     1       0.893  13.909  19.593  0.00  0.00    +0.000 A 
ENDBRANCH   9  13
ENDBRANCH   1   4
BRANCH   1  20
ATOM     20  N   UNL     1       2.894   4.745  17.941  0.00  0.00    +0.000 NA
ATOM     21  C   UNL     1       1.607   4.086  17.634  0.00  0.00    +0.000 C 
BRANCH  20  22
ATOM     22  C   UNL     1       4.061   3.833  17.965  0.00  0.00    +0.000 C 
BRANCH  22  26
ATOM     23  C   UNL     1       6.982   5.060  15.030  0.00  0.00    +0.000 A 
ATOM     24  C   UNL     1       6.203   3.911  14.813  0.00  0.00    +0.000 A 
ATOM     25  C   UNL     1       5.284   3.472  15.769  0.00  0.00    +0.000 A 
ATOM     26  C   UNL     1       5.162   4.151  16.982  0.00  0.00    +0.000 A 
ATOM     27  C   UNL     1       6.032   5.217  17.243  0.00  0.00    +0.000 A 
ATOM     28  C   UNL     1       6.939   5.687  16.283  0.00  0.00    +0.000 A 
BRANCH  23  30
ATOM     29  C   UNL     1       7.590   4.988  12.748  0.00  0.00    +0.000 C 
ATOM     30  O   UNL     1       7.788   5.564  14.042  0.00  0.00    +0.000 OA
ENDBRANCH  23  30
BRANCH  28  31
ATOM     31  O   UNL     1       7.649   6.758  16.749  0.00  0.00    +0.000 OA
ATOM     32  C   UNL     1       7.807   6.932  18.146  0.00  0.00    +0.000 C 
ENDBRANCH  28  31
ENDBRANCH  22  26
ENDBRANCH  20  22
ENDBRANCH   1  20
TORSDOF 7
ENDMDL
MODEL 5
REMARK VINA RESULT:      -7.8      0.858      1.691
REMARK  Name = 
REMARK  11 active torsions:
REMARK  status: ('A' for Active; 'I' for Inactive)
REMARK    1  A    between atoms: C_1  and  O_2
REMARK    2  A    between atoms: O_2  and  C_3
REMARK    3  A    between atoms: C_6  and  C_7
REMARK    4  A    between atoms: C_7  and  N_8
REMARK    5  A    between atoms: N_8  and  C_9
REMARK    6  A    between atoms: N_8  and  S_10
REMARK    7  A    between atoms: S_10  and  C_13
REMARK    8  A    between atoms: C_18  and  C_20
REMARK    9  A    between atoms: C_24  and  C_25
REMARK   10  A    between atoms: C_29  and  O_30
REMARK   11  A    between atoms: O_30  and  C_31
REMARK                            x       y       z     vdW  Elec       q    Type
REMARK                         _______ _______ _______ _____ _____    ______ ____
ROOT
ATOM      1  S   UNL     1       4.840   4.980  17.531  0.00  0.00    +0.000 S 
ATOM      2  O   UNL     1       4.965   3.578  17.876  0.00  0.00    +0.000 OA
ATOM      3  O   UNL     1       4.752   5.402  16.146  0.00  0.00    +0.000 OA
ENDROOT
BRANCH   1   4
ATOM      4  C   UNL     1       6.292   5.752  18.175  0.00  0.00    +0.000 A 
ATOM      5  N   UNL     1       7.140   5.231  19.039  0.00  0.00    +0.000 NA
ATOM      6  N   UNL     1       8.162   6.119  19.329  0.00  0.00    +0.000 NA
ATOM      7  C   UNL     1       8.016   7.272  18.705  0.00  0.00    +0.000 A 
ATOM      8  N   UNL     1       8.896   8.324  18.855  0.00  0.00    +0.000 N 
ATOM      9  C   UNL     1       8.663   9.610  18.423  0.00  0.00    +0.000 C 
ATOM     10  O   UNL     1       7.639  10.021  17.883  0.00  0.00    +0.000 OA
ATOM     11  S   UNL     1       6.673   7.322  17.648  0.00  0.00    +0.000 S 
ATOM     12  H   UNL     1       9.680   8.131  19.469  0.00  0.00    +0.000 HD
BRANCH   9  13
ATOM     13  C   UNL     1       9.737  10.610  18.687  0.00  0.00    +0.000 A 
ATOM     14  C   UNL     1       9.999  10.924  20.028  0.00  0.00    +0.000 A 
ATOM     15  C   UNL     1      10.913  11.923  20.355  0.00  0.00    +0.000 A 
ATOM     16  C   UNL     1      11.565  12.623  19.343  0.00  0.00    +0.000 A 
ATOM     17  C   UNL     1      11.320  12.321  17.996  0.00  0.00    +0.000 A 
ATOM     18  C   UNL     1      11.995  13.119  16.917  0.00  0.00    +0.000 C 
ATOM     19  C   UNL     1      10.406  11.303  17.669  0.00  0.00    +0.000 A 
ENDBRANCH   9  13
ENDBRANCH   1   4
BRANCH   1  20
ATOM     20  N   UNL     1       3.446   5.590  18.340  0.00  0.00    +0.000 NA
ATOM     21  C   UNL     1       2.602   4.539  18.946  0.00  0.00    +0.000 C 
BRANCH  20  22
ATOM     22  C   UNL     1       2.703   6.586  17.534  0.00  0.00    +0.000 C 
BRANCH  22  26
ATOM     23  C   UNL     1       0.966   9.937  19.635  0.00  0.00    +0.000 A 
ATOM     24  C   UNL     1       1.441  10.096  18.321  0.00  0.00    +0.000 A 
ATOM     25  C   UNL     1       2.045   9.037  17.641  0.00  0.00    +0.000 A 
ATOM     26  C   UNL     1       2.228   7.809  18.280  0.00  0.00    +0.000 A 
ATOM     27  C   UNL     1       1.870   7.699  19.629  0.00  0.00    +0.000 A 
ATOM     28  C   UNL     1       1.236   8.742  20.318  0.00  0.00    +0.000 A 
BRANCH  23  30
ATOM     29  C   UNL     1       1.026  12.083  20.619  0.00  0.00    +0.000 C 
ATOM     30  O   UNL     1       0.258  10.933  20.256  0.00  0.00    +0.000 OA
ENDBRANCH  23  30
BRANCH  28  31
ATOM     31  O   UNL     1       0.946   8.387  21.605  0.00  0.00    +0.000 OA
ATOM     32  C   UNL     1       1.551   9.093  22.674  0.00  0.00    +0.000 C 
ENDBRANCH  28  31
ENDBRANCH  22  26
ENDBRANCH  20  22
ENDBRANCH   1  20
TORSDOF 7
ENDMDL
MODEL 6
REMARK VINA RESULT:      -7.8      6.074      9.213
REMARK  Name = 
REMARK  11 active torsions:
REMARK  status: ('A' for Active; 'I' for Inactive)
REMARK    1  A    between atoms: C_1  and  O_2
REMARK    2  A    between atoms: O_2  and  C_3
REMARK    3  A    between atoms: C_6  and  C_7
REMARK    4  A    between atoms: C_7  and  N_8
REMARK    5  A    between atoms: N_8  and  C_9
REMARK    6  A    between atoms: N_8  and  S_10
REMARK    7  A    between atoms: S_10  and  C_13
REMARK    8  A    between atoms: C_18  and  C_20
REMARK    9  A    between atoms: C_24  and  C_25
REMARK   10  A    between atoms: C_29  and  O_30
REMARK   11  A    between atoms: O_30  and  C_31
REMARK                            x       y       z     vdW  Elec       q    Type
REMARK                         _______ _______ _______ _____ _____    ______ ____
ROOT
ATOM      1  S   UNL     1       0.029  13.086  19.937  0.00  0.00    +0.000 S 
ATOM      2  O   UNL     1       0.016  12.857  18.505  0.00  0.00    +0.000 OA
ATOM      3  O   UNL     1       0.935  14.052  20.529  0.00  0.00    +0.000 OA
ENDROOT
BRANCH   1   4
ATOM      4  C   UNL     1       0.453  11.530  20.656  0.00  0.00    +0.000 A 
ATOM      5  N   UNL     1       0.478  11.240  21.941  0.00  0.00    +0.000 NA
ATOM      6  N   UNL     1       0.863   9.926  22.148  0.00  0.00    +0.000 NA
ATOM      7  C   UNL     1       1.146   9.304  21.019  0.00  0.00    +0.000 A 
ATOM      8  N   UNL     1       1.576   7.995  20.971  0.00  0.00    +0.000 N 
ATOM      9  C   UNL     1       2.107   7.383  19.857  0.00  0.00    +0.000 C 
ATOM     10  O   UNL     1       2.312   7.911  18.767  0.00  0.00    +0.000 OA
ATOM     11  S   UNL     1       0.872  10.249  19.620  0.00  0.00    +0.000 S 
ATOM     12  H   UNL     1       1.636   7.539  21.875  0.00  0.00    +0.000 HD
BRANCH   9  13
ATOM     13  C   UNL     1       2.521   5.959  20.009  0.00  0.00    +0.000 A 
ATOM     14  C   UNL     1       3.651   5.545  19.290  0.00  0.00    +0.000 A 
ATOM     15  C   UNL     1       4.043   4.208  19.295  0.00  0.00    +0.000 A 
ATOM     16  C   UNL     1       3.300   3.272  20.011  0.00  0.00    +0.000 A 
ATOM     17  C   UNL     1       2.169   3.667  20.740  0.00  0.00    +0.000 A 
ATOM     18  C   UNL     1       1.351   2.637  21.466  0.00  0.00    +0.000 C 
ATOM     19  C   UNL     1       1.784   5.020  20.743  0.00  0.00    +0.000 A 
ENDBRANCH   9  13
ENDBRANCH   1   4
BRANCH   1  20
ATOM     20  N   UNL     1      -1.568  13.531  20.405  0.00  0.00    +0.000 NA
ATOM     21  C   UNL     1      -1.614  14.565  21.460  0.00  0.00    +0.000 C 
BRANCH  20  22
ATOM     22  C   UNL     1      -2.442  12.362  20.652  0.00  0.00    +0.000 C 
BRANCH  22  26
ATOM     23  C   UNL     1      -5.816  12.413  17.955  0.00  0.00    +0.000 A 
ATOM     24  C   UNL     1      -5.976  12.810  19.293  0.00  0.00    +0.000 A 
ATOM     25  C   UNL     1      -4.909  12.759  20.193  0.00  0.00    +0.000 A 
ATOM     26  C   UNL     1      -3.670  12.265  19.779  0.00  0.00    +0.000 A 
ATOM     27  C   UNL     1      -3.555  11.751  18.481  0.00  0.00    +0.000 A 
ATOM     28  C   UNL     1      -4.608  11.821  17.559  0.00  0.00    +0.000 A 
BRANCH  23  30
ATOM     29  C   UNL     1      -7.078  13.941  16.670  0.00  0.00    +0.000 C 
ATOM     30  O   UNL     1      -6.823  12.584  17.041  0.00  0.00    +0.000 OA
ENDBRANCH  23  30
BRANCH  28  31
ATOM     31  O   UNL     1      -4.247  11.297  16.349  0.00  0.00    +0.000 OA
ATOM     32  C   UNL     1      -3.355  10.197  16.307  0.00  0.00    +0.000 C 
ENDBRANCH  28  31
ENDBRANCH  22  26
ENDBRANCH  20  22
ENDBRANCH   1  20
TORSDOF 7
ENDMDL
MODEL 7
REMARK VINA RESULT:      -7.8      5.777      8.430
REMARK  Name = 
REMARK  11 active torsions:
REMARK  status: ('A' for Active; 'I' for Inactive)
REMARK    1  A    between atoms: C_1  and  O_2
REMARK    2  A    between atoms: O_2  and  C_3
REMARK    3  A    between atoms: C_6  and  C_7
REMARK    4  A    between atoms: C_7  and  N_8
REMARK    5  A    between atoms: N_8  and  C_9
REMARK    6  A    between atoms: N_8  and  S_10
REMARK    7  A    between atoms: S_10  and  C_13
REMARK    8  A    between atoms: C_18  and  C_20
REMARK    9  A    between atoms: C_24  and  C_25
REMARK   10  A    between atoms: C_29  and  O_30
REMARK   11  A    between atoms: O_30  and  C_31
REMARK                            x       y       z     vdW  Elec       q    Type
REMARK                         _______ _______ _______ _____ _____    ______ ____
ROOT
ATOM      1  S   UNL     1       0.378  12.599  20.547  0.00  0.00    +0.000 S 
ATOM      2  O   UNL     1       0.889  13.007  19.253  0.00  0.00    +0.000 OA
ATOM      3  O   UNL     1       0.838  13.240  21.765  0.00  0.00    +0.000 OA
ENDROOT
BRANCH   1   4
ATOM      4  C   UNL     1       0.816  10.896  20.709  0.00  0.00    +0.000 A 
ATOM      5  N   UNL     1       0.846  10.196  21.825  0.00  0.00    +0.000 NA
ATOM      6  N   UNL     1       1.241   8.892  21.584  0.00  0.00    +0.000 NA
ATOM      7  C   UNL     1       1.528   8.682  20.313  0.00  0.00    +0.000 A 
ATOM      8  N   UNL     1       1.968   7.467  19.833  0.00  0.00    +0.000 N 
ATOM      9  C   UNL     1       2.502   7.264  18.580  0.00  0.00    +0.000 C 
ATOM     10  O   UNL     1       2.701   8.126  17.727  0.00  0.00    +0.000 OA
ATOM     11  S   UNL     1       1.244  10.036  19.307  0.00  0.00    +0.000 S 
ATOM     12  H   UNL     1       2.034   6.737  20.534  0.00  0.00    +0.000 HD
BRANCH   9  13
ATOM     13  C   UNL     1       2.928   5.874  18.250  0.00  0.00    +0.000 A 
ATOM     14  C   UNL     1       2.358   4.838  19.003  0.00  0.00    +0.000 A 
ATOM     15  C   UNL     1       2.780   3.522  18.829  0.00  0.00    +0.000 A 
ATOM     16  C   UNL     1       3.783   3.232  17.908  0.00  0.00    +0.000 A 
ATOM     17  C   UNL     1       4.363   4.254  17.141  0.00  0.00    +0.000 A 
ATOM     18  C   UNL     1       5.477   3.931  16.187  0.00  0.00    +0.000 C 
ATOM     19  C   UNL     1       3.926   5.580  17.310  0.00  0.00    +0.000 A 
ENDBRANCH   9  13
ENDBRANCH   1   4
BRANCH   1  20
ATOM     20  N   UNL     1      -1.337  12.761  20.502  0.00  0.00    +0.000 NA
ATOM     21  C   UNL     1      -1.900  13.469  21.671  0.00  0.00    +0.000 C 
BRANCH  20  22
ATOM     22  C   UNL     1      -2.025  11.495  20.160  0.00  0.00    +0.000 C 
BRANCH  22  26
ATOM     23  C   UNL     1      -3.666  10.841  16.218  0.00  0.00    +0.000 A 
ATOM     24  C   UNL     1      -2.290  10.670  16.447  0.00  0.00    +0.000 A 
ATOM     25  C   UNL     1      -1.732  10.919  17.703  0.00  0.00    +0.000 A 
ATOM     26  C   UNL     1      -2.536  11.389  18.743  0.00  0.00    +0.000 A 
ATOM     27  C   UNL     1      -3.879  11.681  18.471  0.00  0.00    +0.000 A 
ATOM     28  C   UNL     1      -4.459  11.409  17.224  0.00  0.00    +0.000 A 
BRANCH  23  30
ATOM     29  C   UNL     1      -3.311  10.041  14.024  0.00  0.00    +0.000 C 
ATOM     30  O   UNL     1      -4.235  10.475  15.026  0.00  0.00    +0.000 OA
ENDBRANCH  23  30
BRANCH  28  31
ATOM     31  O   UNL     1      -5.787  11.737  17.210  0.00  0.00    +0.000 OA
ATOM     32  C   UNL     1      -6.171  13.087  17.396  0.00  0.00    +0.000 C 
ENDBRANCH  28  31
ENDBRANCH  22  26
ENDBRANCH  20  22
ENDBRANCH   1  20
TORSDOF 7
ENDMDL
MODEL 8
REMARK VINA RESULT:      -7.7      3.682      8.055
REMARK  Name = 
REMARK  11 active torsions:
REMARK  status: ('A' for Active; 'I' for Inactive)
REMARK    1  A    between atoms: C_1  and  O_2
REMARK    2  A    between atoms: O_2  and  C_3
REMARK    3  A    between atoms: C_6  and  C_7
REMARK    4  A    between atoms: C_7  and  N_8
REMARK    5  A    between atoms: N_8  and  C_9
REMARK    6  A    between atoms: N_8  and  S_10
REMARK    7  A    between atoms: S_10  and  C_13
REMARK    8  A    between atoms: C_18  and  C_20
REMARK    9  A    between atoms: C_24  and  C_25
REMARK   10  A    between atoms: C_29  and  O_30
REMARK   11  A    between atoms: O_30  and  C_31
REMARK                            x       y       z     vdW  Elec       q    Type
REMARK                         _______ _______ _______ _____ _____    ______ ____
ROOT
ATOM      1  S   UNL     1       2.110   4.038  20.059  0.00  0.00    +0.000 S 
ATOM      2  O   UNL     1       0.732   3.594  20.135  0.00  0.00    +0.000 OA
ATOM      3  O   UNL     1       3.008   3.876  21.186  0.00  0.00    +0.000 OA
ENDROOT
BRANCH   1   4
ATOM      4  C   UNL     1       2.025   5.776  19.761  0.00  0.00    +0.000 A 
ATOM      5  N   UNL     1       2.615   6.434  18.783  0.00  0.00    +0.000 NA
ATOM      6  N   UNL     1       2.338   7.789  18.857  0.00  0.00    +0.000 NA
ATOM      7  C   UNL     1       1.592   8.091  19.902  0.00  0.00    +0.000 A 
ATOM      8  N   UNL     1       1.206   9.381  20.202  0.00  0.00    +0.000 N 
ATOM      9  C   UNL     1       0.639   9.774  21.393  0.00  0.00    +0.000 C 
ATOM     10  O   UNL     1       0.430   9.058  22.370  0.00  0.00    +0.000 OA
ATOM     11  S   UNL     1       1.097   6.732  20.815  0.00  0.00    +0.000 S 
ATOM     12  H   UNL     1       1.524  10.079  19.539  0.00  0.00    +0.000 HD
BRANCH   9  13
ATOM     13  C   UNL     1       0.297  11.219  21.528  0.00  0.00    +0.000 A 
ATOM     14  C   UNL     1       1.086  12.129  20.809  0.00  0.00    +0.000 A 
ATOM     15  C   UNL     1       0.899  13.501  20.961  0.00  0.00    +0.000 A 
ATOM     16  C   UNL     1      -0.070  13.974  21.842  0.00  0.00    +0.000 A 
ATOM     17  C   UNL     1      -0.872  13.081  22.566  0.00  0.00    +0.000 A 
ATOM     18  C   UNL     1      -1.880  13.608  23.548  0.00  0.00    +0.000 C 
ATOM     19  C   UNL     1      -0.690  11.696  22.401  0.00  0.00    +0.000 A 
ENDBRANCH   9  13
ENDBRANCH   1   4
BRANCH   1  20
ATOM     20  N   UNL     1       2.835   3.247  18.711  0.00  0.00    +0.000 NA
ATOM     21  C   UNL     1       2.138   2.011  18.299  0.00  0.00    +0.000 C 
BRANCH  20  22
ATOM     22  C   UNL     1       4.303   3.108  18.847  0.00  0.00    +0.000 C 
BRANCH  22  26
ATOM     23  C   UNL     1       6.911   6.233  17.400  0.00  0.00    +0.000 A 
ATOM     24  C   UNL     1       6.805   5.984  18.779  0.00  0.00    +0.000 A 
ATOM     25  C   UNL     1       5.935   5.008  19.271  0.00  0.00    +0.000 A 
ATOM     26  C   UNL     1       5.119   4.294  18.392  0.00  0.00    +0.000 A 
ATOM     27  C   UNL     1       5.137   4.638  17.034  0.00  0.00    +0.000 A 
ATOM     28  C   UNL     1       6.024   5.595  16.522  0.00  0.00    +0.000 A 
BRANCH  23  30
ATOM     29  C   UNL     1       7.932   8.355  17.583  0.00  0.00    +0.000 C 
ATOM     30  O   UNL     1       7.855   7.097  16.909  0.00  0.00    +0.000 OA
ENDBRANCH  23  30
BRANCH  28  31
ATOM     31  O   UNL     1       5.887   5.728  15.168  0.00  0.00    +0.000 OA
ATOM     32  C   UNL     1       6.431   4.738  14.314  0.00  0.00    +0.000 C 
ENDBRANCH  28  31
ENDBRANCH  22  26
ENDBRANCH  20  22
ENDBRANCH   1  20
TORSDOF 7
ENDMDL
MODEL 9
REMARK VINA RESULT:      -7.7      3.661      7.908
REMARK  Name = 
REMARK  11 active torsions:
REMARK  status: ('A' for Active; 'I' for Inactive)
REMARK    1  A    between atoms: C_1  and  O_2
REMARK    2  A    between atoms: O_2  and  C_3
REMARK    3  A    between atoms: C_6  and  C_7
REMARK    4  A    between atoms: C_7  and  N_8
REMARK    5  A    between atoms: N_8  and  C_9
REMARK    6  A    between atoms: N_8  and  S_10
REMARK    7  A    between atoms: S_10  and  C_13
REMARK    8  A    between atoms: C_18  and  C_20
REMARK    9  A    between atoms: C_24  and  C_25
REMARK   10  A    between atoms: C_29  and  O_30
REMARK   11  A    between atoms: O_30  and  C_31
REMARK                            x       y       z     vdW  Elec       q    Type
REMARK                         _______ _______ _______ _____ _____    ______ ____
ROOT
ATOM      1  S   UNL     1       2.164   3.951  19.965  0.00  0.00    +0.000 S 
ATOM      2  O   UNL     1       0.799   3.465  19.987  0.00  0.00    +0.000 OA
ATOM      3  O   UNL     1       3.034   3.780  21.113  0.00  0.00    +0.000 OA
ENDROOT
BRANCH   1   4
ATOM      4  C   UNL     1       2.038   5.694  19.716  0.00  0.00    +0.000 A 
ATOM      5  N   UNL     1       2.569   6.387  18.729  0.00  0.00    +0.000 NA
ATOM      6  N   UNL     1       2.274   7.734  18.851  0.00  0.00    +0.000 NA
ATOM      7  C   UNL     1       1.574   7.996  19.938  0.00  0.00    +0.000 A 
ATOM      8  N   UNL     1       1.181   9.271  20.288  0.00  0.00    +0.000 N 
ATOM      9  C   UNL     1       0.665   9.625  21.515  0.00  0.00    +0.000 C 
ATOM     10  O   UNL     1       0.514   8.881  22.481  0.00  0.00    +0.000 OA
ATOM     11  S   UNL     1       1.145   6.607  20.837  0.00  0.00    +0.000 S 
ATOM     12  H   UNL     1       1.456   9.992  19.630  0.00  0.00    +0.000 HD
BRANCH   9  13
ATOM     13  C   UNL     1       0.306  11.059  21.702  0.00  0.00    +0.000 A 
ATOM     14  C   UNL     1      -0.713  11.346  22.621  0.00  0.00    +0.000 A 
ATOM     15  C   UNL     1      -1.179  12.650  22.778  0.00  0.00    +0.000 A 
ATOM     16  C   UNL     1      -0.635  13.676  22.009  0.00  0.00    +0.000 A 
ATOM     17  C   UNL     1       0.388  13.411  21.088  0.00  0.00    +0.000 A 
ATOM     18  C   UNL     1       0.929  14.520  20.232  0.00  0.00    +0.000 C 
ATOM     19  C   UNL     1       0.865  12.095  20.941  0.00  0.00    +0.000 A 
ENDBRANCH   9  13
ENDBRANCH   1   4
BRANCH   1  20
ATOM     20  N   UNL     1       2.951   3.222  18.616  0.00  0.00    +0.000 NA
ATOM     21  C   UNL     1       2.311   1.971  18.157  0.00  0.00    +0.000 C 
BRANCH  20  22
ATOM     22  C   UNL     1       4.420   3.135  18.785  0.00  0.00    +0.000 C 
BRANCH  22  26
ATOM     23  C   UNL     1       6.954   6.319  17.336  0.00  0.00    +0.000 A 
ATOM     24  C   UNL     1       6.816   6.100  18.717  0.00  0.00    +0.000 A 
ATOM     25  C   UNL     1       5.967   5.105  19.207  0.00  0.00    +0.000 A 
ATOM     26  C   UNL     1       5.205   4.340  18.323  0.00  0.00    +0.000 A 
ATOM     27  C   UNL     1       5.251   4.651  16.959  0.00  0.00    +0.000 A 
ATOM     28  C   UNL     1       6.118   5.627  16.448  0.00  0.00    +0.000 A 
BRANCH  23  30
ATOM     29  C   UNL     1       8.019   8.410  17.607  0.00  0.00    +0.000 C 
ATOM     30  O   UNL     1       7.880   7.205  16.850  0.00  0.00    +0.000 OA
ENDBRANCH  23  30
BRANCH  28  31
ATOM     31  O   UNL     1       6.016   5.723  15.089  0.00  0.00    +0.000 OA
ATOM     32  C   UNL     1       6.748   4.825  14.273  0.00  0.00    +0.000 C 
ENDBRANCH  28  31
ENDBRANCH  22  26
ENDBRANCH  20  22
ENDBRANCH   1  20
TORSDOF 7
ENDMDL
