MODEL 1
REMARK VINA RESULT:      -6.6      0.000      0.000
REMARK  Name = 
REMARK  9 active torsions:
REMARK  status: ('A' for Active; 'I' for Inactive)
REMARK    1  A    between atoms: C_2  and  C_3
REMARK    2  A    between atoms: C_2  and  C_4
REMARK    3  A    between atoms: C_4  and  N_5
REMARK    4  A    between atoms: N_5  and  C_6
REMARK    5  A    between atoms: C_6  and  C_7
REMARK    6  A    between atoms: C_8  and  C_10
REMARK    7  A    between atoms: C_10  and  C_11
REMARK    8  A    between atoms: C_12  and  C_13
REMARK    9  A    between atoms: C_16  and  C_17
REMARK                            x       y       z     vdW  Elec       q    Type
REMARK                         _______ _______ _______ _____ _____    ______ ____
ROOT
ATOM      1  N   UNL     1       3.830   4.231  19.102  0.00  0.00    +0.000 N 
ATOM      2  C   UNL     1       4.071   4.102  17.725  0.00  0.00    +0.000 C 
ATOM      3  O   UNL     1       4.094   3.003  17.162  0.00  0.00    +0.000 OA
ENDROOT
BRANCH   1   4
ATOM      4  C   UNL     1       3.681   5.560  19.708  0.00  0.00    +0.000 C 
ATOM      5  C   UNL     1       2.296   6.171  19.813  0.00  0.00    +0.000 C 
ENDBRANCH   1   4
BRANCH   1   6
ATOM      6  C   UNL     1       3.542   3.006  19.872  0.00  0.00    +0.000 C 
BRANCH   6   8
ATOM      7  C   UNL     1       1.152   2.417  19.149  0.00  0.00    +0.000 C 
ATOM      8  C   UNL     1       2.071   2.688  20.092  0.00  0.00    +0.000 C 
ATOM      9  C   UNL     1       1.641   2.723  21.542  0.00  0.00    +0.000 C 
ENDBRANCH   6   8
ENDBRANCH   1   6
BRANCH   2  10
ATOM     10  C   UNL     1       4.313   5.371  16.894  0.00  0.00    +0.000 C 
BRANCH  10  11
ATOM     11  C   UNL     1       5.672   5.468  16.265  0.00  0.00    +0.000 A 
ATOM     12  C   UNL     1       6.101   4.916  15.017  0.00  0.00    +0.000 A 
ATOM     13  C   UNL     1       5.343   4.126  14.015  0.00  0.00    +0.000 C 
ATOM     14  N   UNL     1       7.384   5.198  14.766  0.00  0.00    +0.000 NA
ATOM     15  O   UNL     1       7.805   5.980  15.817  0.00  0.00    +0.000 OA
ATOM     16  C   UNL     1       6.790   6.156  16.698  0.00  0.00    +0.000 A 
ATOM     17  C   UNL     1       7.104   7.024  17.850  0.00  0.00    +0.000 C 
ENDBRANCH  10  11
ENDBRANCH   2  10
TORSDOF 5
ENDMDL
MODEL 2
REMARK VINA RESULT:      -6.5      1.199      1.248
REMARK  Name = 
REMARK  9 active torsions:
REMARK  status: ('A' for Active; 'I' for Inactive)
REMARK    1  A    between atoms: C_2  and  C_3
REMARK    2  A    between atoms: C_2  and  C_4
REMARK    3  A    between atoms: C_4  and  N_5
REMARK    4  A    between atoms: N_5  and  C_6
REMARK    5  A    between atoms: C_6  and  C_7
REMARK    6  A    between atoms: C_8  and  C_10
REMARK    7  A    between atoms: C_10  and  C_11
REMARK    8  A    between atoms: C_12  and  C_13
REMARK    9  A    between atoms: C_16  and  C_17
REMARK                            x       y       z     vdW  Elec       q    Type
REMARK                         _______ _______ _______ _____ _____    ______ ____
ROOT
ATOM      1  N   UNL     1       3.108   4.610  18.825  0.00  0.00    +0.000 N 
ATOM      2  C   UNL     1       3.957   3.679  18.207  0.00  0.00    +0.000 C 
ATOM      3  O   UNL     1       4.427   2.713  18.816  0.00  0.00    +0.000 OA
ENDROOT
BRANCH   1   4
ATOM      4  C   UNL     1       2.466   5.669  18.035  0.00  0.00    +0.000 C 
ATOM      5  C   UNL     1       2.914   7.105  18.227  0.00  0.00    +0.000 C 
ENDBRANCH   1   4
BRANCH   1   6
ATOM      6  C   UNL     1       2.733   4.377  20.233  0.00  0.00    +0.000 C 
BRANCH   6   8
ATOM      7  C   UNL     1       0.637   3.029  19.628  0.00  0.00    +0.000 C 
ATOM      8  C   UNL     1       1.634   3.354  20.469  0.00  0.00    +0.000 C 
ATOM      9  C   UNL     1       1.695   2.680  21.823  0.00  0.00    +0.000 C 
ENDBRANCH   6   8
ENDBRANCH   1   6
BRANCH   2  10
ATOM     10  C   UNL     1       4.311   3.870  16.725  0.00  0.00    +0.000 C 
BRANCH  10  11
ATOM     11  C   UNL     1       5.651   4.492  16.467  0.00  0.00    +0.000 A 
ATOM     12  C   UNL     1       6.367   4.547  15.229  0.00  0.00    +0.000 A 
ATOM     13  C   UNL     1       5.993   4.033  13.889  0.00  0.00    +0.000 C 
ATOM     14  N   UNL     1       7.538   5.180  15.363  0.00  0.00    +0.000 NA
ATOM     15  O   UNL     1       7.589   5.594  16.674  0.00  0.00    +0.000 OA
ATOM     16  C   UNL     1       6.467   5.203  17.326  0.00  0.00    +0.000 A 
ATOM     17  C   UNL     1       6.380   5.634  18.735  0.00  0.00    +0.000 C 
ENDBRANCH  10  11
ENDBRANCH   2  10
TORSDOF 5
ENDMDL
MODEL 3
REMARK VINA RESULT:      -6.5      1.328      1.913
REMARK  Name = 
REMARK  9 active torsions:
REMARK  status: ('A' for Active; 'I' for Inactive)
REMARK    1  A    between atoms: C_2  and  C_3
REMARK    2  A    between atoms: C_2  and  C_4
REMARK    3  A    between atoms: C_4  and  N_5
REMARK    4  A    between atoms: N_5  and  C_6
REMARK    5  A    between atoms: C_6  and  C_7
REMARK    6  A    between atoms: C_8  and  C_10
REMARK    7  A    between atoms: C_10  and  C_11
REMARK    8  A    between atoms: C_12  and  C_13
REMARK    9  A    between atoms: C_16  and  C_17
REMARK                            x       y       z     vdW  Elec       q    Type
REMARK                         _______ _______ _______ _____ _____    ______ ____
ROOT
ATOM      1  N   UNL     1       3.436   4.244  18.724  0.00  0.00    +0.000 N 
ATOM      2  C   UNL     1       4.358   5.293  18.583  0.00  0.00    +0.000 C 
ATOM      3  O   UNL     1       5.108   5.636  19.502  0.00  0.00    +0.000 OA
ENDROOT
BRANCH   1   4
ATOM      4  C   UNL     1       2.657   3.780  17.569  0.00  0.00    +0.000 C 
ATOM      5  C   UNL     1       2.485   2.289  17.347  0.00  0.00    +0.000 C 
ENDBRANCH   1   4
BRANCH   1   6
ATOM      6  C   UNL     1       3.417   3.506  20.002  0.00  0.00    +0.000 C 
BRANCH   6   8
ATOM      7  C   UNL     1       1.549   2.680  21.554  0.00  0.00    +0.000 C 
ATOM      8  C   UNL     1       2.148   3.641  20.829  0.00  0.00    +0.000 C 
ATOM      9  C   UNL     1       1.514   5.014  20.771  0.00  0.00    +0.000 C 
ENDBRANCH   6   8
ENDBRANCH   1   6
BRANCH   2  10
ATOM     10  C   UNL     1       4.436   6.034  17.240  0.00  0.00    +0.000 C 
BRANCH  10  11
ATOM     11  C   UNL     1       5.762   5.947  16.543  0.00  0.00    +0.000 A 
ATOM     12  C   UNL     1       6.114   5.120  15.431  0.00  0.00    +0.000 A 
ATOM     13  C   UNL     1       5.289   4.152  14.666  0.00  0.00    +0.000 C 
ATOM     14  N   UNL     1       7.387   5.298  15.065  0.00  0.00    +0.000 NA
ATOM     15  O   UNL     1       7.879   6.280  15.895  0.00  0.00    +0.000 OA
ATOM     16  C   UNL     1       6.915   6.677  16.760  0.00  0.00    +0.000 A 
ATOM     17  C   UNL     1       7.307   7.768  17.674  0.00  0.00    +0.000 C 
ENDBRANCH  10  11
ENDBRANCH   2  10
TORSDOF 5
ENDMDL
MODEL 4
REMARK VINA RESULT:      -6.5      1.260      2.005
REMARK  Name = 
REMARK  9 active torsions:
REMARK  status: ('A' for Active; 'I' for Inactive)
REMARK    1  A    between atoms: C_2  and  C_3
REMARK    2  A    between atoms: C_2  and  C_4
REMARK    3  A    between atoms: C_4  and  N_5
REMARK    4  A    between atoms: N_5  and  C_6
REMARK    5  A    between atoms: C_6  and  C_7
REMARK    6  A    between atoms: C_8  and  C_10
REMARK    7  A    between atoms: C_10  and  C_11
REMARK    8  A    between atoms: C_12  and  C_13
REMARK    9  A    between atoms: C_16  and  C_17
REMARK                            x       y       z     vdW  Elec       q    Type
REMARK                         _______ _______ _______ _____ _____    ______ ____
ROOT
ATOM      1  N   UNL     1       3.733   3.989  18.805  0.00  0.00    +0.000 N 
ATOM      2  C   UNL     1       3.865   4.715  17.611  0.00  0.00    +0.000 C 
ATOM      3  O   UNL     1       3.459   5.876  17.500  0.00  0.00    +0.000 OA
ENDROOT
BRANCH   1   4
ATOM      4  C   UNL     1       4.344   2.661  18.938  0.00  0.00    +0.000 C 
ATOM      5  C   UNL     1       3.539   1.437  18.544  0.00  0.00    +0.000 C 
ENDBRANCH   1   4
BRANCH   1   6
ATOM      6  C   UNL     1       3.136   4.673  19.968  0.00  0.00    +0.000 C 
BRANCH   6   8
ATOM      7  C   UNL     1       2.167   3.294  21.903  0.00  0.00    +0.000 C 
ATOM      8  C   UNL     1       2.054   3.904  20.710  0.00  0.00    +0.000 C 
ATOM      9  C   UNL     1       0.737   3.820  19.969  0.00  0.00    +0.000 C 
ENDBRANCH   6   8
ENDBRANCH   1   6
BRANCH   2  10
ATOM     10  C   UNL     1       4.538   4.042  16.406  0.00  0.00    +0.000 C 
BRANCH  10  11
ATOM     11  C   UNL     1       5.803   4.698  15.937  0.00  0.00    +0.000 A 
ATOM     12  C   UNL     1       6.376   4.659  14.627  0.00  0.00    +0.000 A 
ATOM     13  C   UNL     1       5.889   3.989  13.395  0.00  0.00    +0.000 C 
ATOM     14  N   UNL     1       7.513   5.359  14.563  0.00  0.00    +0.000 NA
ATOM     15  O   UNL     1       7.681   5.910  15.812  0.00  0.00    +0.000 OA
ATOM     16  C   UNL     1       6.663   5.534  16.623  0.00  0.00    +0.000 A 
ATOM     17  C   UNL     1       6.703   6.106  17.984  0.00  0.00    +0.000 C 
ENDBRANCH  10  11
ENDBRANCH   2  10
TORSDOF 5
ENDMDL
MODEL 5
REMARK VINA RESULT:      -6.4      1.384      2.378
REMARK  Name = 
REMARK  9 active torsions:
REMARK  status: ('A' for Active; 'I' for Inactive)
REMARK    1  A    between atoms: C_2  and  C_3
REMARK    2  A    between atoms: C_2  and  C_4
REMARK    3  A    between atoms: C_4  and  N_5
REMARK    4  A    between atoms: N_5  and  C_6
REMARK    5  A    between atoms: C_6  and  C_7
REMARK    6  A    between atoms: C_8  and  C_10
REMARK    7  A    between atoms: C_10  and  C_11
REMARK    8  A    between atoms: C_12  and  C_13
REMARK    9  A    between atoms: C_16  and  C_17
REMARK                            x       y       z     vdW  Elec       q    Type
REMARK                         _______ _______ _______ _____ _____    ______ ____
ROOT
ATOM      1  N   UNL     1       2.819   4.998  18.733  0.00  0.00    +0.000 N 
ATOM      2  C   UNL     1       3.416   4.642  17.514  0.00  0.00    +0.000 C 
ATOM      3  O   UNL     1       3.165   3.574  16.947  0.00  0.00    +0.000 OA
ENDROOT
BRANCH   1   4
ATOM      4  C   UNL     1       3.042   6.331  19.308  0.00  0.00    +0.000 C 
ATOM      5  C   UNL     1       2.318   7.522  18.709  0.00  0.00    +0.000 C 
ENDBRANCH   1   4
BRANCH   1   6
ATOM      6  C   UNL     1       1.821   4.077  19.311  0.00  0.00    +0.000 C 
BRANCH   6   8
ATOM      7  C   UNL     1       3.548   2.559  20.450  0.00  0.00    +0.000 C 
ATOM      8  C   UNL     1       2.333   3.132  20.387  0.00  0.00    +0.000 C 
ATOM      9  C   UNL     1       1.317   2.810  21.461  0.00  0.00    +0.000 C 
ENDBRANCH   6   8
ENDBRANCH   1   6
BRANCH   2  10
ATOM     10  C   UNL     1       4.412   5.615  16.866  0.00  0.00    +0.000 C 
BRANCH  10  11
ATOM     11  C   UNL     1       5.833   5.138  16.829  0.00  0.00    +0.000 A 
ATOM     12  C   UNL     1       6.759   5.060  17.918  0.00  0.00    +0.000 A 
ATOM     13  C   UNL     1       6.576   5.405  19.350  0.00  0.00    +0.000 C 
ATOM     14  N   UNL     1       7.946   4.587  17.525  0.00  0.00    +0.000 NA
ATOM     15  O   UNL     1       7.807   4.299  16.186  0.00  0.00    +0.000 OA
ATOM     16  C   UNL     1       6.554   4.609  15.775  0.00  0.00    +0.000 A 
ATOM     17  C   UNL     1       6.264   4.297  14.362  0.00  0.00    +0.000 C 
ENDBRANCH  10  11
ENDBRANCH   2  10
TORSDOF 5
ENDMDL
MODEL 6
REMARK VINA RESULT:      -6.4      1.330      2.832
REMARK  Name = 
REMARK  9 active torsions:
REMARK  status: ('A' for Active; 'I' for Inactive)
REMARK    1  A    between atoms: C_2  and  C_3
REMARK    2  A    between atoms: C_2  and  C_4
REMARK    3  A    between atoms: C_4  and  N_5
REMARK    4  A    between atoms: N_5  and  C_6
REMARK    5  A    between atoms: C_6  and  C_7
REMARK    6  A    between atoms: C_8  and  C_10
REMARK    7  A    between atoms: C_10  and  C_11
REMARK    8  A    between atoms: C_12  and  C_13
REMARK    9  A    between atoms: C_16  and  C_17
REMARK                            x       y       z     vdW  Elec       q    Type
REMARK                         _______ _______ _______ _____ _____    ______ ____
ROOT
ATOM      1  N   UNL     1       3.146   3.199  18.356  0.00  0.00    +0.000 N 
ATOM      2  C   UNL     1       3.992   4.056  17.634  0.00  0.00    +0.000 C 
ATOM      3  O   UNL     1       3.616   5.159  17.225  0.00  0.00    +0.000 OA
ENDROOT
BRANCH   1   4
ATOM      4  C   UNL     1       3.669   1.957  18.938  0.00  0.00    +0.000 C 
ATOM      5  C   UNL     1       4.465   2.025  20.228  0.00  0.00    +0.000 C 
ENDBRANCH   1   4
BRANCH   1   6
ATOM      6  C   UNL     1       1.786   3.674  18.672  0.00  0.00    +0.000 C 
BRANCH   6   8
ATOM      7  C   UNL     1       1.849   5.476  20.497  0.00  0.00    +0.000 C 
ATOM      8  C   UNL     1       1.582   4.229  20.074  0.00  0.00    +0.000 C 
ATOM      9  C   UNL     1       1.050   3.218  21.067  0.00  0.00    +0.000 C 
ENDBRANCH   6   8
ENDBRANCH   1   6
BRANCH   2  10
ATOM     10  C   UNL     1       5.432   3.606  17.348  0.00  0.00    +0.000 C 
BRANCH  10  11
ATOM     11  C   UNL     1       6.265   4.592  16.583  0.00  0.00    +0.000 A 
ATOM     12  C   UNL     1       7.090   5.635  17.110  0.00  0.00    +0.000 A 
ATOM     13  C   UNL     1       7.357   6.018  18.518  0.00  0.00    +0.000 C 
ATOM     14  N   UNL     1       7.693   6.328  16.138  0.00  0.00    +0.000 NA
ATOM     15  O   UNL     1       7.316   5.721  14.961  0.00  0.00    +0.000 OA
ATOM     16  C   UNL     1       6.484   4.684  15.222  0.00  0.00    +0.000 A 
ATOM     17  C   UNL     1       6.049   3.918  14.037  0.00  0.00    +0.000 C 
ENDBRANCH  10  11
ENDBRANCH   2  10
TORSDOF 5
ENDMDL
MODEL 7
REMARK VINA RESULT:      -6.4      1.971      5.782
REMARK  Name = 
REMARK  9 active torsions:
REMARK  status: ('A' for Active; 'I' for Inactive)
REMARK    1  A    between atoms: C_2  and  C_3
REMARK    2  A    between atoms: C_2  and  C_4
REMARK    3  A    between atoms: C_4  and  N_5
REMARK    4  A    between atoms: N_5  and  C_6
REMARK    5  A    between atoms: C_6  and  C_7
REMARK    6  A    between atoms: C_8  and  C_10
REMARK    7  A    between atoms: C_10  and  C_11
REMARK    8  A    between atoms: C_12  and  C_13
REMARK    9  A    between atoms: C_16  and  C_17
REMARK                            x       y       z     vdW  Elec       q    Type
REMARK                         _______ _______ _______ _____ _____    ______ ____
ROOT
ATOM      1  N   UNL     1       5.804   4.518  17.012  0.00  0.00    +0.000 N 
ATOM      2  C   UNL     1       4.910   4.062  17.994  0.00  0.00    +0.000 C 
ATOM      3  O   UNL     1       5.283   3.755  19.130  0.00  0.00    +0.000 OA
ENDROOT
BRANCH   1   4
ATOM      4  C   UNL     1       5.303   4.998  15.718  0.00  0.00    +0.000 C 
ATOM      5  C   UNL     1       6.011   4.563  14.448  0.00  0.00    +0.000 C 
ENDBRANCH   1   4
BRANCH   1   6
ATOM      6  C   UNL     1       7.221   4.680  17.388  0.00  0.00    +0.000 C 
BRANCH   6   8
ATOM      7  C   UNL     1       7.565   7.218  17.540  0.00  0.00    +0.000 C 
ATOM      8  C   UNL     1       7.582   5.986  18.079  0.00  0.00    +0.000 C 
ATOM      9  C   UNL     1       8.033   5.823  19.514  0.00  0.00    +0.000 C 
ENDBRANCH   6   8
ENDBRANCH   1   6
BRANCH   2  10
ATOM     10  C   UNL     1       3.420   3.945  17.641  0.00  0.00    +0.000 C 
BRANCH  10  11
ATOM     11  C   UNL     1       2.475   4.250  18.766  0.00  0.00    +0.000 A 
ATOM     12  C   UNL     1       1.640   3.335  19.480  0.00  0.00    +0.000 A 
ATOM     13  C   UNL     1       1.485   1.867  19.325  0.00  0.00    +0.000 C 
ATOM     14  N   UNL     1       0.923   3.953  20.425  0.00  0.00    +0.000 NA
ATOM     15  O   UNL     1       1.311   5.273  20.381  0.00  0.00    +0.000 OA
ATOM     16  C   UNL     1       2.240   5.449  19.412  0.00  0.00    +0.000 A 
ATOM     17  C   UNL     1       2.775   6.820  19.300  0.00  0.00    +0.000 C 
ENDBRANCH  10  11
ENDBRANCH   2  10
TORSDOF 5
ENDMDL
MODEL 8
REMARK VINA RESULT:      -6.4      1.325      2.404
REMARK  Name = 
REMARK  9 active torsions:
REMARK  status: ('A' for Active; 'I' for Inactive)
REMARK    1  A    between atoms: C_2  and  C_3
REMARK    2  A    between atoms: C_2  and  C_4
REMARK    3  A    between atoms: C_4  and  N_5
REMARK    4  A    between atoms: N_5  and  C_6
REMARK    5  A    between atoms: C_6  and  C_7
REMARK    6  A    between atoms: C_8  and  C_10
REMARK    7  A    between atoms: C_10  and  C_11
REMARK    8  A    between atoms: C_12  and  C_13
REMARK    9  A    between atoms: C_16  and  C_17
REMARK                            x       y       z     vdW  Elec       q    Type
REMARK                         _______ _______ _______ _____ _____    ______ ____
ROOT
ATOM      1  N   UNL     1       2.469   4.195  18.446  0.00  0.00    +0.000 N 
ATOM      2  C   UNL     1       3.437   3.814  17.504  0.00  0.00    +0.000 C 
ATOM      3  O   UNL     1       3.693   2.629  17.268  0.00  0.00    +0.000 OA
ENDROOT
BRANCH   1   4
ATOM      4  C   UNL     1       2.101   5.608  18.603  0.00  0.00    +0.000 C 
ATOM      5  C   UNL     1       2.355   6.292  19.933  0.00  0.00    +0.000 C 
ENDBRANCH   1   4
BRANCH   1   6
ATOM      6  C   UNL     1       1.706   3.130  19.125  0.00  0.00    +0.000 C 
BRANCH   6   8
ATOM      7  C   UNL     1       1.355   2.733  21.635  0.00  0.00    +0.000 C 
ATOM      8  C   UNL     1       2.140   2.802  20.545  0.00  0.00    +0.000 C 
ATOM      9  C   UNL     1       3.627   2.567  20.700  0.00  0.00    +0.000 C 
ENDBRANCH   6   8
ENDBRANCH   1   6
BRANCH   2  10
ATOM     10  C   UNL     1       4.200   4.908  16.743  0.00  0.00    +0.000 C 
BRANCH  10  11
ATOM     11  C   UNL     1       5.694   4.771  16.763  0.00  0.00    +0.000 A 
ATOM     12  C   UNL     1       6.573   4.930  17.881  0.00  0.00    +0.000 A 
ATOM     13  C   UNL     1       6.264   5.251  19.297  0.00  0.00    +0.000 C 
ATOM     14  N   UNL     1       7.850   4.736  17.537  0.00  0.00    +0.000 NA
ATOM     15  O   UNL     1       7.829   4.398  16.203  0.00  0.00    +0.000 OA
ATOM     16  C   UNL     1       6.554   4.403  15.746  0.00  0.00    +0.000 A 
ATOM     17  C   UNL     1       6.395   4.005  14.333  0.00  0.00    +0.000 C 
ENDBRANCH  10  11
ENDBRANCH   2  10
TORSDOF 5
ENDMDL
MODEL 9
REMARK VINA RESULT:      -6.4      0.499      1.973
REMARK  Name = 
REMARK  9 active torsions:
REMARK  status: ('A' for Active; 'I' for Inactive)
REMARK    1  A    between atoms: C_2  and  C_3
REMARK    2  A    between atoms: C_2  and  C_4
REMARK    3  A    between atoms: C_4  and  N_5
REMARK    4  A    between atoms: N_5  and  C_6
REMARK    5  A    between atoms: C_6  and  C_7
REMARK    6  A    between atoms: C_8  and  C_10
REMARK    7  A    between atoms: C_10  and  C_11
REMARK    8  A    between atoms: C_12  and  C_13
REMARK    9  A    between atoms: C_16  and  C_17
REMARK                            x       y       z     vdW  Elec       q    Type
REMARK                         _______ _______ _______ _____ _____    ______ ____
ROOT
ATOM      1  N   UNL     1       3.935   4.205  19.090  0.00  0.00    +0.000 N 
ATOM      2  C   UNL     1       4.108   4.050  17.705  0.00  0.00    +0.000 C 
ATOM      3  O   UNL     1       4.129   2.939  17.166  0.00  0.00    +0.000 OA
ENDROOT
BRANCH   1   4
ATOM      4  C   UNL     1       3.784   5.544  19.674  0.00  0.00    +0.000 C 
ATOM      5  C   UNL     1       2.401   6.163  19.751  0.00  0.00    +0.000 C 
ENDBRANCH   1   4
BRANCH   1   6
ATOM      6  C   UNL     1       3.719   2.991  19.901  0.00  0.00    +0.000 C 
BRANCH   6   8
ATOM      7  C   UNL     1       1.343   2.234  19.302  0.00  0.00    +0.000 C 
ATOM      8  C   UNL     1       2.270   2.633  20.190  0.00  0.00    +0.000 C 
ATOM      9  C   UNL     1       1.871   2.790  21.641  0.00  0.00    +0.000 C 
ENDBRANCH   6   8
ENDBRANCH   1   6
BRANCH   2  10
ATOM     10  C   UNL     1       4.274   5.305  16.836  0.00  0.00    +0.000 C 
BRANCH  10  11
ATOM     11  C   UNL     1       5.613   5.446  16.174  0.00  0.00    +0.000 A 
ATOM     12  C   UNL     1       6.776   6.106  16.682  0.00  0.00    +0.000 A 
ATOM     13  C   UNL     1       6.985   6.805  17.974  0.00  0.00    +0.000 C 
ATOM     14  N   UNL     1       7.799   6.039  15.823  0.00  0.00    +0.000 NA
ATOM     15  O   UNL     1       7.342   5.293  14.760  0.00  0.00    +0.000 OA
ATOM     16  C   UNL     1       6.055   4.927  14.971  0.00  0.00    +0.000 A 
ATOM     17  C   UNL     1       5.466   4.075  13.919  0.00  0.00    +0.000 C 
ENDBRANCH  10  11
ENDBRANCH   2  10
TORSDOF 5
ENDMDL
