MODEL 1
REMARK VINA RESULT:      -8.7      0.000      0.000
REMARK  Name = 
REMARK  10 active torsions:
REMARK  status: ('A' for Active; 'I' for Inactive)
REMARK    1  A    between atoms: C_1  and  O_2
REMARK    2  A    between atoms: O_2  and  C_3
REMARK    3  A    between atoms: C_6  and  C_7
REMARK    4  A    between atoms: C_7  and  N_8
REMARK    5  A    between atoms: C_10  and  C_11
REMARK    6  A    between atoms: C_15  and  N_16
REMARK    7  A    between atoms: N_16  and  C_17
REMARK    8  A    between atoms: C_19  and  O_20
REMARK    9  A    between atoms: C_22  and  O_23
REMARK   10  A    between atoms: C_24  and  C_25
REMARK                            x       y       z     vdW  Elec       q    Type
REMARK                         _______ _______ _______ _____ _____    ______ ____
ROOT
ATOM      1  C   UNL     1       2.799   5.392  19.478  0.00  0.00    +0.000 A 
ATOM      2  C   UNL     1       1.664   4.762  20.053  0.00  0.00    +0.000 A 
ATOM      3  C   UNL     1       1.718   3.479  20.560  0.00  0.00    +0.000 A 
ATOM      4  C   UNL     1       2.888   2.755  20.471  0.00  0.00    +0.000 A 
ATOM      5  C   UNL     1       4.007   3.319  19.841  0.00  0.00    +0.000 A 
ATOM      6  C   UNL     1       4.021   4.655  19.382  0.00  0.00    +0.000 A 
ENDROOT
BRANCH   6   7
ATOM      7  C   UNL     1       5.197   5.229  18.636  0.00  0.00    +0.000 C 
ATOM      8  O   UNL     1       6.070   5.760  19.335  0.00  0.00    +0.000 OA
ATOM      9  N   UNL     1       5.333   5.196  17.243  0.00  0.00    +0.000 N 
ATOM     10  C   UNL     1       6.524   5.871  16.632  0.00  0.00    +0.000 C 
ATOM     11  C   UNL     1       6.565   5.219  15.317  0.00  0.00    +0.000 A 
ATOM     12  C   UNL     1       7.352   5.023  14.189  0.00  0.00    +0.000 A 
ATOM     13  N   UNL     1       6.735   4.221  13.297  0.00  0.00    +0.000 NA
ATOM     14  N   UNL     1       5.563   3.887  13.898  0.00  0.00    +0.000 N 
ATOM     15  C   UNL     1       5.458   4.457  15.114  0.00  0.00    +0.000 A 
ATOM     16  C   UNL     1       4.511   4.453  16.231  0.00  0.00    +0.000 C 
ATOM     17  H   UNL     1       4.929   3.266  13.405  0.00  0.00    +0.000 HD
ENDBRANCH   6   7
BRANCH   1  18
ATOM     18  N   UNL     1       2.658   6.769  19.060  0.00  0.00    +0.000 N 
ATOM     19  H   UNL     1       2.686   6.816  18.034  0.00  0.00    +0.000 HD
BRANCH  18  24
ATOM     20  N   UNL     1       1.583   8.946  19.415  0.00  0.00    +0.000 N 
ATOM     21  N   UNL     1       0.687   9.513  20.267  0.00  0.00    +0.000 NA
ATOM     22  C   UNL     1       0.631   8.662  21.290  0.00  0.00    +0.000 A 
ATOM     23  C   UNL     1       1.491   7.565  21.113  0.00  0.00    +0.000 A 
ATOM     24  C   UNL     1       1.992   7.691  19.827  0.00  0.00    +0.000 A 
BRANCH  22  25
ATOM     25  C   UNL     1      -0.334   8.789  22.463  0.00  0.00    +0.000 C 
ATOM     26  C   UNL     1       0.120   9.400  23.770  0.00  0.00    +0.000 C 
ATOM     27  C   UNL     1      -0.760  10.191  22.866  0.00  0.00    +0.000 C 
ENDBRANCH  22  25
BRANCH  20  28
ATOM     28  C   UNL     1       1.853   9.628  18.156  0.00  0.00    +0.000 C 
BRANCH  28  32
ATOM     29  C   UNL     1       1.204  13.904  18.431  0.00  0.00    +0.000 A 
ATOM     30  C   UNL     1       2.472  13.412  18.126  0.00  0.00    +0.000 A 
ATOM     31  C   UNL     1       2.695  12.038  18.012  0.00  0.00    +0.000 A 
ATOM     32  C   UNL     1       1.656  11.125  18.242  0.00  0.00    +0.000 A 
ATOM     33  C   UNL     1       0.380  11.630  18.532  0.00  0.00    +0.000 A 
ATOM     34  C   UNL     1       0.155  13.008  18.629  0.00  0.00    +0.000 A 
BRANCH  29  36
ATOM     35  C   UNL     1      -0.182  15.795  18.749  0.00  0.00    +0.000 C 
ATOM     36  O   UNL     1       1.122  15.263  18.550  0.00  0.00    +0.000 OA
ENDBRANCH  29  36
ENDBRANCH  28  32
ENDBRANCH  20  28
ENDBRANCH  18  24
ENDBRANCH   1  18
BRANCH   3  37
ATOM     37  O   UNL     1       0.625   2.903  21.138  0.00  0.00    +0.000 OA
ATOM     38  H   UNL     1      -0.084   3.562  21.205  0.00  0.00    +0.000 HD
ENDBRANCH   3  37
BRANCH   5  39
ATOM     39  O   UNL     1       5.063   2.473  19.632  0.00  0.00    +0.000 OA
ATOM     40  H   UNL     1       5.073   1.788  20.323  0.00  0.00    +0.000 HD
ENDBRANCH   5  39
TORSDOF 9
ENDMDL
MODEL 2
REMARK VINA RESULT:      -8.6      1.767      2.184
REMARK  Name = 
REMARK  10 active torsions:
REMARK  status: ('A' for Active; 'I' for Inactive)
REMARK    1  A    between atoms: C_1  and  O_2
REMARK    2  A    between atoms: O_2  and  C_3
REMARK    3  A    between atoms: C_6  and  C_7
REMARK    4  A    between atoms: C_7  and  N_8
REMARK    5  A    between atoms: C_10  and  C_11
REMARK    6  A    between atoms: C_15  and  N_16
REMARK    7  A    between atoms: N_16  and  C_17
REMARK    8  A    between atoms: C_19  and  O_20
REMARK    9  A    between atoms: C_22  and  O_23
REMARK   10  A    between atoms: C_24  and  C_25
REMARK                            x       y       z     vdW  Elec       q    Type
REMARK                         _______ _______ _______ _____ _____    ______ ____
ROOT
ATOM      1  C   UNL     1       2.722   5.379  19.404  0.00  0.00    +0.000 A 
ATOM      2  C   UNL     1       1.605   4.730  19.992  0.00  0.00    +0.000 A 
ATOM      3  C   UNL     1       1.702   3.473  20.554  0.00  0.00    +0.000 A 
ATOM      4  C   UNL     1       2.900   2.791  20.509  0.00  0.00    +0.000 A 
ATOM      5  C   UNL     1       4.004   3.372  19.869  0.00  0.00    +0.000 A 
ATOM      6  C   UNL     1       3.973   4.686  19.353  0.00  0.00    +0.000 A 
ENDROOT
BRANCH   6   7
ATOM      7  C   UNL     1       5.136   5.274  18.597  0.00  0.00    +0.000 C 
ATOM      8  O   UNL     1       5.987   5.852  19.284  0.00  0.00    +0.000 OA
ATOM      9  N   UNL     1       5.282   5.202  17.206  0.00  0.00    +0.000 N 
ATOM     10  C   UNL     1       6.455   5.896  16.581  0.00  0.00    +0.000 C 
ATOM     11  C   UNL     1       6.525   5.205  15.288  0.00  0.00    +0.000 A 
ATOM     12  C   UNL     1       7.325   4.999  14.170  0.00  0.00    +0.000 A 
ATOM     13  N   UNL     1       6.740   4.152  13.300  0.00  0.00    +0.000 NA
ATOM     14  N   UNL     1       5.575   3.800  13.904  0.00  0.00    +0.000 N 
ATOM     15  C   UNL     1       5.444   4.403  15.101  0.00  0.00    +0.000 A 
ATOM     16  C   UNL     1       4.489   4.403  16.213  0.00  0.00    +0.000 C 
ATOM     17  H   UNL     1       4.963   3.145  13.426  0.00  0.00    +0.000 HD
ENDBRANCH   6   7
BRANCH   1  18
ATOM     18  N   UNL     1       2.534   6.730  18.925  0.00  0.00    +0.000 N 
ATOM     19  H   UNL     1       2.350   6.709  17.914  0.00  0.00    +0.000 HD
BRANCH  18  24
ATOM     20  N   UNL     1       1.390   8.861  19.335  0.00  0.00    +0.000 N 
ATOM     21  N   UNL     1       0.778   9.508  20.364  0.00  0.00    +0.000 NA
ATOM     22  C   UNL     1       1.181   8.846  21.447  0.00  0.00    +0.000 A 
ATOM     23  C   UNL     1       2.055   7.793  21.128  0.00  0.00    +0.000 A 
ATOM     24  C   UNL     1       2.065   7.725  19.744  0.00  0.00    +0.000 A 
BRANCH  22  25
ATOM     25  C   UNL     1       0.670   9.111  22.858  0.00  0.00    +0.000 C 
ATOM     26  C   UNL     1      -0.287  10.250  23.129  0.00  0.00    +0.000 C 
ATOM     27  C   UNL     1      -0.804   8.854  23.125  0.00  0.00    +0.000 C 
ENDBRANCH  22  25
BRANCH  20  28
ATOM     28  C   UNL     1       1.126   9.331  17.982  0.00  0.00    +0.000 C 
BRANCH  28  32
ATOM     29  C   UNL     1      -2.698  11.332  17.584  0.00  0.00    +0.000 A 
ATOM     30  C   UNL     1      -1.655  11.955  18.269  0.00  0.00    +0.000 A 
ATOM     31  C   UNL     1      -0.410  11.334  18.388  0.00  0.00    +0.000 A 
ATOM     32  C   UNL     1      -0.196  10.055  17.855  0.00  0.00    +0.000 A 
ATOM     33  C   UNL     1      -1.246   9.443  17.154  0.00  0.00    +0.000 A 
ATOM     34  C   UNL     1      -2.488  10.074  17.021  0.00  0.00    +0.000 A 
BRANCH  29  36
ATOM     35  C   UNL     1      -4.908  11.479  16.754  0.00  0.00    +0.000 C 
ATOM     36  O   UNL     1      -3.876  12.024  17.567  0.00  0.00    +0.000 OA
ENDBRANCH  29  36
ENDBRANCH  28  32
ENDBRANCH  20  28
ENDBRANCH  18  24
ENDBRANCH   1  18
BRANCH   3  37
ATOM     37  O   UNL     1       0.624   2.879  21.144  0.00  0.00    +0.000 OA
ATOM     38  H   UNL     1       0.819   1.940  21.288  0.00  0.00    +0.000 HD
ENDBRANCH   3  37
BRANCH   5  39
ATOM     39  O   UNL     1       5.095   2.560  19.709  0.00  0.00    +0.000 OA
ATOM     40  H   UNL     1       5.825   3.068  19.315  0.00  0.00    +0.000 HD
ENDBRANCH   5  39
TORSDOF 9
ENDMDL
MODEL 3
REMARK VINA RESULT:      -8.2      4.808     10.579
REMARK  Name = 
REMARK  10 active torsions:
REMARK  status: ('A' for Active; 'I' for Inactive)
REMARK    1  A    between atoms: C_1  and  O_2
REMARK    2  A    between atoms: O_2  and  C_3
REMARK    3  A    between atoms: C_6  and  C_7
REMARK    4  A    between atoms: C_7  and  N_8
REMARK    5  A    between atoms: C_10  and  C_11
REMARK    6  A    between atoms: C_15  and  N_16
REMARK    7  A    between atoms: N_16  and  C_17
REMARK    8  A    between atoms: C_19  and  O_20
REMARK    9  A    between atoms: C_22  and  O_23
REMARK   10  A    between atoms: C_24  and  C_25
REMARK                            x       y       z     vdW  Elec       q    Type
REMARK                         _______ _______ _______ _____ _____    ______ ____
ROOT
ATOM      1  C   UNL     1      -2.157  12.727  20.940  0.00  0.00    +0.000 A 
ATOM      2  C   UNL     1      -1.264  11.860  21.622  0.00  0.00    +0.000 A 
ATOM      3  C   UNL     1      -1.538  11.373  22.884  0.00  0.00    +0.000 A 
ATOM      4  C   UNL     1      -2.685  11.771  23.539  0.00  0.00    +0.000 A 
ATOM      5  C   UNL     1      -3.552  12.686  22.925  0.00  0.00    +0.000 A 
ATOM      6  C   UNL     1      -3.353  13.145  21.604  0.00  0.00    +0.000 A 
ENDROOT
BRANCH   6   7
ATOM      7  C   UNL     1      -4.243  14.188  20.980  0.00  0.00    +0.000 C 
ATOM      8  O   UNL     1      -4.039  15.355  21.340  0.00  0.00    +0.000 OA
ATOM      9  N   UNL     1      -5.254  13.903  20.055  0.00  0.00    +0.000 N 
ATOM     10  C   UNL     1      -6.111  15.034  19.570  0.00  0.00    +0.000 C 
ATOM     11  C   UNL     1      -6.656  14.456  18.336  0.00  0.00    +0.000 A 
ATOM     12  C   UNL     1      -7.335  14.761  17.161  0.00  0.00    +0.000 A 
ATOM     13  N   UNL     1      -7.492  13.666  16.391  0.00  0.00    +0.000 NA
ATOM     14  N   UNL     1      -6.870  12.675  17.082  0.00  0.00    +0.000 N 
ATOM     15  C   UNL     1      -6.346  13.137  18.233  0.00  0.00    +0.000 A 
ATOM     16  C   UNL     1      -5.549  12.613  19.345  0.00  0.00    +0.000 C 
ATOM     17  H   UNL     1      -6.851  11.744  16.677  0.00  0.00    +0.000 HD
ENDBRANCH   6   7
BRANCH   1  18
ATOM     18  N   UNL     1      -1.818  13.106  19.586  0.00  0.00    +0.000 N 
ATOM     19  H   UNL     1      -1.257  13.967  19.605  0.00  0.00    +0.000 HD
BRANCH  18  24
ATOM     20  N   UNL     1      -0.642  11.331  18.366  0.00  0.00    +0.000 N 
ATOM     21  N   UNL     1      -0.937  10.316  17.509  0.00  0.00    +0.000 NA
ATOM     22  C   UNL     1      -2.167  10.600  17.083  0.00  0.00    +0.000 A 
ATOM     23  C   UNL     1      -2.659  11.791  17.643  0.00  0.00    +0.000 A 
ATOM     24  C   UNL     1      -1.716  12.176  18.583  0.00  0.00    +0.000 A 
BRANCH  22  25
ATOM     25  C   UNL     1      -3.000   9.689  16.189  0.00  0.00    +0.000 C 
ATOM     26  C   UNL     1      -4.139  10.249  15.367  0.00  0.00    +0.000 C 
ATOM     27  C   UNL     1      -2.868   9.877  14.687  0.00  0.00    +0.000 C 
ENDBRANCH  22  25
BRANCH  20  28
ATOM     28  C   UNL     1       0.648  11.301  19.040  0.00  0.00    +0.000 C 
BRANCH  28  32
ATOM     29  C   UNL     1       2.325   7.314  19.308  0.00  0.00    +0.000 A 
ATOM     30  C   UNL     1       1.620   7.845  20.387  0.00  0.00    +0.000 A 
ATOM     31  C   UNL     1       1.054   9.120  20.310  0.00  0.00    +0.000 A 
ATOM     32  C   UNL     1       1.219   9.905  19.161  0.00  0.00    +0.000 A 
ATOM     33  C   UNL     1       1.916   9.356  18.074  0.00  0.00    +0.000 A 
ATOM     34  C   UNL     1       2.468   8.072  18.147  0.00  0.00    +0.000 A 
BRANCH  29  36
ATOM     35  C   UNL     1       2.304   5.016  18.748  0.00  0.00    +0.000 C 
ATOM     36  O   UNL     1       2.860   6.074  19.519  0.00  0.00    +0.000 OA
ENDBRANCH  29  36
ENDBRANCH  28  32
ENDBRANCH  20  28
ENDBRANCH  18  24
ENDBRANCH   1  18
BRANCH   3  37
ATOM     37  O   UNL     1      -0.682  10.515  23.510  0.00  0.00    +0.000 OA
ATOM     38  H   UNL     1      -0.479   9.778  22.913  0.00  0.00    +0.000 HD
ENDBRANCH   3  37
BRANCH   5  39
ATOM     39  O   UNL     1      -4.566  13.166  23.710  0.00  0.00    +0.000 OA
ATOM     40  H   UNL     1      -5.155  13.726  23.176  0.00  0.00    +0.000 HD
ENDBRANCH   5  39
TORSDOF 9
ENDMDL
MODEL 4
REMARK VINA RESULT:      -8.2      3.893      9.867
REMARK  Name = 
REMARK  10 active torsions:
REMARK  status: ('A' for Active; 'I' for Inactive)
REMARK    1  A    between atoms: C_1  and  O_2
REMARK    2  A    between atoms: O_2  and  C_3
REMARK    3  A    between atoms: C_6  and  C_7
REMARK    4  A    between atoms: C_7  and  N_8
REMARK    5  A    between atoms: C_10  and  C_11
REMARK    6  A    between atoms: C_15  and  N_16
REMARK    7  A    between atoms: N_16  and  C_17
REMARK    8  A    between atoms: C_19  and  O_20
REMARK    9  A    between atoms: C_22  and  O_23
REMARK   10  A    between atoms: C_24  and  C_25
REMARK                            x       y       z     vdW  Elec       q    Type
REMARK                         _______ _______ _______ _____ _____    ______ ____
ROOT
ATOM      1  C   UNL     1      -0.951  12.459  21.970  0.00  0.00    +0.000 A 
ATOM      2  C   UNL     1      -1.980  11.766  22.659  0.00  0.00    +0.000 A 
ATOM      3  C   UNL     1      -2.838  12.408  23.530  0.00  0.00    +0.000 A 
ATOM      4  C   UNL     1      -2.674  13.753  23.787  0.00  0.00    +0.000 A 
ATOM      5  C   UNL     1      -1.620  14.453  23.181  0.00  0.00    +0.000 A 
ATOM      6  C   UNL     1      -0.771  13.856  22.224  0.00  0.00    +0.000 A 
ENDROOT
BRANCH   6   7
ATOM      7  C   UNL     1       0.407  14.588  21.636  0.00  0.00    +0.000 C 
ATOM      8  O   UNL     1       1.521  14.213  22.024  0.00  0.00    +0.000 OA
ATOM      9  N   UNL     1       0.297  15.636  20.715  0.00  0.00    +0.000 N 
ATOM     10  C   UNL     1       1.554  16.322  20.269  0.00  0.00    +0.000 C 
ATOM     11  C   UNL     1       1.096  16.954  19.026  0.00  0.00    +0.000 A 
ATOM     12  C   UNL     1       1.528  17.589  17.867  0.00  0.00    +0.000 A 
ATOM     13  N   UNL     1       0.489  17.909  17.070  0.00  0.00    +0.000 NA
ATOM     14  N   UNL     1      -0.600  17.434  17.728  0.00  0.00    +0.000 N 
ATOM     15  C   UNL     1      -0.251  16.840  18.885  0.00  0.00    +0.000 A 
ATOM     16  C   UNL     1      -0.916  16.121  19.975  0.00  0.00    +0.000 C 
ATOM     17  H   UNL     1      -1.513  17.554  17.299  0.00  0.00    +0.000 HD
ENDBRANCH   6   7
BRANCH   1  18
ATOM     18  N   UNL     1      -0.167  11.711  21.013  0.00  0.00    +0.000 N 
ATOM     19  H   UNL     1       0.541  11.158  21.513  0.00  0.00    +0.000 HD
BRANCH  18  24
ATOM     20  N   UNL     1       0.020  10.719  18.777  0.00  0.00    +0.000 N 
ATOM     21  N   UNL     1      -0.795  10.185  17.827  0.00  0.00    +0.000 NA
ATOM     22  C   UNL     1      -2.014  10.581  18.189  0.00  0.00    +0.000 A 
ATOM     23  C   UNL     1      -1.990  11.374  19.348  0.00  0.00    +0.000 A 
ATOM     24  C   UNL     1      -0.681  11.334  19.798  0.00  0.00    +0.000 A 
BRANCH  22  25
ATOM     25  C   UNL     1      -3.302  10.136  17.506  0.00  0.00    +0.000 C 
ATOM     26  C   UNL     1      -4.233  11.151  16.882  0.00  0.00    +0.000 C 
ATOM     27  C   UNL     1      -3.385  10.305  15.997  0.00  0.00    +0.000 C 
ENDBRANCH  22  25
BRANCH  20  28
ATOM     28  C   UNL     1       1.447  10.440  18.685  0.00  0.00    +0.000 C 
BRANCH  28  32
ATOM     29  C   UNL     1       2.361   6.275  19.457  0.00  0.00    +0.000 A 
ATOM     30  C   UNL     1       2.633   6.825  18.205  0.00  0.00    +0.000 A 
ATOM     31  C   UNL     1       2.365   8.172  17.946  0.00  0.00    +0.000 A 
ATOM     32  C   UNL     1       1.780   8.984  18.927  0.00  0.00    +0.000 A 
ATOM     33  C   UNL     1       1.526   8.425  20.188  0.00  0.00    +0.000 A 
ATOM     34  C   UNL     1       1.811   7.081  20.451  0.00  0.00    +0.000 A 
BRANCH  29  36
ATOM     35  C   UNL     1       4.004   4.573  19.469  0.00  0.00    +0.000 C 
ATOM     36  O   UNL     1       2.635   4.940  19.575  0.00  0.00    +0.000 OA
ENDBRANCH  29  36
ENDBRANCH  28  32
ENDBRANCH  20  28
ENDBRANCH  18  24
ENDBRANCH   1  18
BRANCH   3  37
ATOM     37  O   UNL     1      -3.842  11.732  24.158  0.00  0.00    +0.000 OA
ATOM     38  H   UNL     1      -3.663  10.780  24.109  0.00  0.00    +0.000 HD
ENDBRANCH   3  37
BRANCH   5  39
ATOM     39  O   UNL     1      -1.418  15.731  23.628  0.00  0.00    +0.000 OA
ATOM     40  H   UNL     1      -2.202  16.272  23.435  0.00  0.00    +0.000 HD
ENDBRANCH   5  39
TORSDOF 9
ENDMDL
MODEL 5
REMARK VINA RESULT:      -7.9      3.837     10.620
REMARK  Name = 
REMARK  10 active torsions:
REMARK  status: ('A' for Active; 'I' for Inactive)
REMARK    1  A    between atoms: C_1  and  O_2
REMARK    2  A    between atoms: O_2  and  C_3
REMARK    3  A    between atoms: C_6  and  C_7
REMARK    4  A    between atoms: C_7  and  N_8
REMARK    5  A    between atoms: C_10  and  C_11
REMARK    6  A    between atoms: C_15  and  N_16
REMARK    7  A    between atoms: N_16  and  C_17
REMARK    8  A    between atoms: C_19  and  O_20
REMARK    9  A    between atoms: C_22  and  O_23
REMARK   10  A    between atoms: C_24  and  C_25
REMARK                            x       y       z     vdW  Elec       q    Type
REMARK                         _______ _______ _______ _____ _____    ______ ____
ROOT
ATOM      1  C   UNL     1       0.575  12.604  20.704  0.00  0.00    +0.000 A 
ATOM      2  C   UNL     1       1.535  13.216  19.855  0.00  0.00    +0.000 A 
ATOM      3  C   UNL     1       1.999  14.497  20.081  0.00  0.00    +0.000 A 
ATOM      4  C   UNL     1       1.491  15.237  21.128  0.00  0.00    +0.000 A 
ATOM      5  C   UNL     1       0.487  14.690  21.940  0.00  0.00    +0.000 A 
ATOM      6  C   UNL     1       0.041  13.358  21.796  0.00  0.00    +0.000 A 
ENDROOT
BRANCH   6   7
ATOM      7  C   UNL     1      -1.092  12.803  22.619  0.00  0.00    +0.000 C 
ATOM      8  O   UNL     1      -0.771  12.003  23.507  0.00  0.00    +0.000 OA
ATOM      9  N   UNL     1      -2.438  13.135  22.422  0.00  0.00    +0.000 N 
ATOM     10  C   UNL     1      -3.467  12.450  23.270  0.00  0.00    +0.000 C 
ATOM     11  C   UNL     1      -4.599  13.373  23.128  0.00  0.00    +0.000 A 
ATOM     12  C   UNL     1      -5.846  13.706  23.646  0.00  0.00    +0.000 A 
ATOM     13  N   UNL     1      -6.370  14.772  23.010  0.00  0.00    +0.000 NA
ATOM     14  N   UNL     1      -5.418  15.128  22.108  0.00  0.00    +0.000 N 
ATOM     15  C   UNL     1      -4.346  14.317  22.183  0.00  0.00    +0.000 A 
ATOM     16  C   UNL     1      -3.030  14.204  21.550  0.00  0.00    +0.000 C 
ATOM     17  H   UNL     1      -5.595  15.933  21.514  0.00  0.00    +0.000 HD
ENDBRANCH   6   7
BRANCH   1  18
ATOM     18  N   UNL     1       0.224  11.228  20.431  0.00  0.00    +0.000 N 
ATOM     19  H   UNL     1      -0.052  10.769  21.308  0.00  0.00    +0.000 HD
BRANCH  18  24
ATOM     20  N   UNL     1       0.449  10.107  18.261  0.00  0.00    +0.000 N 
ATOM     21  N   UNL     1      -0.355   9.598  17.288  0.00  0.00    +0.000 NA
ATOM     22  C   UNL     1      -1.552  10.120  17.553  0.00  0.00    +0.000 A 
ATOM     23  C   UNL     1      -1.522  10.968  18.673  0.00  0.00    +0.000 A 
ATOM     24  C   UNL     1      -0.251  10.835  19.206  0.00  0.00    +0.000 A 
BRANCH  22  25
ATOM     25  C   UNL     1      -2.833   9.755  16.812  0.00  0.00    +0.000 C 
ATOM     26  C   UNL     1      -3.890  10.802  16.542  0.00  0.00    +0.000 C 
ATOM     27  C   UNL     1      -3.024  10.341  15.423  0.00  0.00    +0.000 C 
ENDBRANCH  22  25
BRANCH  20  28
ATOM     28  C   UNL     1       1.847   9.698  18.273  0.00  0.00    +0.000 C 
BRANCH  28  32
ATOM     29  C   UNL     1       2.441   5.595  19.535  0.00  0.00    +0.000 A 
ATOM     30  C   UNL     1       1.986   6.545  20.449  0.00  0.00    +0.000 A 
ATOM     31  C   UNL     1       1.768   7.867  20.054  0.00  0.00    +0.000 A 
ATOM     32  C   UNL     1       2.041   8.273  18.741  0.00  0.00    +0.000 A 
ATOM     33  C   UNL     1       2.484   7.307  17.824  0.00  0.00    +0.000 A 
ATOM     34  C   UNL     1       2.685   5.979  18.218  0.00  0.00    +0.000 A 
BRANCH  29  36
ATOM     35  C   UNL     1       1.780   3.956  21.108  0.00  0.00    +0.000 C 
ATOM     36  O   UNL     1       2.649   4.346  20.051  0.00  0.00    +0.000 OA
ENDBRANCH  29  36
ENDBRANCH  28  32
ENDBRANCH  20  28
ENDBRANCH  18  24
ENDBRANCH   1  18
BRANCH   3  37
ATOM     37  O   UNL     1       2.946  15.056  19.273  0.00  0.00    +0.000 OA
ATOM     38  H   UNL     1       3.546  14.361  18.959  0.00  0.00    +0.000 HD
ENDBRANCH   3  37
BRANCH   5  39
ATOM     39  O   UNL     1      -0.089  15.551  22.836  0.00  0.00    +0.000 OA
ATOM     40  H   UNL     1       0.494  15.656  23.607  0.00  0.00    +0.000 HD
ENDBRANCH   5  39
TORSDOF 9
ENDMDL
MODEL 6
REMARK VINA RESULT:      -7.9      2.973      7.920
REMARK  Name = 
REMARK  10 active torsions:
REMARK  status: ('A' for Active; 'I' for Inactive)
REMARK    1  A    between atoms: C_1  and  O_2
REMARK    2  A    between atoms: O_2  and  C_3
REMARK    3  A    between atoms: C_6  and  C_7
REMARK    4  A    between atoms: C_7  and  N_8
REMARK    5  A    between atoms: C_10  and  C_11
REMARK    6  A    between atoms: C_15  and  N_16
REMARK    7  A    between atoms: N_16  and  C_17
REMARK    8  A    between atoms: C_19  and  O_20
REMARK    9  A    between atoms: C_22  and  O_23
REMARK   10  A    between atoms: C_24  and  C_25
REMARK                            x       y       z     vdW  Elec       q    Type
REMARK                         _______ _______ _______ _____ _____    ______ ____
ROOT
ATOM      1  C   UNL     1       3.943   5.568  18.968  0.00  0.00    +0.000 A 
ATOM      2  C   UNL     1       4.511   4.318  19.328  0.00  0.00    +0.000 A 
ATOM      3  C   UNL     1       3.770   3.328  19.942  0.00  0.00    +0.000 A 
ATOM      4  C   UNL     1       2.450   3.561  20.269  0.00  0.00    +0.000 A 
ATOM      5  C   UNL     1       1.878   4.812  19.995  0.00  0.00    +0.000 A 
ATOM      6  C   UNL     1       2.574   5.823  19.296  0.00  0.00    +0.000 A 
ENDROOT
BRANCH   6   7
ATOM      7  C   UNL     1       1.983   7.191  19.076  0.00  0.00    +0.000 C 
ATOM      8  O   UNL     1       1.730   7.485  17.901  0.00  0.00    +0.000 OA
ATOM      9  N   UNL     1       1.726   8.107  20.103  0.00  0.00    +0.000 N 
ATOM     10  C   UNL     1       1.202   9.461  19.729  0.00  0.00    +0.000 C 
ATOM     11  C   UNL     1       0.625   9.895  21.008  0.00  0.00    +0.000 A 
ATOM     12  C   UNL     1      -0.205  10.841  21.598  0.00  0.00    +0.000 A 
ATOM     13  N   UNL     1      -0.340  10.614  22.920  0.00  0.00    +0.000 NA
ATOM     14  N   UNL     1       0.389   9.490  23.146  0.00  0.00    +0.000 N 
ATOM     15  C   UNL     1       0.952   9.037  22.009  0.00  0.00    +0.000 A 
ATOM     16  C   UNL     1       1.773   7.899  21.589  0.00  0.00    +0.000 C 
ATOM     17  H   UNL     1       0.422   9.119  24.090  0.00  0.00    +0.000 HD
ENDBRANCH   6   7
BRANCH   1  18
ATOM     18  N   UNL     1       4.782   6.500  18.248  0.00  0.00    +0.000 N 
ATOM     19  H   UNL     1       4.954   7.325  18.836  0.00  0.00    +0.000 HD
BRANCH  18  24
ATOM     20  N   UNL     1       7.037   6.027  17.406  0.00  0.00    +0.000 N 
ATOM     21  N   UNL     1       7.625   5.289  16.426  0.00  0.00    +0.000 NA
ATOM     22  C   UNL     1       6.621   4.983  15.606  0.00  0.00    +0.000 A 
ATOM     23  C   UNL     1       5.401   5.529  16.038  0.00  0.00    +0.000 A 
ATOM     24  C   UNL     1       5.660   6.080  17.282  0.00  0.00    +0.000 A 
BRANCH  22  25
ATOM     25  C   UNL     1       6.745   4.055  14.403  0.00  0.00    +0.000 C 
ATOM     26  C   UNL     1       5.679   4.039  13.330  0.00  0.00    +0.000 C 
ATOM     27  C   UNL     1       6.983   4.699  13.047  0.00  0.00    +0.000 C 
ENDBRANCH  22  25
BRANCH  20  28
ATOM     28  C   UNL     1       7.876   6.500  18.499  0.00  0.00    +0.000 C 
BRANCH  28  32
ATOM     29  C   UNL     1       8.683  10.746  18.187  0.00  0.00    +0.000 A 
ATOM     30  C   UNL     1       9.272  10.000  19.206  0.00  0.00    +0.000 A 
ATOM     31  C   UNL     1       9.041   8.627  19.309  0.00  0.00    +0.000 A 
ATOM     32  C   UNL     1       8.179   7.980  18.413  0.00  0.00    +0.000 A 
ATOM     33  C   UNL     1       7.604   8.735  17.381  0.00  0.00    +0.000 A 
ATOM     34  C   UNL     1       7.851  10.108  17.269  0.00  0.00    +0.000 A 
BRANCH  29  36
ATOM     35  C   UNL     1      10.258  12.463  17.777  0.00  0.00    +0.000 C 
ATOM     36  O   UNL     1       8.959  12.085  18.214  0.00  0.00    +0.000 OA
ENDBRANCH  29  36
ENDBRANCH  28  32
ENDBRANCH  20  28
ENDBRANCH  18  24
ENDBRANCH   1  18
BRANCH   3  37
ATOM     37  O   UNL     1       4.325   2.121  20.252  0.00  0.00    +0.000 OA
ATOM     38  H   UNL     1       4.655   2.147  21.164  0.00  0.00    +0.000 HD
ENDBRANCH   3  37
BRANCH   5  39
ATOM     39  O   UNL     1       0.628   5.022  20.512  0.00  0.00    +0.000 OA
ATOM     40  H   UNL     1       0.192   4.166  20.667  0.00  0.00    +0.000 HD
ENDBRANCH   5  39
TORSDOF 9
ENDMDL
MODEL 7
REMARK VINA RESULT:      -7.9      3.740     10.598
REMARK  Name = 
REMARK  10 active torsions:
REMARK  status: ('A' for Active; 'I' for Inactive)
REMARK    1  A    between atoms: C_1  and  O_2
REMARK    2  A    between atoms: O_2  and  C_3
REMARK    3  A    between atoms: C_6  and  C_7
REMARK    4  A    between atoms: C_7  and  N_8
REMARK    5  A    between atoms: C_10  and  C_11
REMARK    6  A    between atoms: C_15  and  N_16
REMARK    7  A    between atoms: N_16  and  C_17
REMARK    8  A    between atoms: C_19  and  O_20
REMARK    9  A    between atoms: C_22  and  O_23
REMARK   10  A    between atoms: C_24  and  C_25
REMARK                            x       y       z     vdW  Elec       q    Type
REMARK                         _______ _______ _______ _____ _____    ______ ____
ROOT
ATOM      1  C   UNL     1       0.601  13.299  20.303  0.00  0.00    +0.000 A 
ATOM      2  C   UNL     1       1.392  13.968  19.333  0.00  0.00    +0.000 A 
ATOM      3  C   UNL     1       1.627  15.327  19.392  0.00  0.00    +0.000 A 
ATOM      4  C   UNL     1       1.045  16.082  20.388  0.00  0.00    +0.000 A 
ATOM      5  C   UNL     1       0.197  15.465  21.320  0.00  0.00    +0.000 A 
ATOM      6  C   UNL     1      -0.007  14.068  21.346  0.00  0.00    +0.000 A 
ENDROOT
BRANCH   6   7
ATOM      7  C   UNL     1      -0.980  13.422  22.297  0.00  0.00    +0.000 C 
ATOM      8  O   UNL     1      -0.502  13.027  23.369  0.00  0.00    +0.000 OA
ATOM      9  N   UNL     1      -2.342  13.250  22.026  0.00  0.00    +0.000 N 
ATOM     10  C   UNL     1      -3.179  12.524  23.037  0.00  0.00    +0.000 C 
ATOM     11  C   UNL     1      -4.523  12.972  22.653  0.00  0.00    +0.000 A 
ATOM     12  C   UNL     1      -5.849  13.019  23.069  0.00  0.00    +0.000 A 
ATOM     13  N   UNL     1      -6.620  13.660  22.168  0.00  0.00    +0.000 NA
ATOM     14  N   UNL     1      -5.753  14.047  21.196  0.00  0.00    +0.000 N 
ATOM     15  C   UNL     1      -4.494  13.664  21.484  0.00  0.00    +0.000 A 
ATOM     16  C   UNL     1      -3.159  13.809  20.898  0.00  0.00    +0.000 C 
ATOM     17  H   UNL     1      -6.117  14.568  20.405  0.00  0.00    +0.000 HD
ENDBRANCH   6   7
BRANCH   1  18
ATOM     18  N   UNL     1       0.492  11.861  20.201  0.00  0.00    +0.000 N 
ATOM     19  H   UNL     1       0.512  11.451  21.143  0.00  0.00    +0.000 HD
BRANCH  18  24
ATOM     20  N   UNL     1       0.414  10.330  18.285  0.00  0.00    +0.000 N 
ATOM     21  N   UNL     1      -0.519   9.682  17.536  0.00  0.00    +0.000 NA
ATOM     22  C   UNL     1      -1.660  10.302  17.834  0.00  0.00    +0.000 A 
ATOM     23  C   UNL     1      -1.469  11.348  18.751  0.00  0.00    +0.000 A 
ATOM     24  C   UNL     1      -0.143  11.261  19.144  0.00  0.00    +0.000 A 
BRANCH  22  25
ATOM     25  C   UNL     1      -3.033   9.862  17.339  0.00  0.00    +0.000 C 
ATOM     26  C   UNL     1      -4.070  10.887  16.936  0.00  0.00    +0.000 C 
ATOM     27  C   UNL     1      -3.361  10.118  15.877  0.00  0.00    +0.000 C 
ENDBRANCH  22  25
BRANCH  20  28
ATOM     28  C   UNL     1       1.792   9.864  18.210  0.00  0.00    +0.000 C 
BRANCH  28  32
ATOM     29  C   UNL     1       2.273   5.893  19.877  0.00  0.00    +0.000 A 
ATOM     30  C   UNL     1       2.631   6.139  18.552  0.00  0.00    +0.000 A 
ATOM     31  C   UNL     1       2.504   7.418  18.005  0.00  0.00    +0.000 A 
ATOM     32  C   UNL     1       1.974   8.469  18.766  0.00  0.00    +0.000 A 
ATOM     33  C   UNL     1       1.632   8.216  20.102  0.00  0.00    +0.000 A 
ATOM     34  C   UNL     1       1.776   6.938  20.653  0.00  0.00    +0.000 A 
BRANCH  29  36
ATOM     35  C   UNL     1       2.490   3.623  19.249  0.00  0.00    +0.000 C 
ATOM     36  O   UNL     1       2.411   4.595  20.284  0.00  0.00    +0.000 OA
ENDBRANCH  29  36
ENDBRANCH  28  32
ENDBRANCH  20  28
ENDBRANCH  18  24
ENDBRANCH   1  18
BRANCH   3  37
ATOM     37  O   UNL     1       2.417  15.947  18.468  0.00  0.00    +0.000 OA
ATOM     38  H   UNL     1       1.951  15.971  17.617  0.00  0.00    +0.000 HD
ENDBRANCH   3  37
BRANCH   5  39
ATOM     39  O   UNL     1      -0.481  16.309  22.158  0.00  0.00    +0.000 OA
ATOM     40  H   UNL     1      -0.052  16.314  23.031  0.00  0.00    +0.000 HD
ENDBRANCH   5  39
TORSDOF 9
ENDMDL
MODEL 8
REMARK VINA RESULT:      -7.9      2.760      7.103
REMARK  Name = 
REMARK  10 active torsions:
REMARK  status: ('A' for Active; 'I' for Inactive)
REMARK    1  A    between atoms: C_1  and  O_2
REMARK    2  A    between atoms: O_2  and  C_3
REMARK    3  A    between atoms: C_6  and  C_7
REMARK    4  A    between atoms: C_7  and  N_8
REMARK    5  A    between atoms: C_10  and  C_11
REMARK    6  A    between atoms: C_15  and  N_16
REMARK    7  A    between atoms: N_16  and  C_17
REMARK    8  A    between atoms: C_19  and  O_20
REMARK    9  A    between atoms: C_22  and  O_23
REMARK   10  A    between atoms: C_24  and  C_25
REMARK                            x       y       z     vdW  Elec       q    Type
REMARK                         _______ _______ _______ _____ _____    ______ ____
ROOT
ATOM      1  C   UNL     1       3.965   4.269  19.099  0.00  0.00    +0.000 A 
ATOM      2  C   UNL     1       4.384   3.004  18.610  0.00  0.00    +0.000 A 
ATOM      3  C   UNL     1       3.569   1.891  18.665  0.00  0.00    +0.000 A 
ATOM      4  C   UNL     1       2.326   1.980  19.255  0.00  0.00    +0.000 A 
ATOM      5  C   UNL     1       1.909   3.196  19.816  0.00  0.00    +0.000 A 
ATOM      6  C   UNL     1       2.675   4.378  19.709  0.00  0.00    +0.000 A 
ENDROOT
BRANCH   6   7
ATOM      7  C   UNL     1       2.260   5.660  20.382  0.00  0.00    +0.000 C 
ATOM      8  O   UNL     1       2.275   5.648  21.620  0.00  0.00    +0.000 OA
ATOM      9  N   UNL     1       1.868   6.814  19.693  0.00  0.00    +0.000 N 
ATOM     10  C   UNL     1       1.411   7.996  20.494  0.00  0.00    +0.000 C 
ATOM     11  C   UNL     1       1.571   9.074  19.510  0.00  0.00    +0.000 A 
ATOM     12  C   UNL     1       1.605  10.455  19.357  0.00  0.00    +0.000 A 
ATOM     13  N   UNL     1       1.845  10.798  18.076  0.00  0.00    +0.000 NA
ATOM     14  N   UNL     1       1.998   9.612  17.432  0.00  0.00    +0.000 N 
ATOM     15  C   UNL     1       1.860   8.575  18.280  0.00  0.00    +0.000 A 
ATOM     16  C   UNL     1       1.955   7.114  18.225  0.00  0.00    +0.000 C 
ATOM     17  H   UNL     1       2.203   9.627  16.437  0.00  0.00    +0.000 HD
ENDBRANCH   6   7
BRANCH   1  18
ATOM     18  N   UNL     1       4.860   5.388  18.910  0.00  0.00    +0.000 N 
ATOM     19  H   UNL     1       5.314   5.614  19.804  0.00  0.00    +0.000 HD
BRANCH  18  24
ATOM     20  N   UNL     1       6.744   6.067  17.493  0.00  0.00    +0.000 N 
ATOM     21  N   UNL     1       7.139   5.947  16.196  0.00  0.00    +0.000 NA
ATOM     22  C   UNL     1       6.034   5.571  15.555  0.00  0.00    +0.000 A 
ATOM     23  C   UNL     1       4.932   5.465  16.420  0.00  0.00    +0.000 A 
ATOM     24  C   UNL     1       5.441   5.648  17.695  0.00  0.00    +0.000 A 
BRANCH  22  25
ATOM     25  C   UNL     1       5.982   5.185  14.082  0.00  0.00    +0.000 C 
ATOM     26  C   UNL     1       7.238   4.761  13.353  0.00  0.00    +0.000 C 
ATOM     27  C   UNL     1       6.237   3.727  13.735  0.00  0.00    +0.000 C 
ENDBRANCH  22  25
BRANCH  20  28
ATOM     28  C   UNL     1       7.748   6.442  18.479  0.00  0.00    +0.000 C 
BRANCH  28  32
ATOM     29  C   UNL     1       8.694  10.666  18.286  0.00  0.00    +0.000 A 
ATOM     30  C   UNL     1       9.292   9.864  19.257  0.00  0.00    +0.000 A 
ATOM     31  C   UNL     1       9.015   8.496  19.320  0.00  0.00    +0.000 A 
ATOM     32  C   UNL     1       8.101   7.912  18.433  0.00  0.00    +0.000 A 
ATOM     33  C   UNL     1       7.516   8.724  17.450  0.00  0.00    +0.000 A 
ATOM     34  C   UNL     1       7.808  10.090  17.377  0.00  0.00    +0.000 A 
BRANCH  29  36
ATOM     35  C   UNL     1       8.316  12.850  17.458  0.00  0.00    +0.000 C 
ATOM     36  O   UNL     1       9.018  11.993  18.350  0.00  0.00    +0.000 OA
ENDBRANCH  29  36
ENDBRANCH  28  32
ENDBRANCH  20  28
ENDBRANCH  18  24
ENDBRANCH   1  18
BRANCH   3  37
ATOM     37  O   UNL     1       3.978   0.691  18.161  0.00  0.00    +0.000 OA
ATOM     38  H   UNL     1       4.796   0.421  18.607  0.00  0.00    +0.000 HD
ENDBRANCH   3  37
BRANCH   5  39
ATOM     39  O   UNL     1       0.747   3.153  20.538  0.00  0.00    +0.000 OA
ATOM     40  H   UNL     1       0.911   3.478  21.439  0.00  0.00    +0.000 HD
ENDBRANCH   5  39
TORSDOF 9
ENDMDL
MODEL 9
REMARK VINA RESULT:      -7.8      5.247      9.798
REMARK  Name = 
REMARK  10 active torsions:
REMARK  status: ('A' for Active; 'I' for Inactive)
REMARK    1  A    between atoms: C_1  and  O_2
REMARK    2  A    between atoms: O_2  and  C_3
REMARK    3  A    between atoms: C_6  and  C_7
REMARK    4  A    between atoms: C_7  and  N_8
REMARK    5  A    between atoms: C_10  and  C_11
REMARK    6  A    between atoms: C_15  and  N_16
REMARK    7  A    between atoms: N_16  and  C_17
REMARK    8  A    between atoms: C_19  and  O_20
REMARK    9  A    between atoms: C_22  and  O_23
REMARK   10  A    between atoms: C_24  and  C_25
REMARK                            x       y       z     vdW  Elec       q    Type
REMARK                         _______ _______ _______ _____ _____    ______ ____
ROOT
ATOM      1  C   UNL     1      -2.008  14.025  21.090  0.00  0.00    +0.000 A 
ATOM      2  C   UNL     1      -1.290  14.463  22.234  0.00  0.00    +0.000 A 
ATOM      3  C   UNL     1      -1.713  14.177  23.516  0.00  0.00    +0.000 A 
ATOM      4  C   UNL     1      -2.892  13.489  23.713  0.00  0.00    +0.000 A 
ATOM      5  C   UNL     1      -3.665  13.107  22.607  0.00  0.00    +0.000 A 
ATOM      6  C   UNL     1      -3.231  13.306  21.278  0.00  0.00    +0.000 A 
ENDROOT
BRANCH   6   7
ATOM      7  C   UNL     1      -4.100  12.966  20.096  0.00  0.00    +0.000 C 
ATOM      8  O   UNL     1      -5.175  13.576  20.025  0.00  0.00    +0.000 OA
ATOM      9  N   UNL     1      -3.759  12.023  19.119  0.00  0.00    +0.000 N 
ATOM     10  C   UNL     1      -4.755  11.734  18.036  0.00  0.00    +0.000 C 
ATOM     11  C   UNL     1      -3.886  11.132  17.017  0.00  0.00    +0.000 A 
ATOM     12  C   UNL     1      -3.824  10.750  15.682  0.00  0.00    +0.000 A 
ATOM     13  N   UNL     1      -2.610  10.253  15.373  0.00  0.00    +0.000 NA
ATOM     14  N   UNL     1      -1.897  10.362  16.524  0.00  0.00    +0.000 N 
ATOM     15  C   UNL     1      -2.639  10.907  17.507  0.00  0.00    +0.000 A 
ATOM     16  C   UNL     1      -2.452  11.318  18.902  0.00  0.00    +0.000 C 
ATOM     17  H   UNL     1      -0.930  10.054  16.523  0.00  0.00    +0.000 HD
ENDBRANCH   6   7
BRANCH   1  18
ATOM     18  N   UNL     1      -1.430  14.299  19.793  0.00  0.00    +0.000 N 
ATOM     19  H   UNL     1      -2.066  13.959  19.060  0.00  0.00    +0.000 HD
BRANCH  18  24
ATOM     20  N   UNL     1       0.792  15.335  19.877  0.00  0.00    +0.000 N 
ATOM     21  N   UNL     1       1.454  16.377  19.303  0.00  0.00    +0.000 NA
ATOM     22  C   UNL     1       0.485  17.117  18.767  0.00  0.00    +0.000 A 
ATOM     23  C   UNL     1      -0.788  16.574  19.002  0.00  0.00    +0.000 A 
ATOM     24  C   UNL     1      -0.563  15.343  19.598  0.00  0.00    +0.000 A 
BRANCH  22  25
ATOM     25  C   UNL     1       0.724  18.346  17.897  0.00  0.00    +0.000 C 
ATOM     26  C   UNL     1       1.472  18.229  16.588  0.00  0.00    +0.000 C 
ATOM     27  C   UNL     1      -0.006  18.409  16.565  0.00  0.00    +0.000 C 
ENDBRANCH  22  25
BRANCH  20  28
ATOM     28  C   UNL     1       1.584  14.305  20.537  0.00  0.00    +0.000 C 
BRANCH  28  32
ATOM     29  C   UNL     1       1.470  10.486  18.492  0.00  0.00    +0.000 A 
ATOM     30  C   UNL     1       2.115  11.572  17.901  0.00  0.00    +0.000 A 
ATOM     31  C   UNL     1       2.181  12.804  18.556  0.00  0.00    +0.000 A 
ATOM     32  C   UNL     1       1.564  12.984  19.801  0.00  0.00    +0.000 A 
ATOM     33  C   UNL     1       0.931  11.882  20.395  0.00  0.00    +0.000 A 
ATOM     34  C   UNL     1       0.881  10.643  19.745  0.00  0.00    +0.000 A 
BRANCH  29  36
ATOM     35  C   UNL     1       2.544   8.462  17.905  0.00  0.00    +0.000 C 
ATOM     36  O   UNL     1       1.443   9.347  17.737  0.00  0.00    +0.000 OA
ENDBRANCH  29  36
ENDBRANCH  28  32
ENDBRANCH  20  28
ENDBRANCH  18  24
ENDBRANCH   1  18
BRANCH   3  37
ATOM     37  O   UNL     1      -0.992  14.579  24.603  0.00  0.00    +0.000 OA
ATOM     38  H   UNL     1      -1.328  15.437  24.907  0.00  0.00    +0.000 HD
ENDBRANCH   3  37
BRANCH   5  39
ATOM     39  O   UNL     1      -4.902  12.594  22.893  0.00  0.00    +0.000 OA
ATOM     40  H   UNL     1      -5.530  12.852  22.197  0.00  0.00    +0.000 HD
ENDBRANCH   5  39
TORSDOF 9
ENDMDL
