MODEL 1
REMARK VINA RESULT:      -6.1      0.000      0.000
REMARK  Name = 
REMARK  7 active torsions:
REMARK  status: ('A' for Active; 'I' for Inactive)
REMARK    1  A    between atoms: C_1  and  N_2
REMARK    2  A    between atoms: N_2  and  C_3
REMARK    3  A    between atoms: N_2  and  C_4
REMARK    4  A    between atoms: C_4  and  C_5
REMARK    5  A    between atoms: C_8  and  C_9
REMARK    6  A    between atoms: N_13  and  C_14
REMARK    7  A    between atoms: C_14  and  C_15
REMARK                            x       y       z     vdW  Elec       q    Type
REMARK                         _______ _______ _______ _____ _____    ______ ____
ROOT
ATOM      1  C   UNL     1       2.622   4.127  18.444  0.00  0.00    +0.000 A 
ATOM      2  N   UNL     1       1.648   3.408  17.909  0.00  0.00    +0.000 NA
ATOM      3  C   UNL     1       2.155   2.155  17.702  0.00  0.00    +0.000 A 
ATOM      4  C   UNL     1       3.457   2.089  18.126  0.00  0.00    +0.000 A 
ATOM      5  N   UNL     1       3.750   3.351  18.601  0.00  0.00    +0.000 N 
ENDROOT
BRANCH   1   9
ATOM      6  C   UNL     1       2.170   7.834  18.677  0.00  0.00    +0.000 A 
ATOM      7  C   UNL     1       1.892   7.616  20.013  0.00  0.00    +0.000 A 
ATOM      8  S   UNL     1       2.079   5.981  20.466  0.00  0.00    +0.000 S 
ATOM      9  C   UNL     1       2.409   5.491  18.861  0.00  0.00    +0.000 A 
ATOM     10  C   UNL     1       2.501   6.595  18.031  0.00  0.00    +0.000 A 
BRANCH   6  11
ATOM     11  C   UNL     1       2.129   9.167  17.980  0.00  0.00    +0.000 C 
BRANCH  11  13
ATOM     12  C   UNL     1       1.757  11.499  18.571  0.00  0.00    +0.000 C 
ATOM     13  N   UNL     1       1.269  10.122  18.699  0.00  0.00    +0.000 NA
ATOM     14  C   UNL     1      -0.097  10.041  18.173  0.00  0.00    +0.000 C 
ENDBRANCH  11  13
ENDBRANCH   6  11
ENDBRANCH   1   9
BRANCH   5  15
ATOM     15  C   UNL     1       4.994   3.672  19.282  0.00  0.00    +0.000 C 
BRANCH  15  16
ATOM     16  C   UNL     1       5.873   4.633  18.526  0.00  0.00    +0.000 A 
ATOM     17  C   UNL     1       6.043   4.727  17.100  0.00  0.00    +0.000 A 
ATOM     18  C   UNL     1       6.948   5.699  16.728  0.00  0.00    +0.000 A 
ATOM     19  S   UNL     1       7.590   6.522  18.074  0.00  0.00    +0.000 S 
ATOM     20  C   UNL     1       6.664   5.580  19.158  0.00  0.00    +0.000 A 
ENDBRANCH  15  16
ENDBRANCH   5  15
TORSDOF 5
ENDMDL
MODEL 2
REMARK VINA RESULT:      -5.9      2.131      3.806
REMARK  Name = 
REMARK  7 active torsions:
REMARK  status: ('A' for Active; 'I' for Inactive)
REMARK    1  A    between atoms: C_1  and  N_2
REMARK    2  A    between atoms: N_2  and  C_3
REMARK    3  A    between atoms: N_2  and  C_4
REMARK    4  A    between atoms: C_4  and  C_5
REMARK    5  A    between atoms: C_8  and  C_9
REMARK    6  A    between atoms: N_13  and  C_14
REMARK    7  A    between atoms: C_14  and  C_15
REMARK                            x       y       z     vdW  Elec       q    Type
REMARK                         _______ _______ _______ _____ _____    ______ ____
ROOT
ATOM      1  C   UNL     1       3.570   6.443  17.808  0.00  0.00    +0.000 A 
ATOM      2  N   UNL     1       4.720   6.838  17.287  0.00  0.00    +0.000 NA
ATOM      3  C   UNL     1       5.250   5.757  16.640  0.00  0.00    +0.000 A 
ATOM      4  C   UNL     1       4.412   4.677  16.747  0.00  0.00    +0.000 A 
ATOM      5  N   UNL     1       3.340   5.120  17.493  0.00  0.00    +0.000 N 
ENDROOT
BRANCH   1   9
ATOM      6  C   UNL     1       1.291   9.224  18.843  0.00  0.00    +0.000 A 
ATOM      7  C   UNL     1       1.206   8.569  20.057  0.00  0.00    +0.000 A 
ATOM      8  S   UNL     1       2.219   7.197  20.137  0.00  0.00    +0.000 S 
ATOM      9  C   UNL     1       2.703   7.360  18.505  0.00  0.00    +0.000 A 
ATOM     10  C   UNL     1       2.190   8.527  17.966  0.00  0.00    +0.000 A 
BRANCH   6  11
ATOM     11  C   UNL     1       0.552  10.481  18.472  0.00  0.00    +0.000 C 
BRANCH  11  13
ATOM     12  C   UNL     1      -1.146  11.774  19.643  0.00  0.00    +0.000 C 
ATOM     13  N   UNL     1      -0.811  10.485  19.030  0.00  0.00    +0.000 NA
ATOM     14  C   UNL     1      -1.776  10.190  17.965  0.00  0.00    +0.000 C 
ENDBRANCH  11  13
ENDBRANCH   6  11
ENDBRANCH   1   9
BRANCH   5  15
ATOM     15  C   UNL     1       2.146   4.320  17.718  0.00  0.00    +0.000 C 
BRANCH  15  16
ATOM     16  C   UNL     1       2.067   3.715  19.094  0.00  0.00    +0.000 A 
ATOM     17  C   UNL     1       0.887   3.508  19.891  0.00  0.00    +0.000 A 
ATOM     18  C   UNL     1       1.161   2.955  21.125  0.00  0.00    +0.000 A 
ATOM     19  S   UNL     1       2.825   2.659  21.336  0.00  0.00    +0.000 S 
ATOM     20  C   UNL     1       3.185   3.272  19.783  0.00  0.00    +0.000 A 
ENDBRANCH  15  16
ENDBRANCH   5  15
TORSDOF 5
ENDMDL
MODEL 3
REMARK VINA RESULT:      -5.9      2.630      6.058
REMARK  Name = 
REMARK  7 active torsions:
REMARK  status: ('A' for Active; 'I' for Inactive)
REMARK    1  A    between atoms: C_1  and  N_2
REMARK    2  A    between atoms: N_2  and  C_3
REMARK    3  A    between atoms: N_2  and  C_4
REMARK    4  A    between atoms: C_4  and  C_5
REMARK    5  A    between atoms: C_8  and  C_9
REMARK    6  A    between atoms: N_13  and  C_14
REMARK    7  A    between atoms: C_14  and  C_15
REMARK                            x       y       z     vdW  Elec       q    Type
REMARK                         _______ _______ _______ _____ _____    ______ ____
ROOT
ATOM      1  C   UNL     1       3.812   6.785  17.880  0.00  0.00    +0.000 A 
ATOM      2  N   UNL     1       3.535   7.965  17.349  0.00  0.00    +0.000 NA
ATOM      3  C   UNL     1       2.495   8.484  18.068  0.00  0.00    +0.000 A 
ATOM      4  C   UNL     1       2.127   7.622  19.069  0.00  0.00    +0.000 A 
ATOM      5  N   UNL     1       2.972   6.539  18.946  0.00  0.00    +0.000 N 
ENDROOT
BRANCH   1   9
ATOM      6  C   UNL     1       6.122   4.512  16.010  0.00  0.00    +0.000 A 
ATOM      7  C   UNL     1       7.076   4.881  16.939  0.00  0.00    +0.000 A 
ATOM      8  S   UNL     1       6.450   5.900  18.157  0.00  0.00    +0.000 S 
ATOM      9  C   UNL     1       4.915   5.986  17.408  0.00  0.00    +0.000 A 
ATOM     10  C   UNL     1       4.865   5.136  16.316  0.00  0.00    +0.000 A 
BRANCH   6  11
ATOM     11  C   UNL     1       6.349   3.597  14.837  0.00  0.00    +0.000 C 
BRANCH  11  13
ATOM     12  C   UNL     1       7.566   5.025  13.287  0.00  0.00    +0.000 C 
ATOM     13  N   UNL     1       6.302   4.336  13.564  0.00  0.00    +0.000 NA
ATOM     14  C   UNL     1       6.007   3.406  12.470  0.00  0.00    +0.000 C 
ENDBRANCH  11  13
ENDBRANCH   6  11
ENDBRANCH   1   9
BRANCH   5  15
ATOM     15  C   UNL     1       3.014   5.452  19.911  0.00  0.00    +0.000 C 
BRANCH  15  16
ATOM     16  C   UNL     1       2.877   4.084  19.297  0.00  0.00    +0.000 A 
ATOM     17  C   UNL     1       1.749   3.560  18.572  0.00  0.00    +0.000 A 
ATOM     18  C   UNL     1       1.931   2.255  18.165  0.00  0.00    +0.000 A 
ATOM     19  S   UNL     1       3.455   1.649  18.624  0.00  0.00    +0.000 S 
ATOM     20  C   UNL     1       3.875   3.126  19.373  0.00  0.00    +0.000 A 
ENDBRANCH  15  16
ENDBRANCH   5  15
TORSDOF 5
ENDMDL
MODEL 4
REMARK VINA RESULT:      -5.9      1.981      2.428
REMARK  Name = 
REMARK  7 active torsions:
REMARK  status: ('A' for Active; 'I' for Inactive)
REMARK    1  A    between atoms: C_1  and  N_2
REMARK    2  A    between atoms: N_2  and  C_3
REMARK    3  A    between atoms: N_2  and  C_4
REMARK    4  A    between atoms: C_4  and  C_5
REMARK    5  A    between atoms: C_8  and  C_9
REMARK    6  A    between atoms: N_13  and  C_14
REMARK    7  A    between atoms: C_14  and  C_15
REMARK                            x       y       z     vdW  Elec       q    Type
REMARK                         _______ _______ _______ _____ _____    ______ ____
ROOT
ATOM      1  C   UNL     1       2.627   4.316  19.394  0.00  0.00    +0.000 A 
ATOM      2  N   UNL     1       1.677   3.423  19.617  0.00  0.00    +0.000 NA
ATOM      3  C   UNL     1       2.273   2.194  19.559  0.00  0.00    +0.000 A 
ATOM      4  C   UNL     1       3.615   2.324  19.309  0.00  0.00    +0.000 A 
ATOM      5  N   UNL     1       3.837   3.681  19.205  0.00  0.00    +0.000 N 
ENDROOT
BRANCH   1   9
ATOM      6  C   UNL     1       1.791   7.822  20.397  0.00  0.00    +0.000 A 
ATOM      7  C   UNL     1       2.119   8.166  19.099  0.00  0.00    +0.000 A 
ATOM      8  S   UNL     1       2.495   6.809  18.134  0.00  0.00    +0.000 S 
ATOM      9  C   UNL     1       2.361   5.732  19.455  0.00  0.00    +0.000 A 
ATOM     10  C   UNL     1       1.905   6.402  20.577  0.00  0.00    +0.000 A 
BRANCH   6  11
ATOM     11  C   UNL     1       1.381   8.783  21.480  0.00  0.00    +0.000 C 
BRANCH  11  13
ATOM     12  C   UNL     1      -0.576   9.340  22.816  0.00  0.00    +0.000 C 
ATOM     13  N   UNL     1      -0.075   9.000  21.481  0.00  0.00    +0.000 NA
ATOM     14  C   UNL     1      -0.408  10.082  20.549  0.00  0.00    +0.000 C 
ENDBRANCH  11  13
ENDBRANCH   6  11
ENDBRANCH   1   9
BRANCH   5  15
ATOM     15  C   UNL     1       5.165   4.260  19.086  0.00  0.00    +0.000 C 
BRANCH  15  16
ATOM     16  C   UNL     1       5.661   4.365  17.668  0.00  0.00    +0.000 A 
ATOM     17  C   UNL     1       7.012   4.593  17.229  0.00  0.00    +0.000 A 
ATOM     18  C   UNL     1       7.127   4.666  15.856  0.00  0.00    +0.000 A 
ATOM     19  S   UNL     1       5.628   4.442  15.078  0.00  0.00    +0.000 S 
ATOM     20  C   UNL     1       4.821   4.252  16.572  0.00  0.00    +0.000 A 
ENDBRANCH  15  16
ENDBRANCH   5  15
TORSDOF 5
ENDMDL
MODEL 5
REMARK VINA RESULT:      -5.8      2.531      6.085
REMARK  Name = 
REMARK  7 active torsions:
REMARK  status: ('A' for Active; 'I' for Inactive)
REMARK    1  A    between atoms: C_1  and  N_2
REMARK    2  A    between atoms: N_2  and  C_3
REMARK    3  A    between atoms: N_2  and  C_4
REMARK    4  A    between atoms: C_4  and  C_5
REMARK    5  A    between atoms: C_8  and  C_9
REMARK    6  A    between atoms: N_13  and  C_14
REMARK    7  A    between atoms: C_14  and  C_15
REMARK                            x       y       z     vdW  Elec       q    Type
REMARK                         _______ _______ _______ _____ _____    ______ ____
ROOT
ATOM      1  C   UNL     1       3.629   6.749  18.196  0.00  0.00    +0.000 A 
ATOM      2  N   UNL     1       3.407   7.911  17.603  0.00  0.00    +0.000 NA
ATOM      3  C   UNL     1       2.391   8.514  18.293  0.00  0.00    +0.000 A 
ATOM      4  C   UNL     1       1.985   7.724  19.336  0.00  0.00    +0.000 A 
ATOM      5  N   UNL     1       2.780   6.598  19.272  0.00  0.00    +0.000 N 
ENDROOT
BRANCH   1   9
ATOM      6  C   UNL     1       5.893   4.388  16.379  0.00  0.00    +0.000 A 
ATOM      7  C   UNL     1       6.778   4.592  17.421  0.00  0.00    +0.000 A 
ATOM      8  S   UNL     1       6.129   5.582  18.652  0.00  0.00    +0.000 S 
ATOM      9  C   UNL     1       4.695   5.877  17.769  0.00  0.00    +0.000 A 
ATOM     10  C   UNL     1       4.676   5.115  16.613  0.00  0.00    +0.000 A 
BRANCH   6  11
ATOM     11  C   UNL     1       6.151   3.540  15.164  0.00  0.00    +0.000 C 
BRANCH  11  13
ATOM     12  C   UNL     1       7.429   5.114  13.817  0.00  0.00    +0.000 C 
ATOM     13  N   UNL     1       6.181   4.354  13.938  0.00  0.00    +0.000 NA
ATOM     14  C   UNL     1       6.029   3.483  12.768  0.00  0.00    +0.000 C 
ENDBRANCH  11  13
ENDBRANCH   6  11
ENDBRANCH   1   9
BRANCH   5  15
ATOM     15  C   UNL     1       2.772   5.563  20.293  0.00  0.00    +0.000 C 
BRANCH  15  16
ATOM     16  C   UNL     1       2.410   4.197  19.775  0.00  0.00    +0.000 A 
ATOM     17  C   UNL     1       3.286   3.067  19.601  0.00  0.00    +0.000 A 
ATOM     18  C   UNL     1       2.645   1.965  19.074  0.00  0.00    +0.000 A 
ATOM     19  S   UNL     1       0.989   2.260  18.801  0.00  0.00    +0.000 S 
ATOM     20  C   UNL     1       1.124   3.862  19.381  0.00  0.00    +0.000 A 
ENDBRANCH  15  16
ENDBRANCH   5  15
TORSDOF 5
ENDMDL
MODEL 6
REMARK VINA RESULT:      -5.8      1.883      3.579
REMARK  Name = 
REMARK  7 active torsions:
REMARK  status: ('A' for Active; 'I' for Inactive)
REMARK    1  A    between atoms: C_1  and  N_2
REMARK    2  A    between atoms: N_2  and  C_3
REMARK    3  A    between atoms: N_2  and  C_4
REMARK    4  A    between atoms: C_4  and  C_5
REMARK    5  A    between atoms: C_8  and  C_9
REMARK    6  A    between atoms: N_13  and  C_14
REMARK    7  A    between atoms: C_14  and  C_15
REMARK                            x       y       z     vdW  Elec       q    Type
REMARK                         _______ _______ _______ _____ _____    ______ ____
ROOT
ATOM      1  C   UNL     1       4.096   5.642  17.547  0.00  0.00    +0.000 A 
ATOM      2  N   UNL     1       5.289   5.940  17.058  0.00  0.00    +0.000 NA
ATOM      3  C   UNL     1       5.764   4.804  16.464  0.00  0.00    +0.000 A 
ATOM      4  C   UNL     1       4.849   3.788  16.573  0.00  0.00    +0.000 A 
ATOM      5  N   UNL     1       3.785   4.329  17.264  0.00  0.00    +0.000 N 
ENDROOT
BRANCH   1   9
ATOM      6  C   UNL     1       1.980   8.605  18.409  0.00  0.00    +0.000 A 
ATOM      7  C   UNL     1       1.811   8.001  19.640  0.00  0.00    +0.000 A 
ATOM      8  S   UNL     1       2.724   6.567  19.801  0.00  0.00    +0.000 S 
ATOM      9  C   UNL     1       3.271   6.640  18.182  0.00  0.00    +0.000 A 
ATOM     10  C   UNL     1       2.857   7.819  17.587  0.00  0.00    +0.000 A 
BRANCH   6  11
ATOM     11  C   UNL     1       1.341   9.895  17.971  0.00  0.00    +0.000 C 
BRANCH  11  13
ATOM     12  C   UNL     1       1.007  11.772  19.484  0.00  0.00    +0.000 C 
ATOM     13  N   UNL     1       0.505  10.469  19.039  0.00  0.00    +0.000 NA
ATOM     14  C   UNL     1      -0.871  10.619  18.555  0.00  0.00    +0.000 C 
ENDBRANCH  11  13
ENDBRANCH   6  11
ENDBRANCH   1   9
BRANCH   5  15
ATOM     15  C   UNL     1       2.531   3.621  17.469  0.00  0.00    +0.000 C 
BRANCH  15  16
ATOM     16  C   UNL     1       2.260   3.262  18.905  0.00  0.00    +0.000 A 
ATOM     17  C   UNL     1       0.996   3.304  19.594  0.00  0.00    +0.000 A 
ATOM     18  C   UNL     1       1.094   2.939  20.920  0.00  0.00    +0.000 A 
ATOM     19  S   UNL     1       2.688   2.523  21.352  0.00  0.00    +0.000 S 
ATOM     20  C   UNL     1       3.254   2.834  19.770  0.00  0.00    +0.000 A 
ENDBRANCH  15  16
ENDBRANCH   5  15
TORSDOF 5
ENDMDL
MODEL 7
REMARK VINA RESULT:      -5.8      2.363      5.567
REMARK  Name = 
REMARK  7 active torsions:
REMARK  status: ('A' for Active; 'I' for Inactive)
REMARK    1  A    between atoms: C_1  and  N_2
REMARK    2  A    between atoms: N_2  and  C_3
REMARK    3  A    between atoms: N_2  and  C_4
REMARK    4  A    between atoms: C_4  and  C_5
REMARK    5  A    between atoms: C_8  and  C_9
REMARK    6  A    between atoms: N_13  and  C_14
REMARK    7  A    between atoms: C_14  and  C_15
REMARK                            x       y       z     vdW  Elec       q    Type
REMARK                         _______ _______ _______ _____ _____    ______ ____
ROOT
ATOM      1  C   UNL     1       2.724   3.803  18.670  0.00  0.00    +0.000 A 
ATOM      2  N   UNL     1       1.932   2.848  18.211  0.00  0.00    +0.000 NA
ATOM      3  C   UNL     1       0.844   2.812  19.039  0.00  0.00    +0.000 A 
ATOM      4  C   UNL     1       0.954   3.765  20.017  0.00  0.00    +0.000 A 
ATOM      5  N   UNL     1       2.156   4.397  19.777  0.00  0.00    +0.000 N 
ENDROOT
BRANCH   1   9
ATOM      6  C   UNL     1       5.343   4.875  16.222  0.00  0.00    +0.000 A 
ATOM      7  C   UNL     1       6.225   4.796  17.283  0.00  0.00    +0.000 A 
ATOM      8  S   UNL     1       5.491   4.208  18.708  0.00  0.00    +0.000 S 
ATOM      9  C   UNL     1       3.941   4.166  17.986  0.00  0.00    +0.000 A 
ATOM     10  C   UNL     1       4.029   4.474  16.640  0.00  0.00    +0.000 A 
BRANCH   6  11
ATOM     11  C   UNL     1       5.689   5.322  14.827  0.00  0.00    +0.000 C 
BRANCH  11  13
ATOM     12  C   UNL     1       5.897   3.572  13.147  0.00  0.00    +0.000 C 
ATOM     13  N   UNL     1       6.592   4.365  14.167  0.00  0.00    +0.000 NA
ATOM     14  C   UNL     1       7.701   5.092  13.541  0.00  0.00    +0.000 C 
ENDBRANCH  11  13
ENDBRANCH   6  11
ENDBRANCH   1   9
BRANCH   5  15
ATOM     15  C   UNL     1       2.591   5.578  20.506  0.00  0.00    +0.000 C 
BRANCH  15  16
ATOM     16  C   UNL     1       2.201   6.877  19.853  0.00  0.00    +0.000 A 
ATOM     17  C   UNL     1       2.478   7.295  18.503  0.00  0.00    +0.000 A 
ATOM     18  C   UNL     1       2.007   8.561  18.224  0.00  0.00    +0.000 A 
ATOM     19  S   UNL     1       1.212   9.256  19.562  0.00  0.00    +0.000 S 
ATOM     20  C   UNL     1       1.499   7.869  20.519  0.00  0.00    +0.000 A 
ENDBRANCH  15  16
ENDBRANCH   5  15
TORSDOF 5
ENDMDL
MODEL 8
REMARK VINA RESULT:      -5.7      1.706      2.181
REMARK  Name = 
REMARK  7 active torsions:
REMARK  status: ('A' for Active; 'I' for Inactive)
REMARK    1  A    between atoms: C_1  and  N_2
REMARK    2  A    between atoms: N_2  and  C_3
REMARK    3  A    between atoms: N_2  and  C_4
REMARK    4  A    between atoms: C_4  and  C_5
REMARK    5  A    between atoms: C_8  and  C_9
REMARK    6  A    between atoms: N_13  and  C_14
REMARK    7  A    between atoms: C_14  and  C_15
REMARK                            x       y       z     vdW  Elec       q    Type
REMARK                         _______ _______ _______ _____ _____    ______ ____
ROOT
ATOM      1  C   UNL     1       2.898   4.655  19.642  0.00  0.00    +0.000 A 
ATOM      2  N   UNL     1       2.053   3.765  20.136  0.00  0.00    +0.000 NA
ATOM      3  C   UNL     1       2.745   2.592  20.256  0.00  0.00    +0.000 A 
ATOM      4  C   UNL     1       4.042   2.756  19.843  0.00  0.00    +0.000 A 
ATOM      5  N   UNL     1       4.136   4.076  19.454  0.00  0.00    +0.000 N 
ENDROOT
BRANCH   1   9
ATOM      6  C   UNL     1       1.670   8.172  19.990  0.00  0.00    +0.000 A 
ATOM      7  C   UNL     1       2.138   8.357  18.703  0.00  0.00    +0.000 A 
ATOM      8  S   UNL     1       2.742   6.919  18.008  0.00  0.00    +0.000 S 
ATOM      9  C   UNL     1       2.518   6.033  19.454  0.00  0.00    +0.000 A 
ATOM     10  C   UNL     1       1.868   6.809  20.398  0.00  0.00    +0.000 A 
BRANCH   6  11
ATOM     11  C   UNL     1       1.048   9.233  20.857  0.00  0.00    +0.000 C 
BRANCH  11  13
ATOM     12  C   UNL     1      -0.782  10.370  19.723  0.00  0.00    +0.000 C 
ATOM     13  N   UNL     1       0.644  10.405  20.062  0.00  0.00    +0.000 NA
ATOM     14  C   UNL     1       0.933  11.629  20.817  0.00  0.00    +0.000 C 
ENDBRANCH  11  13
ENDBRANCH   6  11
ENDBRANCH   1   9
BRANCH   5  15
ATOM     15  C   UNL     1       5.393   4.705  19.082  0.00  0.00    +0.000 C 
BRANCH  15  16
ATOM     16  C   UNL     1       5.703   4.628  17.611  0.00  0.00    +0.000 A 
ATOM     17  C   UNL     1       4.828   4.194  16.554  0.00  0.00    +0.000 A 
ATOM     18  C   UNL     1       5.430   4.214  15.314  0.00  0.00    +0.000 A 
ATOM     19  S   UNL     1       7.039   4.769  15.394  0.00  0.00    +0.000 S 
ATOM     20  C   UNL     1       6.937   4.980  17.087  0.00  0.00    +0.000 A 
ENDBRANCH  15  16
ENDBRANCH   5  15
TORSDOF 5
ENDMDL
MODEL 9
REMARK VINA RESULT:      -5.7      0.809      1.110
REMARK  Name = 
REMARK  7 active torsions:
REMARK  status: ('A' for Active; 'I' for Inactive)
REMARK    1  A    between atoms: C_1  and  N_2
REMARK    2  A    between atoms: N_2  and  C_3
REMARK    3  A    between atoms: N_2  and  C_4
REMARK    4  A    between atoms: C_4  and  C_5
REMARK    5  A    between atoms: C_8  and  C_9
REMARK    6  A    between atoms: N_13  and  C_14
REMARK    7  A    between atoms: C_14  and  C_15
REMARK                            x       y       z     vdW  Elec       q    Type
REMARK                         _______ _______ _______ _____ _____    ______ ____
ROOT
ATOM      1  C   UNL     1       2.773   4.749  18.216  0.00  0.00    +0.000 A 
ATOM      2  N   UNL     1       1.936   4.057  17.461  0.00  0.00    +0.000 NA
ATOM      3  C   UNL     1       2.525   2.844  17.233  0.00  0.00    +0.000 A 
ATOM      4  C   UNL     1       3.739   2.775  17.866  0.00  0.00    +0.000 A 
ATOM      5  N   UNL     1       3.893   3.993  18.493  0.00  0.00    +0.000 N 
ENDROOT
BRANCH   1   9
ATOM      6  C   UNL     1       1.981   8.378  18.660  0.00  0.00    +0.000 A 
ATOM      7  C   UNL     1       1.718   8.057  19.978  0.00  0.00    +0.000 A 
ATOM      8  S   UNL     1       2.052   6.422  20.337  0.00  0.00    +0.000 S 
ATOM      9  C   UNL     1       2.434   6.060  18.710  0.00  0.00    +0.000 A 
ATOM     10  C   UNL     1       2.428   7.215  17.946  0.00  0.00    +0.000 A 
BRANCH   6  11
ATOM     11  C   UNL     1       1.821   9.741  18.042  0.00  0.00    +0.000 C 
BRANCH  11  13
ATOM     12  C   UNL     1       1.634  12.006  18.912  0.00  0.00    +0.000 C 
ATOM     13  N   UNL     1       1.079  10.649  18.932  0.00  0.00    +0.000 NA
ATOM     14  C   UNL     1      -0.328  10.695  18.520  0.00  0.00    +0.000 C 
ENDBRANCH  11  13
ENDBRANCH   6  11
ENDBRANCH   1   9
BRANCH   5  15
ATOM     15  C   UNL     1       4.990   4.284  19.402  0.00  0.00    +0.000 C 
BRANCH  15  16
ATOM     16  C   UNL     1       6.022   5.221  18.833  0.00  0.00    +0.000 A 
ATOM     17  C   UNL     1       7.266   5.623  19.437  0.00  0.00    +0.000 A 
ATOM     18  C   UNL     1       7.973   6.521  18.665  0.00  0.00    +0.000 A 
ATOM     19  S   UNL     1       7.171   6.878  17.204  0.00  0.00    +0.000 S 
ATOM     20  C   UNL     1       5.875   5.838  17.601  0.00  0.00    +0.000 A 
ENDBRANCH  15  16
ENDBRANCH   5  15
TORSDOF 5
ENDMDL
