MODEL 1
REMARK VINA RESULT:      -7.8      0.000      0.000
REMARK  Name = 
REMARK  9 active torsions:
REMARK  status: ('A' for Active; 'I' for Inactive)
REMARK    1  A    between atoms: C_1  and  C_2
REMARK    2  A    between atoms: C_4  and  C_5
REMARK    3  A    between atoms: C_5  and  C_7
REMARK    4  A    between atoms: C_7  and  O_8
REMARK    5  A    between atoms: O_8  and  C_9
REMARK    6  A    between atoms: C_9  and  C_11
REMARK    7  A    between atoms: C_18  and  C_19
REMARK    8  A    between atoms: N_20  and  C_21
REMARK    9  A    between atoms: C_21  and  C_22
REMARK                            x       y       z     vdW  Elec       q    Type
REMARK                         _______ _______ _______ _____ _____    ______ ____
ROOT
ATOM      1  C   UNL     1       6.495   5.592  18.662  0.00  0.00    +0.000 C 
ATOM      2  O   UNL     1       6.938   5.273  19.766  0.00  0.00    +0.000 OA
ENDROOT
BRANCH   1   6
ATOM      3  C   UNL     1       1.908   7.581  18.283  0.00  0.00    +0.000 C 
ATOM      4  C   UNL     1       3.000   6.582  18.169  0.00  0.00    +0.000 A 
ATOM      5  C   UNL     1       4.330   6.881  18.326  0.00  0.00    +0.000 A 
ATOM      6  C   UNL     1       5.062   5.680  18.379  0.00  0.00    +0.000 A 
ATOM      7  C   UNL     1       4.158   4.649  18.149  0.00  0.00    +0.000 A 
ATOM      8  C   UNL     1       4.411   3.176  18.114  0.00  0.00    +0.000 C 
ATOM      9  N   UNL     1       2.891   5.215  17.959  0.00  0.00    +0.000 N 
BRANCH   9  10
ATOM     10  C   UNL     1       1.660   4.430  17.837  0.00  0.00    +0.000 C 
BRANCH  10  11
ATOM     11  C   UNL     1       1.079   3.689  19.057  0.00  0.00    +0.000 C 
ATOM     12  C   UNL     1       1.219   4.361  20.410  0.00  0.00    +0.000 C 
ATOM     13  C   UNL     1       1.387   3.220  21.387  0.00  0.00    +0.000 C 
ATOM     14  C   UNL     1       1.719   2.010  20.544  0.00  0.00    +0.000 C 
ATOM     15  O   UNL     1       1.566   2.352  19.167  0.00  0.00    +0.000 OA
ENDBRANCH  10  11
ENDBRANCH   9  10
ENDBRANCH   1   6
BRANCH   1  16
ATOM     16  C   UNL     1       7.411   5.913  17.478  0.00  0.00    +0.000 C 
BRANCH  16  17
ATOM     17  O   UNL     1       7.178   5.083  16.363  0.00  0.00    +0.000 OA
BRANCH  17  18
ATOM     18  C   UNL     1       6.434   5.657  15.384  0.00  0.00    +0.000 C 
ATOM     19  O   UNL     1       5.796   6.689  15.492  0.00  0.00    +0.000 OA
BRANCH  18  20
ATOM     20  C   UNL     1       6.557   4.867  14.145  0.00  0.00    +0.000 A 
ATOM     21  C   UNL     1       5.632   3.928  13.910  0.00  0.00    +0.000 A 
ATOM     22  C   UNL     1       5.646   3.151  12.686  0.00  0.00    +0.000 A 
ATOM     23  C   UNL     1       6.587   3.387  11.767  0.00  0.00    +0.000 A 
ATOM     24  N   UNL     1       7.550   4.335  11.990  0.00  0.00    +0.000 N 
ATOM     25  C   UNL     1       7.635   5.093  13.136  0.00  0.00    +0.000 A 
ATOM     26  O   UNL     1       8.574   5.875  13.286  0.00  0.00    +0.000 OA
ATOM     27  H   UNL     1       8.274   4.507  11.307  0.00  0.00    +0.000 HD
ENDBRANCH  18  20
ENDBRANCH  17  18
ENDBRANCH  16  17
ENDBRANCH   1  16
TORSDOF 7
ENDMDL
MODEL 2
REMARK VINA RESULT:      -7.8      3.410      5.470
REMARK  Name = 
REMARK  9 active torsions:
REMARK  status: ('A' for Active; 'I' for Inactive)
REMARK    1  A    between atoms: C_1  and  C_2
REMARK    2  A    between atoms: C_4  and  C_5
REMARK    3  A    between atoms: C_5  and  C_7
REMARK    4  A    between atoms: C_7  and  O_8
REMARK    5  A    between atoms: O_8  and  C_9
REMARK    6  A    between atoms: C_9  and  C_11
REMARK    7  A    between atoms: C_18  and  C_19
REMARK    8  A    between atoms: N_20  and  C_21
REMARK    9  A    between atoms: C_21  and  C_22
REMARK                            x       y       z     vdW  Elec       q    Type
REMARK                         _______ _______ _______ _____ _____    ______ ____
ROOT
ATOM      1  C   UNL     1       2.324   5.882  19.266  0.00  0.00    +0.000 C 
ATOM      2  O   UNL     1       1.798   5.258  18.344  0.00  0.00    +0.000 OA
ENDROOT
BRANCH   1   6
ATOM      3  C   UNL     1      -0.076   9.372  21.950  0.00  0.00    +0.000 C 
ATOM      4  C   UNL     1       0.818   8.786  20.919  0.00  0.00    +0.000 A 
ATOM      5  C   UNL     1       1.222   7.475  20.912  0.00  0.00    +0.000 A 
ATOM      6  C   UNL     1       1.866   7.206  19.689  0.00  0.00    +0.000 A 
ATOM      7  C   UNL     1       1.934   8.410  18.997  0.00  0.00    +0.000 A 
ATOM      8  C   UNL     1       2.506   8.677  17.643  0.00  0.00    +0.000 C 
ATOM      9  N   UNL     1       1.337   9.400  19.789  0.00  0.00    +0.000 N 
BRANCH   9  10
ATOM     10  C   UNL     1       1.090  10.768  19.328  0.00  0.00    +0.000 C 
BRANCH  10  11
ATOM     11  C   UNL     1      -0.193  11.113  18.546  0.00  0.00    +0.000 C 
ATOM     12  C   UNL     1      -1.308  11.803  19.309  0.00  0.00    +0.000 C 
ATOM     13  C   UNL     1      -2.579  11.279  18.684  0.00  0.00    +0.000 C 
ATOM     14  C   UNL     1      -2.168  10.062  17.887  0.00  0.00    +0.000 C 
ATOM     15  O   UNL     1      -0.743   9.981  17.873  0.00  0.00    +0.000 OA
ENDBRANCH  10  11
ENDBRANCH   9  10
ENDBRANCH   1   6
BRANCH   1  16
ATOM     16  C   UNL     1       3.522   5.330  20.045  0.00  0.00    +0.000 C 
BRANCH  16  17
ATOM     17  O   UNL     1       4.733   5.429  19.332  0.00  0.00    +0.000 OA
BRANCH  17  18
ATOM     18  C   UNL     1       5.225   4.240  18.899  0.00  0.00    +0.000 C 
ATOM     19  O   UNL     1       5.165   3.185  19.505  0.00  0.00    +0.000 OA
BRANCH  18  20
ATOM     20  C   UNL     1       5.804   4.408  17.554  0.00  0.00    +0.000 A 
ATOM     21  C   UNL     1       4.961   4.467  16.515  0.00  0.00    +0.000 A 
ATOM     22  C   UNL     1       5.445   4.693  15.167  0.00  0.00    +0.000 A 
ATOM     23  C   UNL     1       6.754   4.863  14.958  0.00  0.00    +0.000 A 
ATOM     24  N   UNL     1       7.637   4.795  16.003  0.00  0.00    +0.000 N 
ATOM     25  C   UNL     1       7.270   4.549  17.307  0.00  0.00    +0.000 A 
ATOM     26  O   UNL     1       8.135   4.435  18.176  0.00  0.00    +0.000 OA
ATOM     27  H   UNL     1       8.629   4.905  15.849  0.00  0.00    +0.000 HD
ENDBRANCH  18  20
ENDBRANCH  17  18
ENDBRANCH  16  17
ENDBRANCH   1  16
TORSDOF 7
ENDMDL
MODEL 3
REMARK VINA RESULT:      -7.7      2.032      6.786
REMARK  Name = 
REMARK  9 active torsions:
REMARK  status: ('A' for Active; 'I' for Inactive)
REMARK    1  A    between atoms: C_1  and  C_2
REMARK    2  A    between atoms: C_4  and  C_5
REMARK    3  A    between atoms: C_5  and  C_7
REMARK    4  A    between atoms: C_7  and  O_8
REMARK    5  A    between atoms: O_8  and  C_9
REMARK    6  A    between atoms: C_9  and  C_11
REMARK    7  A    between atoms: C_18  and  C_19
REMARK    8  A    between atoms: N_20  and  C_21
REMARK    9  A    between atoms: C_21  and  C_22
REMARK                            x       y       z     vdW  Elec       q    Type
REMARK                         _______ _______ _______ _____ _____    ______ ____
ROOT
ATOM      1  C   UNL     1       2.751   6.251  19.470  0.00  0.00    +0.000 C 
ATOM      2  O   UNL     1       2.509   7.457  19.410  0.00  0.00    +0.000 OA
ENDROOT
BRANCH   1   6
ATOM      3  C   UNL     1       7.605   5.395  18.551  0.00  0.00    +0.000 C 
ATOM      4  C   UNL     1       6.130   5.235  18.480  0.00  0.00    +0.000 A 
ATOM      5  C   UNL     1       5.254   5.825  19.356  0.00  0.00    +0.000 A 
ATOM      6  C   UNL     1       3.944   5.652  18.870  0.00  0.00    +0.000 A 
ATOM      7  C   UNL     1       4.038   4.857  17.734  0.00  0.00    +0.000 A 
ATOM      8  C   UNL     1       2.944   4.387  16.830  0.00  0.00    +0.000 C 
ATOM      9  N   UNL     1       5.390   4.549  17.529  0.00  0.00    +0.000 N 
BRANCH   9  10
ATOM     10  C   UNL     1       5.893   3.850  16.345  0.00  0.00    +0.000 C 
BRANCH  10  11
ATOM     11  C   UNL     1       6.061   4.597  15.007  0.00  0.00    +0.000 C 
ATOM     12  C   UNL     1       5.805   3.811  13.734  0.00  0.00    +0.000 C 
ATOM     13  C   UNL     1       6.773   4.386  12.728  0.00  0.00    +0.000 C 
ATOM     14  C   UNL     1       7.778   5.174  13.537  0.00  0.00    +0.000 C 
ATOM     15  O   UNL     1       7.335   5.232  14.892  0.00  0.00    +0.000 OA
ENDBRANCH  10  11
ENDBRANCH   9  10
ENDBRANCH   1   6
BRANCH   1  16
ATOM     16  C   UNL     1       1.811   5.264  20.169  0.00  0.00    +0.000 C 
BRANCH  16  17
ATOM     17  O   UNL     1       2.369   4.710  21.338  0.00  0.00    +0.000 OA
BRANCH  17  18
ATOM     18  C   UNL     1       2.114   3.387  21.506  0.00  0.00    +0.000 C 
ATOM     19  O   UNL     1       1.469   2.900  22.418  0.00  0.00    +0.000 OA
BRANCH  18  20
ATOM     20  C   UNL     1       2.697   2.627  20.385  0.00  0.00    +0.000 A 
ATOM     21  C   UNL     1       4.013   2.380  20.416  0.00  0.00    +0.000 A 
ATOM     22  C   UNL     1       4.651   1.586  19.383  0.00  0.00    +0.000 A 
ATOM     23  C   UNL     1       3.913   1.078  18.393  0.00  0.00    +0.000 A 
ATOM     24  N   UNL     1       2.567   1.328  18.334  0.00  0.00    +0.000 N 
ATOM     25  C   UNL     1       1.885   2.098  19.249  0.00  0.00    +0.000 A 
ATOM     26  O   UNL     1       0.687   2.331  19.083  0.00  0.00    +0.000 OA
ATOM     27  H   UNL     1       2.006   0.961  17.578  0.00  0.00    +0.000 HD
ENDBRANCH  18  20
ENDBRANCH  17  18
ENDBRANCH  16  17
ENDBRANCH   1  16
TORSDOF 7
ENDMDL
MODEL 4
REMARK VINA RESULT:      -7.7      2.195      6.677
REMARK  Name = 
REMARK  9 active torsions:
REMARK  status: ('A' for Active; 'I' for Inactive)
REMARK    1  A    between atoms: C_1  and  C_2
REMARK    2  A    between atoms: C_4  and  C_5
REMARK    3  A    between atoms: C_5  and  C_7
REMARK    4  A    between atoms: C_7  and  O_8
REMARK    5  A    between atoms: O_8  and  C_9
REMARK    6  A    between atoms: C_9  and  C_11
REMARK    7  A    between atoms: C_18  and  C_19
REMARK    8  A    between atoms: N_20  and  C_21
REMARK    9  A    between atoms: C_21  and  C_22
REMARK                            x       y       z     vdW  Elec       q    Type
REMARK                         _______ _______ _______ _____ _____    ______ ____
ROOT
ATOM      1  C   UNL     1       2.045   6.503  20.311  0.00  0.00    +0.000 C 
ATOM      2  O   UNL     1       1.717   7.621  20.707  0.00  0.00    +0.000 OA
ENDROOT
BRANCH   1   6
ATOM      3  C   UNL     1       6.553   5.060  18.657  0.00  0.00    +0.000 C 
ATOM      4  C   UNL     1       5.171   5.602  18.623  0.00  0.00    +0.000 A 
ATOM      5  C   UNL     1       4.272   5.471  19.650  0.00  0.00    +0.000 A 
ATOM      6  C   UNL     1       3.156   6.286  19.383  0.00  0.00    +0.000 A 
ATOM      7  C   UNL     1       3.353   6.836  18.122  0.00  0.00    +0.000 A 
ATOM      8  C   UNL     1       2.477   7.785  17.370  0.00  0.00    +0.000 C 
ATOM      9  N   UNL     1       4.576   6.363  17.627  0.00  0.00    +0.000 N 
BRANCH   9  10
ATOM     10  C   UNL     1       5.190   6.841  16.387  0.00  0.00    +0.000 C 
BRANCH  10  11
ATOM     11  C   UNL     1       5.446   5.874  15.214  0.00  0.00    +0.000 C 
ATOM     12  C   UNL     1       5.023   4.428  15.400  0.00  0.00    +0.000 C 
ATOM     13  C   UNL     1       6.047   3.629  14.629  0.00  0.00    +0.000 C 
ATOM     14  C   UNL     1       7.194   4.580  14.371  0.00  0.00    +0.000 C 
ATOM     15  O   UNL     1       6.805   5.892  14.778  0.00  0.00    +0.000 OA
ENDBRANCH  10  11
ENDBRANCH   9  10
ENDBRANCH   1   6
BRANCH   1  16
ATOM     16  C   UNL     1       1.305   5.234  20.744  0.00  0.00    +0.000 C 
BRANCH  16  17
ATOM     17  O   UNL     1       2.062   4.428  21.618  0.00  0.00    +0.000 OA
BRANCH  17  18
ATOM     18  C   UNL     1       1.794   3.101  21.528  0.00  0.00    +0.000 C 
ATOM     19  O   UNL     1       1.143   2.453  22.329  0.00  0.00    +0.000 OA
BRANCH  18  20
ATOM     20  C   UNL     1       2.369   2.566  20.280  0.00  0.00    +0.000 A 
ATOM     21  C   UNL     1       3.696   2.386  20.231  0.00  0.00    +0.000 A 
ATOM     22  C   UNL     1       4.332   1.806  19.064  0.00  0.00    +0.000 A 
ATOM     23  C   UNL     1       3.581   1.428  18.026  0.00  0.00    +0.000 A 
ATOM     24  N   UNL     1       2.224   1.612  18.048  0.00  0.00    +0.000 N 
ATOM     25  C   UNL     1       1.542   2.186  19.097  0.00  0.00    +0.000 A 
ATOM     26  O   UNL     1       0.328   2.378  19.007  0.00  0.00    +0.000 OA
ATOM     27  H   UNL     1       1.653   1.344  17.259  0.00  0.00    +0.000 HD
ENDBRANCH  18  20
ENDBRANCH  17  18
ENDBRANCH  16  17
ENDBRANCH   1  16
TORSDOF 7
ENDMDL
MODEL 5
REMARK VINA RESULT:      -7.5      3.724      5.680
REMARK  Name = 
REMARK  9 active torsions:
REMARK  status: ('A' for Active; 'I' for Inactive)
REMARK    1  A    between atoms: C_1  and  C_2
REMARK    2  A    between atoms: C_4  and  C_5
REMARK    3  A    between atoms: C_5  and  C_7
REMARK    4  A    between atoms: C_7  and  O_8
REMARK    5  A    between atoms: O_8  and  C_9
REMARK    6  A    between atoms: C_9  and  C_11
REMARK    7  A    between atoms: C_18  and  C_19
REMARK    8  A    between atoms: N_20  and  C_21
REMARK    9  A    between atoms: C_21  and  C_22
REMARK                            x       y       z     vdW  Elec       q    Type
REMARK                         _______ _______ _______ _____ _____    ______ ____
ROOT
ATOM      1  C   UNL     1       2.723   6.167  18.819  0.00  0.00    +0.000 C 
ATOM      2  O   UNL     1       2.080   5.208  18.392  0.00  0.00    +0.000 OA
ENDROOT
BRANCH   1   6
ATOM      3  C   UNL     1       0.297   8.765  22.355  0.00  0.00    +0.000 C 
ATOM      4  C   UNL     1       1.036   8.491  21.097  0.00  0.00    +0.000 A 
ATOM      5  C   UNL     1       1.706   7.321  20.843  0.00  0.00    +0.000 A 
ATOM      6  C   UNL     1       2.095   7.306  19.490  0.00  0.00    +0.000 A 
ATOM      7  C   UNL     1       1.735   8.538  18.956  0.00  0.00    +0.000 A 
ATOM      8  C   UNL     1       1.907   9.034  17.556  0.00  0.00    +0.000 C 
ATOM      9  N   UNL     1       1.133   9.293  19.971  0.00  0.00    +0.000 N 
BRANCH   9  10
ATOM     10  C   UNL     1       0.492  10.591  19.745  0.00  0.00    +0.000 C 
BRANCH  10  11
ATOM     11  C   UNL     1      -1.028  10.684  19.509  0.00  0.00    +0.000 C 
ATOM     12  C   UNL     1      -1.515  10.623  18.073  0.00  0.00    +0.000 C 
ATOM     13  C   UNL     1      -2.731  11.519  18.044  0.00  0.00    +0.000 C 
ATOM     14  C   UNL     1      -2.664  12.336  19.314  0.00  0.00    +0.000 C 
ATOM     15  O   UNL     1      -1.608  11.832  20.131  0.00  0.00    +0.000 OA
ENDBRANCH  10  11
ENDBRANCH   9  10
ENDBRANCH   1   6
BRANCH   1  16
ATOM     16  C   UNL     1       4.245   6.260  18.672  0.00  0.00    +0.000 C 
BRANCH  16  17
ATOM     17  O   UNL     1       4.930   5.286  19.425  0.00  0.00    +0.000 OA
BRANCH  17  18
ATOM     18  C   UNL     1       5.013   4.072  18.826  0.00  0.00    +0.000 C 
ATOM     19  O   UNL     1       4.529   3.037  19.250  0.00  0.00    +0.000 OA
BRANCH  18  20
ATOM     20  C   UNL     1       5.738   4.202  17.549  0.00  0.00    +0.000 A 
ATOM     21  C   UNL     1       5.040   4.047  16.416  0.00  0.00    +0.000 A 
ATOM     22  C   UNL     1       5.666   4.222  15.119  0.00  0.00    +0.000 A 
ATOM     23  C   UNL     1       6.957   4.559  15.052  0.00  0.00    +0.000 A 
ATOM     24  N   UNL     1       7.694   4.711  16.196  0.00  0.00    +0.000 N 
ATOM     25  C   UNL     1       7.193   4.530  17.465  0.00  0.00    +0.000 A 
ATOM     26  O   UNL     1       7.942   4.619  18.439  0.00  0.00    +0.000 OA
ATOM     27  H   UNL     1       8.675   4.948  16.151  0.00  0.00    +0.000 HD
ENDBRANCH  18  20
ENDBRANCH  17  18
ENDBRANCH  16  17
ENDBRANCH   1  16
TORSDOF 7
ENDMDL
MODEL 6
REMARK VINA RESULT:      -7.5      3.787      6.008
REMARK  Name = 
REMARK  9 active torsions:
REMARK  status: ('A' for Active; 'I' for Inactive)
REMARK    1  A    between atoms: C_1  and  C_2
REMARK    2  A    between atoms: C_4  and  C_5
REMARK    3  A    between atoms: C_5  and  C_7
REMARK    4  A    between atoms: C_7  and  O_8
REMARK    5  A    between atoms: O_8  and  C_9
REMARK    6  A    between atoms: C_9  and  C_11
REMARK    7  A    between atoms: C_18  and  C_19
REMARK    8  A    between atoms: N_20  and  C_21
REMARK    9  A    between atoms: C_21  and  C_22
REMARK                            x       y       z     vdW  Elec       q    Type
REMARK                         _______ _______ _______ _____ _____    ______ ____
ROOT
ATOM      1  C   UNL     1       2.959   7.031  18.732  0.00  0.00    +0.000 C 
ATOM      2  O   UNL     1       3.538   7.379  17.703  0.00  0.00    +0.000 OA
ENDROOT
BRANCH   1   6
ATOM      3  C   UNL     1      -0.260   8.552  22.263  0.00  0.00    +0.000 C 
ATOM      4  C   UNL     1       0.623   8.615  21.071  0.00  0.00    +0.000 A 
ATOM      5  C   UNL     1       1.550   7.654  20.754  0.00  0.00    +0.000 A 
ATOM      6  C   UNL     1       2.044   7.911  19.461  0.00  0.00    +0.000 A 
ATOM      7  C   UNL     1       1.471   9.106  19.042  0.00  0.00    +0.000 A 
ATOM      8  C   UNL     1       1.647   9.820  17.741  0.00  0.00    +0.000 C 
ATOM      9  N   UNL     1       0.637   9.572  20.067  0.00  0.00    +0.000 N 
BRANCH   9  10
ATOM     10  C   UNL     1      -0.249  10.730  19.930  0.00  0.00    +0.000 C 
BRANCH  10  11
ATOM     11  C   UNL     1       0.275  12.154  20.196  0.00  0.00    +0.000 C 
ATOM     12  C   UNL     1       0.520  13.042  18.990  0.00  0.00    +0.000 C 
ATOM     13  C   UNL     1       1.706  13.895  19.378  0.00  0.00    +0.000 C 
ATOM     14  C   UNL     1       2.315  13.217  20.585  0.00  0.00    +0.000 C 
ATOM     15  O   UNL     1       1.452  12.161  21.005  0.00  0.00    +0.000 OA
ENDBRANCH  10  11
ENDBRANCH   9  10
ENDBRANCH   1   6
BRANCH   1  16
ATOM     16  C   UNL     1       3.157   5.645  19.352  0.00  0.00    +0.000 C 
BRANCH  16  17
ATOM     17  O   UNL     1       3.487   4.660  18.399  0.00  0.00    +0.000 OA
BRANCH  17  18
ATOM     18  C   UNL     1       4.710   4.099  18.575  0.00  0.00    +0.000 C 
ATOM     19  O   UNL     1       5.080   3.503  19.571  0.00  0.00    +0.000 OA
BRANCH  18  20
ATOM     20  C   UNL     1       5.514   4.277  17.352  0.00  0.00    +0.000 A 
ATOM     21  C   UNL     1       4.883   4.190  16.173  0.00  0.00    +0.000 A 
ATOM     22  C   UNL     1       5.589   4.414  14.927  0.00  0.00    +0.000 A 
ATOM     23  C   UNL     1       6.887   4.730  14.953  0.00  0.00    +0.000 A 
ATOM     24  N   UNL     1       7.556   4.813  16.146  0.00  0.00    +0.000 N 
ATOM     25  C   UNL     1       6.975   4.581  17.372  0.00  0.00    +0.000 A 
ATOM     26  O   UNL     1       7.665   4.608  18.392  0.00  0.00    +0.000 OA
ATOM     27  H   UNL     1       8.541   5.034  16.171  0.00  0.00    +0.000 HD
ENDBRANCH  18  20
ENDBRANCH  17  18
ENDBRANCH  16  17
ENDBRANCH   1  16
TORSDOF 7
ENDMDL
MODEL 7
REMARK VINA RESULT:      -7.5      4.361      6.346
REMARK  Name = 
REMARK  9 active torsions:
REMARK  status: ('A' for Active; 'I' for Inactive)
REMARK    1  A    between atoms: C_1  and  C_2
REMARK    2  A    between atoms: C_4  and  C_5
REMARK    3  A    between atoms: C_5  and  C_7
REMARK    4  A    between atoms: C_7  and  O_8
REMARK    5  A    between atoms: O_8  and  C_9
REMARK    6  A    between atoms: C_9  and  C_11
REMARK    7  A    between atoms: C_18  and  C_19
REMARK    8  A    between atoms: N_20  and  C_21
REMARK    9  A    between atoms: C_21  and  C_22
REMARK                            x       y       z     vdW  Elec       q    Type
REMARK                         _______ _______ _______ _____ _____    ______ ____
ROOT
ATOM      1  C   UNL     1       7.718   6.610  18.336  0.00  0.00    +0.000 C 
ATOM      2  O   UNL     1       8.295   6.231  19.356  0.00  0.00    +0.000 OA
ENDROOT
BRANCH   1   6
ATOM      3  C   UNL     1       6.020   3.875  14.492  0.00  0.00    +0.000 C 
ATOM      4  C   UNL     1       6.075   4.479  15.848  0.00  0.00    +0.000 A 
ATOM      5  C   UNL     1       7.186   5.094  16.366  0.00  0.00    +0.000 A 
ATOM      6  C   UNL     1       6.827   5.745  17.562  0.00  0.00    +0.000 A 
ATOM      7  C   UNL     1       5.498   5.424  17.810  0.00  0.00    +0.000 A 
ATOM      8  C   UNL     1       4.626   5.866  18.940  0.00  0.00    +0.000 C 
ATOM      9  N   UNL     1       5.051   4.590  16.776  0.00  0.00    +0.000 N 
BRANCH   9  10
ATOM     10  C   UNL     1       3.658   4.167  16.618  0.00  0.00    +0.000 C 
BRANCH  10  11
ATOM     11  C   UNL     1       3.075   3.043  17.497  0.00  0.00    +0.000 C 
ATOM     12  C   UNL     1       1.819   3.359  18.288  0.00  0.00    +0.000 C 
ATOM     13  C   UNL     1       1.957   2.557  19.561  0.00  0.00    +0.000 C 
ATOM     14  C   UNL     1       3.410   2.141  19.622  0.00  0.00    +0.000 C 
ATOM     15  O   UNL     1       4.042   2.492  18.392  0.00  0.00    +0.000 OA
ENDBRANCH  10  11
ENDBRANCH   9  10
ENDBRANCH   1   6
BRANCH   1  16
ATOM     16  C   UNL     1       7.896   8.025  17.776  0.00  0.00    +0.000 C 
BRANCH  16  17
ATOM     17  O   UNL     1       8.630   8.867  18.636  0.00  0.00    +0.000 OA
BRANCH  17  18
ATOM     18  C   UNL     1       8.657  10.169  18.253  0.00  0.00    +0.000 C 
ATOM     19  O   UNL     1       7.856  10.706  17.509  0.00  0.00    +0.000 OA
BRANCH  18  20
ATOM     20  C   UNL     1       9.780  10.854  18.919  0.00  0.00    +0.000 A 
ATOM     21  C   UNL     1      10.827  11.213  18.166  0.00  0.00    +0.000 A 
ATOM     22  C   UNL     1      11.943  11.946  18.732  0.00  0.00    +0.000 A 
ATOM     23  C   UNL     1      11.920  12.284  20.024  0.00  0.00    +0.000 A 
ATOM     24  N   UNL     1      10.865  11.918  20.818  0.00  0.00    +0.000 N 
ATOM     25  C   UNL     1       9.783  11.192  20.374  0.00  0.00    +0.000 A 
ATOM     26  O   UNL     1       8.910  10.844  21.170  0.00  0.00    +0.000 OA
ATOM     27  H   UNL     1      10.850  12.156  21.800  0.00  0.00    +0.000 HD
ENDBRANCH  18  20
ENDBRANCH  17  18
ENDBRANCH  16  17
ENDBRANCH   1  16
TORSDOF 7
ENDMDL
MODEL 8
REMARK VINA RESULT:      -7.4      2.199      6.624
REMARK  Name = 
REMARK  9 active torsions:
REMARK  status: ('A' for Active; 'I' for Inactive)
REMARK    1  A    between atoms: C_1  and  C_2
REMARK    2  A    between atoms: C_4  and  C_5
REMARK    3  A    between atoms: C_5  and  C_7
REMARK    4  A    between atoms: C_7  and  O_8
REMARK    5  A    between atoms: O_8  and  C_9
REMARK    6  A    between atoms: C_9  and  C_11
REMARK    7  A    between atoms: C_18  and  C_19
REMARK    8  A    between atoms: N_20  and  C_21
REMARK    9  A    between atoms: C_21  and  C_22
REMARK                            x       y       z     vdW  Elec       q    Type
REMARK                         _______ _______ _______ _____ _____    ______ ____
ROOT
ATOM      1  C   UNL     1       2.660   6.273  19.655  0.00  0.00    +0.000 C 
ATOM      2  O   UNL     1       2.393   7.465  19.501  0.00  0.00    +0.000 OA
ENDROOT
BRANCH   1   6
ATOM      3  C   UNL     1       7.387   5.133  18.429  0.00  0.00    +0.000 C 
ATOM      4  C   UNL     1       5.903   5.070  18.442  0.00  0.00    +0.000 A 
ATOM      5  C   UNL     1       5.120   5.690  19.382  0.00  0.00    +0.000 A 
ATOM      6  C   UNL     1       3.775   5.616  18.971  0.00  0.00    +0.000 A 
ATOM      7  C   UNL     1       3.751   4.849  17.812  0.00  0.00    +0.000 A 
ATOM      8  C   UNL     1       2.579   4.477  16.962  0.00  0.00    +0.000 C 
ATOM      9  N   UNL     1       5.065   4.461  17.520  0.00  0.00    +0.000 N 
BRANCH   9  10
ATOM     10  C   UNL     1       5.453   3.765  16.290  0.00  0.00    +0.000 C 
BRANCH  10  11
ATOM     11  C   UNL     1       5.736   4.556  14.998  0.00  0.00    +0.000 C 
ATOM     12  C   UNL     1       5.616   3.807  13.684  0.00  0.00    +0.000 C 
ATOM     13  C   UNL     1       6.667   4.428  12.794  0.00  0.00    +0.000 C 
ATOM     14  C   UNL     1       7.575   5.205  13.719  0.00  0.00    +0.000 C 
ATOM     15  O   UNL     1       7.003   5.214  15.026  0.00  0.00    +0.000 OA
ENDBRANCH  10  11
ENDBRANCH   9  10
ENDBRANCH   1   6
BRANCH   1  16
ATOM     16  C   UNL     1       1.834   5.364  20.570  0.00  0.00    +0.000 C 
BRANCH  16  17
ATOM     17  O   UNL     1       2.630   4.594  21.442  0.00  0.00    +0.000 OA
BRANCH  17  18
ATOM     18  C   UNL     1       2.233   3.302  21.566  0.00  0.00    +0.000 C 
ATOM     19  O   UNL     1       1.537   2.858  22.462  0.00  0.00    +0.000 OA
BRANCH  18  20
ATOM     20  C   UNL     1       2.733   2.521  20.420  0.00  0.00    +0.000 A 
ATOM     21  C   UNL     1       1.860   2.199  19.457  0.00  0.00    +0.000 A 
ATOM     22  C   UNL     1       2.284   1.486  18.267  0.00  0.00    +0.000 A 
ATOM     23  C   UNL     1       3.571   1.160  18.120  0.00  0.00    +0.000 A 
ATOM     24  N   UNL     1       4.480   1.468  19.097  0.00  0.00    +0.000 N 
ATOM     25  C   UNL     1       4.160   2.109  20.272  0.00  0.00    +0.000 A 
ATOM     26  O   UNL     1       5.027   2.287  21.129  0.00  0.00    +0.000 OA
ATOM     27  H   UNL     1       5.452   1.208  18.999  0.00  0.00    +0.000 HD
ENDBRANCH  18  20
ENDBRANCH  17  18
ENDBRANCH  16  17
ENDBRANCH   1  16
TORSDOF 7
ENDMDL
MODEL 9
REMARK VINA RESULT:      -7.3      2.795      4.551
REMARK  Name = 
REMARK  9 active torsions:
REMARK  status: ('A' for Active; 'I' for Inactive)
REMARK    1  A    between atoms: C_1  and  C_2
REMARK    2  A    between atoms: C_4  and  C_5
REMARK    3  A    between atoms: C_5  and  C_7
REMARK    4  A    between atoms: C_7  and  O_8
REMARK    5  A    between atoms: O_8  and  C_9
REMARK    6  A    between atoms: C_9  and  C_11
REMARK    7  A    between atoms: C_18  and  C_19
REMARK    8  A    between atoms: N_20  and  C_21
REMARK    9  A    between atoms: C_21  and  C_22
REMARK                            x       y       z     vdW  Elec       q    Type
REMARK                         _______ _______ _______ _____ _____    ______ ____
ROOT
ATOM      1  C   UNL     1       2.385   3.662  18.174  0.00  0.00    +0.000 C 
ATOM      2  O   UNL     1       1.459   2.853  18.115  0.00  0.00    +0.000 OA
ENDROOT
BRANCH   1   6
ATOM      3  C   UNL     1       2.373   8.670  17.918  0.00  0.00    +0.000 C 
ATOM      4  C   UNL     1       2.152   7.308  18.468  0.00  0.00    +0.000 A 
ATOM      5  C   UNL     1       2.237   6.160  17.723  0.00  0.00    +0.000 A 
ATOM      6  C   UNL     1       2.196   5.052  18.591  0.00  0.00    +0.000 A 
ATOM      7  C   UNL     1       1.983   5.553  19.870  0.00  0.00    +0.000 A 
ATOM      8  C   UNL     1       1.875   4.804  21.160  0.00  0.00    +0.000 C 
ATOM      9  N   UNL     1       1.895   6.949  19.782  0.00  0.00    +0.000 N 
BRANCH   9  10
ATOM     10  C   UNL     1       1.820   7.832  20.948  0.00  0.00    +0.000 C 
BRANCH  10  11
ATOM     11  C   UNL     1       0.575   8.709  21.188  0.00  0.00    +0.000 C 
ATOM     12  C   UNL     1       0.680  10.180  20.830  0.00  0.00    +0.000 C 
ATOM     13  C   UNL     1      -0.186  10.883  21.849  0.00  0.00    +0.000 C 
ATOM     14  C   UNL     1      -0.426   9.871  22.946  0.00  0.00    +0.000 C 
ATOM     15  O   UNL     1       0.085   8.606  22.525  0.00  0.00    +0.000 OA
ENDBRANCH  10  11
ENDBRANCH   9  10
ENDBRANCH   1   6
BRANCH   1  16
ATOM     16  C   UNL     1       3.822   3.287  17.798  0.00  0.00    +0.000 C 
BRANCH  16  17
ATOM     17  O   UNL     1       4.742   3.534  18.836  0.00  0.00    +0.000 OA
BRANCH  17  18
ATOM     18  C   UNL     1       5.461   4.676  18.688  0.00  0.00    +0.000 C 
ATOM     19  O   UNL     1       5.674   5.497  19.561  0.00  0.00    +0.000 OA
BRANCH  18  20
ATOM     20  C   UNL     1       5.991   4.748  17.314  0.00  0.00    +0.000 A 
ATOM     21  C   UNL     1       5.144   5.095  16.336  0.00  0.00    +0.000 A 
ATOM     22  C   UNL     1       5.601   5.250  14.968  0.00  0.00    +0.000 A 
ATOM     23  C   UNL     1       6.891   5.060  14.680  0.00  0.00    +0.000 A 
ATOM     24  N   UNL     1       7.774   4.694  15.661  0.00  0.00    +0.000 N 
ATOM     25  C   UNL     1       7.422   4.490  16.976  0.00  0.00    +0.000 A 
ATOM     26  O   UNL     1       8.265   4.094  17.782  0.00  0.00    +0.000 OA
ATOM     27  H   UNL     1       8.748   4.533  15.446  0.00  0.00    +0.000 HD
ENDBRANCH  18  20
ENDBRANCH  17  18
ENDBRANCH  16  17
ENDBRANCH   1  16
TORSDOF 7
ENDMDL
