MODEL 1
REMARK VINA RESULT:      -7.4      0.000      0.000
REMARK  Name = 
REMARK  4 active torsions:
REMARK  status: ('A' for Active; 'I' for Inactive)
REMARK    1  A    between atoms: C_1  and  C_2
REMARK    2  A    between atoms: C_2  and  C_3
REMARK    3  A    between atoms: C_11  and  C_13
REMARK    4  A    between atoms: C_13  and  C_14
REMARK                            x       y       z     vdW  Elec       q    Type
REMARK                         _______ _______ _______ _____ _____    ______ ____
ROOT
ATOM      1  C   UNL     1       4.947   4.000  15.518  0.00  0.00    +0.000 C 
ATOM      2  C   UNL     1       5.929   4.955  16.230  0.00  0.00    +0.000 C 
ATOM      3  C   UNL     1       7.251   4.941  15.434  0.00  0.00    +0.000 C 
ATOM      4  C   UNL     1       6.237   4.435  17.661  0.00  0.00    +0.000 C 
ATOM      5  C   UNL     1       5.031   4.477  18.591  0.00  0.00    +0.000 C 
ATOM      6  O   UNL     1       4.856   3.612  19.446  0.00  0.00    +0.000 OA
ATOM      7  C   UNL     1       4.210   5.646  18.421  0.00  0.00    +0.000 A 
ATOM      8  S   UNL     1       2.957   6.092  19.475  0.00  0.00    +0.000 S 
ATOM      9  C   UNL     1       2.716   7.510  18.544  0.00  0.00    +0.000 A 
ATOM     10  N   UNL     1       1.746   8.323  19.067  0.00  0.00    +0.000 N 
ATOM     11  C   UNL     1       1.460   9.578  18.577  0.00  0.00    +0.000 C 
ATOM     12  O   UNL     1       2.047  10.156  17.666  0.00  0.00    +0.000 OA
ATOM     13  N   UNL     1       3.465   7.636  17.471  0.00  0.00    +0.000 NA
ATOM     14  C   UNL     1       4.329   6.553  17.389  0.00  0.00    +0.000 A 
ATOM     15  C   UNL     1       5.337   6.405  16.283  0.00  0.00    +0.000 C 
ATOM     16  H   UNL     1       1.294   7.989  19.906  0.00  0.00    +0.000 HD
ENDROOT
BRANCH  11  17
ATOM     17  C   UNL     1       0.276  10.236  19.279  0.00  0.00    +0.000 C 
BRANCH  17  18
ATOM     18  C   UNL     1      -0.859  10.470  18.329  0.00  0.00    +0.000 A 
ATOM     19  C   UNL     1      -1.293   9.660  17.297  0.00  0.00    +0.000 A 
ATOM     20  C   UNL     1      -2.467  10.163  16.666  0.00  0.00    +0.000 A 
ATOM     21  C   UNL     1      -2.884  11.350  17.225  0.00  0.00    +0.000 A 
ATOM     22  S   UNL     1      -1.854  11.858  18.492  0.00  0.00    +0.000 S 
ENDBRANCH  17  18
ENDBRANCH  11  17
TORSDOF 2
ENDMDL
MODEL 2
REMARK VINA RESULT:      -7.0      1.434      1.837
REMARK  Name = 
REMARK  4 active torsions:
REMARK  status: ('A' for Active; 'I' for Inactive)
REMARK    1  A    between atoms: C_1  and  C_2
REMARK    2  A    between atoms: C_2  and  C_3
REMARK    3  A    between atoms: C_11  and  C_13
REMARK    4  A    between atoms: C_13  and  C_14
REMARK                            x       y       z     vdW  Elec       q    Type
REMARK                         _______ _______ _______ _____ _____    ______ ____
ROOT
ATOM      1  C   UNL     1       5.072   3.896  15.491  0.00  0.00    +0.000 C 
ATOM      2  C   UNL     1       6.034   4.941  16.095  0.00  0.00    +0.000 C 
ATOM      3  C   UNL     1       7.298   4.975  15.212  0.00  0.00    +0.000 C 
ATOM      4  C   UNL     1       6.468   4.506  17.521  0.00  0.00    +0.000 C 
ATOM      5  C   UNL     1       5.325   4.515  18.529  0.00  0.00    +0.000 C 
ATOM      6  O   UNL     1       5.264   3.679  19.428  0.00  0.00    +0.000 OA
ATOM      7  C   UNL     1       4.420   5.621  18.368  0.00  0.00    +0.000 A 
ATOM      8  S   UNL     1       3.211   6.034  19.486  0.00  0.00    +0.000 S 
ATOM      9  C   UNL     1       2.818   7.391  18.517  0.00  0.00    +0.000 A 
ATOM     10  N   UNL     1       1.833   8.164  19.071  0.00  0.00    +0.000 N 
ATOM     11  C   UNL     1       1.435   9.376  18.552  0.00  0.00    +0.000 C 
ATOM     12  O   UNL     1       1.922   9.948  17.580  0.00  0.00    +0.000 OA
ATOM     13  N   UNL     1       3.485   7.516  17.391  0.00  0.00    +0.000 NA
ATOM     14  C   UNL     1       4.411   6.487  17.294  0.00  0.00    +0.000 A 
ATOM     15  C   UNL     1       5.352   6.352  16.130  0.00  0.00    +0.000 C 
ATOM     16  H   UNL     1       1.460   7.841  19.952  0.00  0.00    +0.000 HD
ENDROOT
BRANCH  11  17
ATOM     17  C   UNL     1       0.259   9.990  19.306  0.00  0.00    +0.000 C 
BRANCH  17  18
ATOM     18  C   UNL     1       0.255  11.484  19.186  0.00  0.00    +0.000 A 
ATOM     19  C   UNL     1      -0.583  12.281  18.430  0.00  0.00    +0.000 A 
ATOM     20  C   UNL     1      -0.351  13.671  18.642  0.00  0.00    +0.000 A 
ATOM     21  C   UNL     1       0.667  13.892  19.542  0.00  0.00    +0.000 A 
ATOM     22  S   UNL     1       1.346  12.429  20.113  0.00  0.00    +0.000 S 
ENDBRANCH  17  18
ENDBRANCH  11  17
TORSDOF 2
ENDMDL
MODEL 3
REMARK VINA RESULT:      -6.9      2.405      2.855
REMARK  Name = 
REMARK  4 active torsions:
REMARK  status: ('A' for Active; 'I' for Inactive)
REMARK    1  A    between atoms: C_1  and  C_2
REMARK    2  A    between atoms: C_2  and  C_3
REMARK    3  A    between atoms: C_11  and  C_13
REMARK    4  A    between atoms: C_13  and  C_14
REMARK                            x       y       z     vdW  Elec       q    Type
REMARK                         _______ _______ _______ _____ _____    ______ ____
ROOT
ATOM      1  C   UNL     1       1.329   2.123  18.595  0.00  0.00    +0.000 C 
ATOM      2  C   UNL     1       2.796   2.593  18.694  0.00  0.00    +0.000 C 
ATOM      3  C   UNL     1       3.672   1.532  17.997  0.00  0.00    +0.000 C 
ATOM      4  C   UNL     1       3.235   2.662  20.182  0.00  0.00    +0.000 C 
ATOM      5  C   UNL     1       2.508   3.740  20.976  0.00  0.00    +0.000 C 
ATOM      6  O   UNL     1       2.217   3.571  22.159  0.00  0.00    +0.000 OA
ATOM      7  C   UNL     1       2.296   4.958  20.241  0.00  0.00    +0.000 A 
ATOM      8  S   UNL     1       1.748   6.407  20.933  0.00  0.00    +0.000 S 
ATOM      9  C   UNL     1       1.917   7.168  19.408  0.00  0.00    +0.000 A 
ATOM     10  N   UNL     1       1.620   8.504  19.451  0.00  0.00    +0.000 N 
ATOM     11  C   UNL     1       1.806   9.360  18.389  0.00  0.00    +0.000 C 
ATOM     12  O   UNL     1       2.298   9.073  17.300  0.00  0.00    +0.000 OA
ATOM     13  N   UNL     1       2.294   6.397  18.411  0.00  0.00    +0.000 NA
ATOM     14  C   UNL     1       2.508   5.111  18.886  0.00  0.00    +0.000 A 
ATOM     15  C   UNL     1       2.969   3.988  18.000  0.00  0.00    +0.000 C 
ATOM     16  H   UNL     1       1.331   8.864  20.350  0.00  0.00    +0.000 HD
ENDROOT
BRANCH  11  17
ATOM     17  C   UNL     1       1.310  10.775  18.669  0.00  0.00    +0.000 C 
BRANCH  17  18
ATOM     18  C   UNL     1      -0.159  10.901  18.399  0.00  0.00    +0.000 A 
ATOM     19  C   UNL     1      -1.014   9.960  17.859  0.00  0.00    +0.000 A 
ATOM     20  C   UNL     1      -2.369  10.401  17.841  0.00  0.00    +0.000 A 
ATOM     21  C   UNL     1      -2.504  11.671  18.353  0.00  0.00    +0.000 A 
ATOM     22  S   UNL     1      -1.001  12.329  18.838  0.00  0.00    +0.000 S 
ENDBRANCH  17  18
ENDBRANCH  11  17
TORSDOF 2
ENDMDL
MODEL 4
REMARK VINA RESULT:      -6.9      4.265      8.039
REMARK  Name = 
REMARK  4 active torsions:
REMARK  status: ('A' for Active; 'I' for Inactive)
REMARK    1  A    between atoms: C_1  and  C_2
REMARK    2  A    between atoms: C_2  and  C_3
REMARK    3  A    between atoms: C_11  and  C_13
REMARK    4  A    between atoms: C_13  and  C_14
REMARK                            x       y       z     vdW  Elec       q    Type
REMARK                         _______ _______ _______ _____ _____    ______ ____
ROOT
ATOM      1  C   UNL     1       0.715   3.535  19.941  0.00  0.00    +0.000 C 
ATOM      2  C   UNL     1       2.091   3.657  20.630  0.00  0.00    +0.000 C 
ATOM      3  C   UNL     1       2.045   2.803  21.913  0.00  0.00    +0.000 C 
ATOM      4  C   UNL     1       2.348   5.129  21.054  0.00  0.00    +0.000 C 
ATOM      5  C   UNL     1       2.505   6.078  19.873  0.00  0.00    +0.000 C 
ATOM      6  O   UNL     1       2.092   7.235  19.927  0.00  0.00    +0.000 OA
ATOM      7  C   UNL     1       3.243   5.517  18.773  0.00  0.00    +0.000 A 
ATOM      8  S   UNL     1       3.792   6.410  17.439  0.00  0.00    +0.000 S 
ATOM      9  C   UNL     1       4.550   4.995  16.838  0.00  0.00    +0.000 A 
ATOM     10  N   UNL     1       5.250   5.224  15.684  0.00  0.00    +0.000 N 
ATOM     11  C   UNL     1       6.050   4.280  15.081  0.00  0.00    +0.000 C 
ATOM     12  O   UNL     1       6.288   3.150  15.501  0.00  0.00    +0.000 OA
ATOM     13  N   UNL     1       4.365   3.896  17.535  0.00  0.00    +0.000 NA
ATOM     14  C   UNL     1       3.600   4.190  18.655  0.00  0.00    +0.000 A 
ATOM     15  C   UNL     1       3.226   3.150  19.675  0.00  0.00    +0.000 C 
ATOM     16  H   UNL     1       5.224   6.170  15.330  0.00  0.00    +0.000 HD
ENDROOT
BRANCH  11  17
ATOM     17  C   UNL     1       6.645   4.759  13.760  0.00  0.00    +0.000 C 
BRANCH  17  18
ATOM     18  C   UNL     1       6.466   3.736  12.679  0.00  0.00    +0.000 A 
ATOM     19  C   UNL     1       7.439   3.050  11.979  0.00  0.00    +0.000 A 
ATOM     20  C   UNL     1       6.891   2.080  11.090  0.00  0.00    +0.000 A 
ATOM     21  C   UNL     1       5.515   2.068  11.128  0.00  0.00    +0.000 A 
ATOM     22  S   UNL     1       4.893   3.229  12.219  0.00  0.00    +0.000 S 
ENDBRANCH  17  18
ENDBRANCH  11  17
TORSDOF 2
ENDMDL
MODEL 5
REMARK VINA RESULT:      -6.9      0.898      1.015
REMARK  Name = 
REMARK  4 active torsions:
REMARK  status: ('A' for Active; 'I' for Inactive)
REMARK    1  A    between atoms: C_1  and  C_2
REMARK    2  A    between atoms: C_2  and  C_3
REMARK    3  A    between atoms: C_11  and  C_13
REMARK    4  A    between atoms: C_13  and  C_14
REMARK                            x       y       z     vdW  Elec       q    Type
REMARK                         _______ _______ _______ _____ _____    ______ ____
ROOT
ATOM      1  C   UNL     1       4.976   3.824  15.390  0.00  0.00    +0.000 C 
ATOM      2  C   UNL     1       5.963   4.877  15.936  0.00  0.00    +0.000 C 
ATOM      3  C   UNL     1       7.130   4.985  14.934  0.00  0.00    +0.000 C 
ATOM      4  C   UNL     1       6.552   4.404  17.293  0.00  0.00    +0.000 C 
ATOM      5  C   UNL     1       5.517   4.337  18.410  0.00  0.00    +0.000 C 
ATOM      6  O   UNL     1       5.572   3.467  19.276  0.00  0.00    +0.000 OA
ATOM      7  C   UNL     1       4.569   5.418  18.385  0.00  0.00    +0.000 A 
ATOM      8  S   UNL     1       3.468   5.749  19.635  0.00  0.00    +0.000 S 
ATOM      9  C   UNL     1       2.939   7.128  18.766  0.00  0.00    +0.000 A 
ATOM     10  N   UNL     1       1.994   7.847  19.447  0.00  0.00    +0.000 N 
ATOM     11  C   UNL     1       1.510   9.063  19.019  0.00  0.00    +0.000 C 
ATOM     12  O   UNL     1       1.879   9.687  18.028  0.00  0.00    +0.000 OA
ATOM     13  N   UNL     1       3.486   7.317  17.585  0.00  0.00    +0.000 NA
ATOM     14  C   UNL     1       4.426   6.322  17.354  0.00  0.00    +0.000 A 
ATOM     15  C   UNL     1       5.248   6.263  16.096  0.00  0.00    +0.000 C 
ATOM     16  H   UNL     1       1.721   7.478  20.347  0.00  0.00    +0.000 HD
ENDROOT
BRANCH  11  17
ATOM     17  C   UNL     1       0.399   9.609  19.911  0.00  0.00    +0.000 C 
BRANCH  17  18
ATOM     18  C   UNL     1      -0.404  10.656  19.201  0.00  0.00    +0.000 A 
ATOM     19  C   UNL     1      -1.448  10.479  18.313  0.00  0.00    +0.000 A 
ATOM     20  C   UNL     1      -2.038  11.713  17.912  0.00  0.00    +0.000 A 
ATOM     21  C   UNL     1      -1.415  12.794  18.494  0.00  0.00    +0.000 A 
ATOM     22  S   UNL     1      -0.119  12.321  19.505  0.00  0.00    +0.000 S 
ENDBRANCH  17  18
ENDBRANCH  11  17
TORSDOF 2
ENDMDL
MODEL 6
REMARK VINA RESULT:      -6.8      3.195      7.982
REMARK  Name = 
REMARK  4 active torsions:
REMARK  status: ('A' for Active; 'I' for Inactive)
REMARK    1  A    between atoms: C_1  and  C_2
REMARK    2  A    between atoms: C_2  and  C_3
REMARK    3  A    between atoms: C_11  and  C_13
REMARK    4  A    between atoms: C_13  and  C_14
REMARK                            x       y       z     vdW  Elec       q    Type
REMARK                         _______ _______ _______ _____ _____    ______ ____
ROOT
ATOM      1  C   UNL     1       0.974  13.506  20.423  0.00  0.00    +0.000 C 
ATOM      2  C   UNL     1      -0.239  12.700  19.911  0.00  0.00    +0.000 C 
ATOM      3  C   UNL     1      -1.092  13.645  19.042  0.00  0.00    +0.000 C 
ATOM      4  C   UNL     1      -1.117  12.240  21.107  0.00  0.00    +0.000 C 
ATOM      5  C   UNL     1      -0.425  11.225  22.008  0.00  0.00    +0.000 C 
ATOM      6  O   UNL     1      -0.614  11.220  23.223  0.00  0.00    +0.000 OA
ATOM      7  C   UNL     1       0.363  10.258  21.293  0.00  0.00    +0.000 A 
ATOM      8  S   UNL     1       1.036   8.867  21.996  0.00  0.00    +0.000 S 
ATOM      9  C   UNL     1       1.620   8.403  20.454  0.00  0.00    +0.000 A 
ATOM     10  N   UNL     1       2.255   7.190  20.476  0.00  0.00    +0.000 N 
ATOM     11  C   UNL     1       2.694   6.540  19.344  0.00  0.00    +0.000 C 
ATOM     12  O   UNL     1       2.540   6.914  18.184  0.00  0.00    +0.000 OA
ATOM     13  N   UNL     1       1.398   9.246  19.469  0.00  0.00    +0.000 NA
ATOM     14  C   UNL     1       0.677  10.329  19.951  0.00  0.00    +0.000 A 
ATOM     15  C   UNL     1       0.242  11.467  19.071  0.00  0.00    +0.000 C 
ATOM     16  H   UNL     1       2.312   6.737  21.377  0.00  0.00    +0.000 HD
ENDROOT
BRANCH  11  17
ATOM     17  C   UNL     1       3.449   5.251  19.652  0.00  0.00    +0.000 C 
BRANCH  17  18
ATOM     18  C   UNL     1       2.743   4.058  19.082  0.00  0.00    +0.000 A 
ATOM     19  C   UNL     1       3.135   3.252  18.030  0.00  0.00    +0.000 A 
ATOM     20  C   UNL     1       2.256   2.148  17.832  0.00  0.00    +0.000 A 
ATOM     21  C   UNL     1       1.213   2.153  18.729  0.00  0.00    +0.000 A 
ATOM     22  S   UNL     1       1.287   3.492  19.792  0.00  0.00    +0.000 S 
ENDBRANCH  17  18
ENDBRANCH  11  17
TORSDOF 2
ENDMDL
MODEL 7
REMARK VINA RESULT:      -6.8      2.623      8.094
REMARK  Name = 
REMARK  4 active torsions:
REMARK  status: ('A' for Active; 'I' for Inactive)
REMARK    1  A    between atoms: C_1  and  C_2
REMARK    2  A    between atoms: C_2  and  C_3
REMARK    3  A    between atoms: C_11  and  C_13
REMARK    4  A    between atoms: C_13  and  C_14
REMARK                            x       y       z     vdW  Elec       q    Type
REMARK                         _______ _______ _______ _____ _____    ______ ____
ROOT
ATOM      1  C   UNL     1       1.315  13.355  20.349  0.00  0.00    +0.000 C 
ATOM      2  C   UNL     1       0.050  12.640  19.827  0.00  0.00    +0.000 C 
ATOM      3  C   UNL     1      -0.733  13.651  18.965  0.00  0.00    +0.000 C 
ATOM      4  C   UNL     1      -0.861  12.232  21.017  0.00  0.00    +0.000 C 
ATOM      5  C   UNL     1      -0.244  11.163  21.911  0.00  0.00    +0.000 C 
ATOM      6  O   UNL     1      -0.436  11.161  23.125  0.00  0.00    +0.000 OA
ATOM      7  C   UNL     1       0.476  10.150  21.188  0.00  0.00    +0.000 A 
ATOM      8  S   UNL     1       1.048   8.710  21.881  0.00  0.00    +0.000 S 
ATOM      9  C   UNL     1       1.602   8.219  20.335  0.00  0.00    +0.000 A 
ATOM     10  N   UNL     1       2.151   6.965  20.348  0.00  0.00    +0.000 N 
ATOM     11  C   UNL     1       2.546   6.296  19.211  0.00  0.00    +0.000 C 
ATOM     12  O   UNL     1       2.422   6.689  18.054  0.00  0.00    +0.000 OA
ATOM     13  N   UNL     1       1.443   9.084  19.358  0.00  0.00    +0.000 NA
ATOM     14  C   UNL     1       0.798  10.211  19.848  0.00  0.00    +0.000 A 
ATOM     15  C   UNL     1       0.445  11.384  18.977  0.00  0.00    +0.000 C 
ATOM     16  H   UNL     1       2.174   6.501  21.245  0.00  0.00    +0.000 HD
ENDROOT
BRANCH  11  17
ATOM     17  C   UNL     1       3.209   4.955  19.508  0.00  0.00    +0.000 C 
BRANCH  17  18
ATOM     18  C   UNL     1       4.351   4.692  18.574  0.00  0.00    +0.000 A 
ATOM     19  C   UNL     1       4.320   4.083  17.334  0.00  0.00    +0.000 A 
ATOM     20  C   UNL     1       5.591   4.095  16.689  0.00  0.00    +0.000 A 
ATOM     21  C   UNL     1       6.556   4.698  17.463  0.00  0.00    +0.000 A 
ATOM     22  S   UNL     1       5.932   5.232  18.964  0.00  0.00    +0.000 S 
ENDBRANCH  17  18
ENDBRANCH  11  17
TORSDOF 2
ENDMDL
MODEL 8
REMARK VINA RESULT:      -6.7      2.656      8.163
REMARK  Name = 
REMARK  4 active torsions:
REMARK  status: ('A' for Active; 'I' for Inactive)
REMARK    1  A    between atoms: C_1  and  C_2
REMARK    2  A    between atoms: C_2  and  C_3
REMARK    3  A    between atoms: C_11  and  C_13
REMARK    4  A    between atoms: C_13  and  C_14
REMARK                            x       y       z     vdW  Elec       q    Type
REMARK                         _______ _______ _______ _____ _____    ______ ____
ROOT
ATOM      1  C   UNL     1       1.003  13.012  20.394  0.00  0.00    +0.000 C 
ATOM      2  C   UNL     1      -0.120  12.209  19.703  0.00  0.00    +0.000 C 
ATOM      3  C   UNL     1      -0.924  13.192  18.828  0.00  0.00    +0.000 C 
ATOM      4  C   UNL     1      -1.090  11.625  20.766  0.00  0.00    +0.000 C 
ATOM      5  C   UNL     1      -0.447  10.565  21.652  0.00  0.00    +0.000 C 
ATOM      6  O   UNL     1      -0.752  10.456  22.838  0.00  0.00    +0.000 OA
ATOM      7  C   UNL     1       0.447   9.686  20.947  0.00  0.00    +0.000 A 
ATOM      8  S   UNL     1       1.105   8.267  21.606  0.00  0.00    +0.000 S 
ATOM      9  C   UNL     1       1.855   7.948  20.098  0.00  0.00    +0.000 A 
ATOM     10  N   UNL     1       2.535   6.760  20.091  0.00  0.00    +0.000 N 
ATOM     11  C   UNL     1       3.109   6.219  18.962  0.00  0.00    +0.000 C 
ATOM     12  O   UNL     1       3.053   6.678  17.824  0.00  0.00    +0.000 OA
ATOM     13  N   UNL     1       1.695   8.860  19.164  0.00  0.00    +0.000 NA
ATOM     14  C   UNL     1       0.886   9.876  19.653  0.00  0.00    +0.000 A 
ATOM     15  C   UNL     1       0.491  11.065  18.823  0.00  0.00    +0.000 C 
ATOM     16  H   UNL     1       2.523   6.238  20.956  0.00  0.00    +0.000 HD
ENDROOT
BRANCH  11  17
ATOM     17  C   UNL     1       3.884   4.935  19.244  0.00  0.00    +0.000 C 
BRANCH  17  18
ATOM     18  C   UNL     1       5.267   4.997  18.670  0.00  0.00    +0.000 A 
ATOM     19  C   UNL     1       6.417   5.489  19.258  0.00  0.00    +0.000 A 
ATOM     20  C   UNL     1       7.571   5.293  18.445  0.00  0.00    +0.000 A 
ATOM     21  C   UNL     1       7.264   4.672  17.256  0.00  0.00    +0.000 A 
ATOM     22  S   UNL     1       5.591   4.343  17.118  0.00  0.00    +0.000 S 
ENDBRANCH  17  18
ENDBRANCH  11  17
TORSDOF 2
ENDMDL
MODEL 9
REMARK VINA RESULT:      -6.7      1.471      2.318
REMARK  Name = 
REMARK  4 active torsions:
REMARK  status: ('A' for Active; 'I' for Inactive)
REMARK    1  A    between atoms: C_1  and  C_2
REMARK    2  A    between atoms: C_2  and  C_3
REMARK    3  A    between atoms: C_11  and  C_13
REMARK    4  A    between atoms: C_13  and  C_14
REMARK                            x       y       z     vdW  Elec       q    Type
REMARK                         _______ _______ _______ _____ _____    ______ ____
ROOT
ATOM      1  C   UNL     1       5.138   4.001  15.898  0.00  0.00    +0.000 C 
ATOM      2  C   UNL     1       5.993   4.894  16.822  0.00  0.00    +0.000 C 
ATOM      3  C   UNL     1       7.444   4.849  16.300  0.00  0.00    +0.000 C 
ATOM      4  C   UNL     1       5.995   4.322  18.266  0.00  0.00    +0.000 C 
ATOM      5  C   UNL     1       4.631   4.388  18.943  0.00  0.00    +0.000 C 
ATOM      6  O   UNL     1       4.262   3.507  19.716  0.00  0.00    +0.000 OA
ATOM      7  C   UNL     1       3.902   5.594  18.658  0.00  0.00    +0.000 A 
ATOM      8  S   UNL     1       2.481   6.061  19.461  0.00  0.00    +0.000 S 
ATOM      9  C   UNL     1       2.478   7.514  18.552  0.00  0.00    +0.000 A 
ATOM     10  N   UNL     1       1.453   8.351  18.904  0.00  0.00    +0.000 N 
ATOM     11  C   UNL     1       1.314   9.631  18.414  0.00  0.00    +0.000 C 
ATOM     12  O   UNL     1       2.089  10.209  17.656  0.00  0.00    +0.000 OA
ATOM     13  N   UNL     1       3.428   7.640  17.652  0.00  0.00    +0.000 NA
ATOM     14  C   UNL     1       4.253   6.524  17.701  0.00  0.00    +0.000 A 
ATOM     15  C   UNL     1       5.453   6.365  16.810  0.00  0.00    +0.000 C 
ATOM     16  H   UNL     1       0.834   8.013  19.626  0.00  0.00    +0.000 HD
ENDROOT
BRANCH  11  17
ATOM     17  C   UNL     1       0.039  10.317  18.894  0.00  0.00    +0.000 C 
BRANCH  17  18
ATOM     18  C   UNL     1      -0.164  10.121  20.366  0.00  0.00    +0.000 A 
ATOM     19  C   UNL     1      -0.112   8.945  21.089  0.00  0.00    +0.000 A 
ATOM     20  C   UNL     1      -0.259   9.159  22.490  0.00  0.00    +0.000 A 
ATOM     21  C   UNL     1      -0.436  10.490  22.791  0.00  0.00    +0.000 A 
ATOM     22  S   UNL     1      -0.437  11.470  21.390  0.00  0.00    +0.000 S 
ENDBRANCH  17  18
ENDBRANCH  11  17
TORSDOF 2
ENDMDL
