MODEL 1
REMARK VINA RESULT:      -9.3      0.000      0.000
REMARK  Name = 
REMARK  5 active torsions:
REMARK  status: ('A' for Active; 'I' for Inactive)
REMARK    1  A    between atoms: C_1  and  C_2
REMARK    2  A    between atoms: C_2  and  N_3
REMARK    3  A    between atoms: C_6  and  C_7
REMARK    4  A    between atoms: N_13  and  S_14
REMARK    5  A    between atoms: S_14  and  C_17
REMARK                            x       y       z     vdW  Elec       q    Type
REMARK                         _______ _______ _______ _____ _____    ______ ____
ROOT
ATOM      1  N   UNL     1       6.837   5.135  14.253  0.00  0.00    +0.000 N 
ATOM      2  C   UNL     1       6.703   5.219  15.654  0.00  0.00    +0.000 A 
ATOM      3  C   UNL     1       7.425   6.176  16.328  0.00  0.00    +0.000 A 
ATOM      4  C   UNL     1       7.249   6.230  17.693  0.00  0.00    +0.000 A 
ATOM      5  C   UNL     1       8.044   7.181  18.535  0.00  0.00    +0.000 C 
ATOM      6  N   UNL     1       6.374   5.431  18.339  0.00  0.00    +0.000 NA
ATOM      7  C   UNL     1       5.668   4.557  17.607  0.00  0.00    +0.000 A 
ATOM      8  N   UNL     1       4.785   3.689  18.221  0.00  0.00    +0.000 N 
ATOM      9  C   UNL     1       3.647   3.253  17.406  0.00  0.00    +0.000 C 
ATOM     10  C   UNL     1       3.061   1.949  17.989  0.00  0.00    +0.000 C 
ATOM     11  N   UNL     1       2.747   2.050  19.456  0.00  0.00    +0.000 NA
ATOM     12  C   UNL     1       3.953   2.553  20.210  0.00  0.00    +0.000 C 
ATOM     13  C   UNL     1       4.493   3.881  19.642  0.00  0.00    +0.000 C 
ATOM     14  N   UNL     1       5.829   4.429  16.283  0.00  0.00    +0.000 NA
ATOM     15  H   UNL     1       6.273   5.886  13.860  0.00  0.00    +0.000 HD
ENDROOT
BRANCH  11  16
ATOM     16  S   UNL     1       1.290   2.812  19.882  0.00  0.00    +0.000 S 
ATOM     17  O   UNL     1       0.301   2.516  18.871  0.00  0.00    +0.000 OA
ATOM     18  O   UNL     1       1.035   2.556  21.281  0.00  0.00    +0.000 OA
BRANCH  16  19
ATOM     19  C   UNL     1       1.673   4.538  19.711  0.00  0.00    +0.000 A 
ATOM     20  C   UNL     1       1.965   5.046  18.442  0.00  0.00    +0.000 A 
ATOM     21  C   UNL     1       2.193   6.411  18.296  0.00  0.00    +0.000 A 
ATOM     22  F   UNL     1       2.468   6.902  17.081  0.00  0.00    +0.000 F 
ATOM     23  C   UNL     1       2.126   7.262  19.392  0.00  0.00    +0.000 A 
ATOM     24  F   UNL     1       2.332   8.579  19.237  0.00  0.00    +0.000 F 
ATOM     25  C   UNL     1       1.836   6.744  20.647  0.00  0.00    +0.000 A 
ATOM     26  F   UNL     1       1.761   7.557  21.707  0.00  0.00    +0.000 F 
ATOM     27  C   UNL     1       1.608   5.381  20.825  0.00  0.00    +0.000 A 
ENDBRANCH  16  19
ENDBRANCH  11  16
BRANCH   1  29
ATOM     28  C   UNL     1       6.742   3.796  12.221  0.00  0.00    +0.000 C 
ATOM     29  C   UNL     1       6.463   3.829  13.714  0.00  0.00    +0.000 C 
ENDBRANCH   1  29
TORSDOF 3
ENDMDL
MODEL 2
REMARK VINA RESULT:      -9.0      6.765      9.132
REMARK  Name = 
REMARK  5 active torsions:
REMARK  status: ('A' for Active; 'I' for Inactive)
REMARK    1  A    between atoms: C_1  and  C_2
REMARK    2  A    between atoms: C_2  and  N_3
REMARK    3  A    between atoms: C_6  and  C_7
REMARK    4  A    between atoms: N_13  and  S_14
REMARK    5  A    between atoms: S_14  and  C_17
REMARK                            x       y       z     vdW  Elec       q    Type
REMARK                         _______ _______ _______ _____ _____    ______ ____
ROOT
ATOM      1  N   UNL     1      -4.511  10.627  15.335  0.00  0.00    +0.000 N 
ATOM      2  C   UNL     1      -4.229  11.144  16.616  0.00  0.00    +0.000 A 
ATOM      3  C   UNL     1      -5.214  11.839  17.278  0.00  0.00    +0.000 A 
ATOM      4  C   UNL     1      -4.896  12.310  18.532  0.00  0.00    +0.000 A 
ATOM      5  C   UNL     1      -5.867  13.146  19.309  0.00  0.00    +0.000 C 
ATOM      6  N   UNL     1      -3.704  12.061  19.115  0.00  0.00    +0.000 NA
ATOM      7  C   UNL     1      -2.813  11.334  18.428  0.00  0.00    +0.000 A 
ATOM      8  N   UNL     1      -1.563  11.080  18.960  0.00  0.00    +0.000 N 
ATOM      9  C   UNL     1      -0.919   9.839  18.519  0.00  0.00    +0.000 C 
ATOM     10  C   UNL     1       0.603   9.930  18.759  0.00  0.00    +0.000 C 
ATOM     11  N   UNL     1       0.954  10.321  20.168  0.00  0.00    +0.000 NA
ATOM     12  C   UNL     1       0.211  11.575  20.557  0.00  0.00    +0.000 C 
ATOM     13  C   UNL     1      -1.313  11.446  20.355  0.00  0.00    +0.000 C 
ATOM     14  N   UNL     1      -3.050  10.886  17.187  0.00  0.00    +0.000 NA
ATOM     15  H   UNL     1      -5.060   9.781  15.476  0.00  0.00    +0.000 HD
ENDROOT
BRANCH  11  16
ATOM     16  S   UNL     1       0.913   9.093  21.341  0.00  0.00    +0.000 S 
ATOM     17  O   UNL     1       1.841   9.432  22.396  0.00  0.00    +0.000 OA
ATOM     18  O   UNL     1      -0.469   8.782  21.625  0.00  0.00    +0.000 OA
BRANCH  16  19
ATOM     19  C   UNL     1       1.615   7.700  20.491  0.00  0.00    +0.000 A 
ATOM     20  C   UNL     1       1.384   6.414  20.988  0.00  0.00    +0.000 A 
ATOM     21  C   UNL     1       1.872   5.319  20.282  0.00  0.00    +0.000 A 
ATOM     22  F   UNL     1       1.647   4.085  20.753  0.00  0.00    +0.000 F 
ATOM     23  C   UNL     1       2.574   5.495  19.096  0.00  0.00    +0.000 A 
ATOM     24  F   UNL     1       3.027   4.430  18.416  0.00  0.00    +0.000 F 
ATOM     25  C   UNL     1       2.798   6.777  18.616  0.00  0.00    +0.000 A 
ATOM     26  F   UNL     1       3.466   6.957  17.470  0.00  0.00    +0.000 F 
ATOM     27  C   UNL     1       2.327   7.894  19.302  0.00  0.00    +0.000 A 
ENDBRANCH  16  19
ENDBRANCH  11  16
BRANCH   1  29
ATOM     28  C   UNL     1      -3.718   9.866  13.162  0.00  0.00    +0.000 C 
ATOM     29  C   UNL     1      -3.314  10.377  14.535  0.00  0.00    +0.000 C 
ENDBRANCH   1  29
TORSDOF 3
ENDMDL
MODEL 3
REMARK VINA RESULT:      -8.9      6.780      9.056
REMARK  Name = 
REMARK  5 active torsions:
REMARK  status: ('A' for Active; 'I' for Inactive)
REMARK    1  A    between atoms: C_1  and  C_2
REMARK    2  A    between atoms: C_2  and  N_3
REMARK    3  A    between atoms: C_6  and  C_7
REMARK    4  A    between atoms: N_13  and  S_14
REMARK    5  A    between atoms: S_14  and  C_17
REMARK                            x       y       z     vdW  Elec       q    Type
REMARK                         _______ _______ _______ _____ _____    ______ ____
ROOT
ATOM      1  N   UNL     1      -4.469  10.595  15.317  0.00  0.00    +0.000 N 
ATOM      2  C   UNL     1      -4.211  11.124  16.597  0.00  0.00    +0.000 A 
ATOM      3  C   UNL     1      -5.214  11.809  17.241  0.00  0.00    +0.000 A 
ATOM      4  C   UNL     1      -4.919  12.294  18.496  0.00  0.00    +0.000 A 
ATOM      5  C   UNL     1      -5.913  13.121  19.255  0.00  0.00    +0.000 C 
ATOM      6  N   UNL     1      -3.732  12.065  19.096  0.00  0.00    +0.000 NA
ATOM      7  C   UNL     1      -2.821  11.346  18.426  0.00  0.00    +0.000 A 
ATOM      8  N   UNL     1      -1.575  11.114  18.977  0.00  0.00    +0.000 N 
ATOM      9  C   UNL     1      -0.908   9.879  18.552  0.00  0.00    +0.000 C 
ATOM     10  C   UNL     1       0.609   9.994  18.811  0.00  0.00    +0.000 C 
ATOM     11  N   UNL     1       0.936  10.399  20.222  0.00  0.00    +0.000 NA
ATOM     12  C   UNL     1       0.170  11.645  20.593  0.00  0.00    +0.000 C 
ATOM     13  C   UNL     1      -1.349  11.493  20.372  0.00  0.00    +0.000 C 
ATOM     14  N   UNL     1      -3.036  10.887  17.185  0.00  0.00    +0.000 NA
ATOM     15  H   UNL     1      -5.008   9.742  15.457  0.00  0.00    +0.000 HD
ENDROOT
BRANCH  11  16
ATOM     16  S   UNL     1       0.897   9.178  21.403  0.00  0.00    +0.000 S 
ATOM     17  O   UNL     1       1.875   9.490  22.421  0.00  0.00    +0.000 OA
ATOM     18  O   UNL     1      -0.483   8.917  21.741  0.00  0.00    +0.000 OA
BRANCH  16  19
ATOM     19  C   UNL     1       1.519   7.758  20.536  0.00  0.00    +0.000 A 
ATOM     20  C   UNL     1       2.230   7.947  19.347  0.00  0.00    +0.000 A 
ATOM     21  C   UNL     1       2.780   6.841  18.706  0.00  0.00    +0.000 A 
ATOM     22  F   UNL     1       3.467   7.018  17.570  0.00  0.00    +0.000 F 
ATOM     23  C   UNL     1       2.633   5.566  19.239  0.00  0.00    +0.000 A 
ATOM     24  F   UNL     1       3.181   4.509  18.620  0.00  0.00    +0.000 F 
ATOM     25  C   UNL     1       1.923   5.394  20.419  0.00  0.00    +0.000 A 
ATOM     26  F   UNL     1       1.783   4.171  20.945  0.00  0.00    +0.000 F 
ATOM     27  C   UNL     1       1.357   6.480  21.081  0.00  0.00    +0.000 A 
ENDBRANCH  16  19
ENDBRANCH  11  16
BRANCH   1  29
ATOM     28  C   UNL     1      -3.637   9.838  13.157  0.00  0.00    +0.000 C 
ATOM     29  C   UNL     1      -3.258  10.356  14.534  0.00  0.00    +0.000 C 
ENDBRANCH   1  29
TORSDOF 3
ENDMDL
MODEL 4
REMARK VINA RESULT:      -8.8      6.129      7.850
REMARK  Name = 
REMARK  5 active torsions:
REMARK  status: ('A' for Active; 'I' for Inactive)
REMARK    1  A    between atoms: C_1  and  C_2
REMARK    2  A    between atoms: C_2  and  N_3
REMARK    3  A    between atoms: C_6  and  C_7
REMARK    4  A    between atoms: N_13  and  S_14
REMARK    5  A    between atoms: S_14  and  C_17
REMARK                            x       y       z     vdW  Elec       q    Type
REMARK                         _______ _______ _______ _____ _____    ______ ____
ROOT
ATOM      1  N   UNL     1       2.708   4.362  19.724  0.00  0.00    +0.000 N 
ATOM      2  C   UNL     1       2.942   5.555  19.011  0.00  0.00    +0.000 A 
ATOM      3  C   UNL     1       3.793   5.522  17.931  0.00  0.00    +0.000 A 
ATOM      4  C   UNL     1       3.978   6.708  17.258  0.00  0.00    +0.000 A 
ATOM      5  C   UNL     1       4.942   6.803  16.115  0.00  0.00    +0.000 C 
ATOM      6  N   UNL     1       3.319   7.838  17.594  0.00  0.00    +0.000 NA
ATOM      7  C   UNL     1       2.468   7.781  18.627  0.00  0.00    +0.000 A 
ATOM      8  N   UNL     1       1.795   8.916  19.039  0.00  0.00    +0.000 N 
ATOM      9  C   UNL     1       0.495   8.692  19.677  0.00  0.00    +0.000 C 
ATOM     10  C   UNL     1       0.111   9.928  20.519  0.00  0.00    +0.000 C 
ATOM     11  N   UNL     1       0.188  11.215  19.745  0.00  0.00    +0.000 NA
ATOM     12  C   UNL     1       1.537  11.339  19.081  0.00  0.00    +0.000 C 
ATOM     13  C   UNL     1       1.880  10.116  18.206  0.00  0.00    +0.000 C 
ATOM     14  N   UNL     1       2.281   6.665  19.347  0.00  0.00    +0.000 NA
ATOM     15  H   UNL     1       2.045   3.819  19.174  0.00  0.00    +0.000 HD
ENDROOT
BRANCH  11  16
ATOM     16  S   UNL     1      -1.125  11.585  18.733  0.00  0.00    +0.000 S 
ATOM     17  O   UNL     1      -0.779  12.737  17.932  0.00  0.00    +0.000 OA
ATOM     18  O   UNL     1      -1.591  10.359  18.127  0.00  0.00    +0.000 OA
BRANCH  16  19
ATOM     19  C   UNL     1      -2.372  12.130  19.874  0.00  0.00    +0.000 A 
ATOM     20  C   UNL     1      -3.697  12.223  19.438  0.00  0.00    +0.000 A 
ATOM     21  C   UNL     1      -4.686  12.579  20.350  0.00  0.00    +0.000 A 
ATOM     22  F   UNL     1      -5.957  12.663  19.937  0.00  0.00    +0.000 F 
ATOM     23  C   UNL     1      -4.367  12.834  21.678  0.00  0.00    +0.000 A 
ATOM     24  F   UNL     1      -5.330  13.162  22.552  0.00  0.00    +0.000 F 
ATOM     25  C   UNL     1      -3.047  12.740  22.097  0.00  0.00    +0.000 A 
ATOM     26  F   UNL     1      -2.730  12.975  23.375  0.00  0.00    +0.000 F 
ATOM     27  C   UNL     1      -2.034  12.391  21.206  0.00  0.00    +0.000 A 
ENDBRANCH  16  19
ENDBRANCH  11  16
BRANCH   1  29
ATOM     28  C   UNL     1       1.846   3.258  21.716  0.00  0.00    +0.000 C 
ATOM     29  C   UNL     1       2.237   4.586  21.089  0.00  0.00    +0.000 C 
ENDBRANCH   1  29
TORSDOF 3
ENDMDL
MODEL 5
REMARK VINA RESULT:      -8.8      0.252      1.579
REMARK  Name = 
REMARK  5 active torsions:
REMARK  status: ('A' for Active; 'I' for Inactive)
REMARK    1  A    between atoms: C_1  and  C_2
REMARK    2  A    between atoms: C_2  and  N_3
REMARK    3  A    between atoms: C_6  and  C_7
REMARK    4  A    between atoms: N_13  and  S_14
REMARK    5  A    between atoms: S_14  and  C_17
REMARK                            x       y       z     vdW  Elec       q    Type
REMARK                         _______ _______ _______ _____ _____    ______ ____
ROOT
ATOM      1  N   UNL     1       6.760   4.934  14.075  0.00  0.00    +0.000 N 
ATOM      2  C   UNL     1       6.611   5.129  15.463  0.00  0.00    +0.000 A 
ATOM      3  C   UNL     1       7.271   6.180  16.055  0.00  0.00    +0.000 A 
ATOM      4  C   UNL     1       7.082   6.340  17.410  0.00  0.00    +0.000 A 
ATOM      5  C   UNL     1       7.814   7.405  18.169  0.00  0.00    +0.000 C 
ATOM      6  N   UNL     1       6.249   5.549  18.119  0.00  0.00    +0.000 NA
ATOM      7  C   UNL     1       5.601   4.576  17.464  0.00  0.00    +0.000 A 
ATOM      8  N   UNL     1       4.766   3.713  18.146  0.00  0.00    +0.000 N 
ATOM      9  C   UNL     1       3.661   3.143  17.369  0.00  0.00    +0.000 C 
ATOM     10  C   UNL     1       3.148   1.862  18.060  0.00  0.00    +0.000 C 
ATOM     11  N   UNL     1       2.817   2.068  19.512  0.00  0.00    +0.000 NA
ATOM     12  C   UNL     1       3.987   2.703  20.223  0.00  0.00    +0.000 C 
ATOM     13  C   UNL     1       4.453   4.008  19.545  0.00  0.00    +0.000 C 
ATOM     14  N   UNL     1       5.779   4.346  16.155  0.00  0.00    +0.000 NA
ATOM     15  H   UNL     1       6.156   5.615  13.618  0.00  0.00    +0.000 HD
ENDROOT
BRANCH  11  16
ATOM     16  S   UNL     1       1.315   2.777  19.868  0.00  0.00    +0.000 S 
ATOM     17  O   UNL     1       0.367   2.386  18.850  0.00  0.00    +0.000 OA
ATOM     18  O   UNL     1       1.039   2.575  21.272  0.00  0.00    +0.000 OA
BRANCH  16  19
ATOM     19  C   UNL     1       1.619   4.510  19.623  0.00  0.00    +0.000 A 
ATOM     20  C   UNL     1       1.582   5.368  20.726  0.00  0.00    +0.000 A 
ATOM     21  C   UNL     1       1.892   6.713  20.546  0.00  0.00    +0.000 A 
ATOM     22  F   UNL     1       1.862   7.537  21.601  0.00  0.00    +0.000 F 
ATOM     23  C   UNL     1       2.241   7.199  19.292  0.00  0.00    +0.000 A 
ATOM     24  F   UNL     1       2.552   8.495  19.134  0.00  0.00    +0.000 F 
ATOM     25  C   UNL     1       2.272   6.336  18.206  0.00  0.00    +0.000 A 
ATOM     26  F   UNL     1       2.614   6.793  16.996  0.00  0.00    +0.000 F 
ATOM     27  C   UNL     1       1.962   4.986  18.353  0.00  0.00    +0.000 A 
ENDBRANCH  16  19
ENDBRANCH  11  16
BRANCH   1  29
ATOM     28  C   UNL     1       5.973   3.578  12.212  0.00  0.00    +0.000 C 
ATOM     29  C   UNL     1       6.466   3.567  13.649  0.00  0.00    +0.000 C 
ENDBRANCH   1  29
TORSDOF 3
ENDMDL
MODEL 6
REMARK VINA RESULT:      -8.7      6.207      7.995
REMARK  Name = 
REMARK  5 active torsions:
REMARK  status: ('A' for Active; 'I' for Inactive)
REMARK    1  A    between atoms: C_1  and  C_2
REMARK    2  A    between atoms: C_2  and  N_3
REMARK    3  A    between atoms: C_6  and  C_7
REMARK    4  A    between atoms: N_13  and  S_14
REMARK    5  A    between atoms: S_14  and  C_17
REMARK                            x       y       z     vdW  Elec       q    Type
REMARK                         _______ _______ _______ _____ _____    ______ ____
ROOT
ATOM      1  N   UNL     1       2.557   4.398  19.584  0.00  0.00    +0.000 N 
ATOM      2  C   UNL     1       2.854   5.594  18.898  0.00  0.00    +0.000 A 
ATOM      3  C   UNL     1       3.748   5.549  17.854  0.00  0.00    +0.000 A 
ATOM      4  C   UNL     1       3.993   6.738  17.205  0.00  0.00    +0.000 A 
ATOM      5  C   UNL     1       5.008   6.820  16.105  0.00  0.00    +0.000 C 
ATOM      6  N   UNL     1       3.354   7.882  17.529  0.00  0.00    +0.000 NA
ATOM      7  C   UNL     1       2.459   7.836  18.526  0.00  0.00    +0.000 A 
ATOM      8  N   UNL     1       1.801   8.985  18.924  0.00  0.00    +0.000 N 
ATOM      9  C   UNL     1       0.469   8.791  19.505  0.00  0.00    +0.000 C 
ATOM     10  C   UNL     1       0.086  10.026  20.347  0.00  0.00    +0.000 C 
ATOM     11  N   UNL     1       0.231  11.320  19.595  0.00  0.00    +0.000 NA
ATOM     12  C   UNL     1       1.610  11.414  18.989  0.00  0.00    +0.000 C 
ATOM     13  C   UNL     1       1.955  10.193  18.112  0.00  0.00    +0.000 C 
ATOM     14  N   UNL     1       2.210   6.718  19.222  0.00  0.00    +0.000 NA
ATOM     15  H   UNL     1       1.902   3.882  19.000  0.00  0.00    +0.000 HD
ENDROOT
BRANCH  11  16
ATOM     16  S   UNL     1      -1.027  11.740  18.534  0.00  0.00    +0.000 S 
ATOM     17  O   UNL     1      -0.660  12.953  17.840  0.00  0.00    +0.000 OA
ATOM     18  O   UNL     1      -1.430  10.554  17.815  0.00  0.00    +0.000 OA
BRANCH  16  19
ATOM     19  C   UNL     1      -2.351  12.180  19.634  0.00  0.00    +0.000 A 
ATOM     20  C   UNL     1      -2.043  12.745  20.875  0.00  0.00    +0.000 A 
ATOM     21  C   UNL     1      -3.081  13.157  21.705  0.00  0.00    +0.000 A 
ATOM     22  F   UNL     1      -2.789  13.704  22.893  0.00  0.00    +0.000 F 
ATOM     23  C   UNL     1      -4.405  13.017  21.309  0.00  0.00    +0.000 A 
ATOM     24  F   UNL     1      -5.397  13.432  22.112  0.00  0.00    +0.000 F 
ATOM     25  C   UNL     1      -4.696  12.453  20.075  0.00  0.00    +0.000 A 
ATOM     26  F   UNL     1      -5.968  12.321  19.681  0.00  0.00    +0.000 F 
ATOM     27  C   UNL     1      -3.680  12.026  19.224  0.00  0.00    +0.000 A 
ENDBRANCH  16  19
ENDBRANCH  11  16
BRANCH   1  29
ATOM     28  C   UNL     1       1.886   3.285  21.643  0.00  0.00    +0.000 C 
ATOM     29  C   UNL     1       2.035   4.619  20.932  0.00  0.00    +0.000 C 
ENDBRANCH   1  29
TORSDOF 3
ENDMDL
MODEL 7
REMARK VINA RESULT:      -8.6      5.677      7.205
REMARK  Name = 
REMARK  5 active torsions:
REMARK  status: ('A' for Active; 'I' for Inactive)
REMARK    1  A    between atoms: C_1  and  C_2
REMARK    2  A    between atoms: C_2  and  N_3
REMARK    3  A    between atoms: C_6  and  C_7
REMARK    4  A    between atoms: N_13  and  S_14
REMARK    5  A    between atoms: S_14  and  C_17
REMARK                            x       y       z     vdW  Elec       q    Type
REMARK                         _______ _______ _______ _____ _____    ______ ____
ROOT
ATOM      1  N   UNL     1       4.759   5.013  17.941  0.00  0.00    +0.000 N 
ATOM      2  C   UNL     1       3.765   5.066  18.939  0.00  0.00    +0.000 A 
ATOM      3  C   UNL     1       3.634   3.999  19.796  0.00  0.00    +0.000 A 
ATOM      4  C   UNL     1       2.661   4.104  20.764  0.00  0.00    +0.000 A 
ATOM      5  C   UNL     1       2.381   2.968  21.700  0.00  0.00    +0.000 C 
ATOM      6  N   UNL     1       1.908   5.214  20.912  0.00  0.00    +0.000 NA
ATOM      7  C   UNL     1       2.128   6.234  20.070  0.00  0.00    +0.000 A 
ATOM      8  N   UNL     1       1.361   7.381  20.152  0.00  0.00    +0.000 N 
ATOM      9  C   UNL     1       2.010   8.617  19.704  0.00  0.00    +0.000 C 
ATOM     10  C   UNL     1       0.936   9.673  19.365  0.00  0.00    +0.000 C 
ATOM     11  N   UNL     1      -0.055   9.883  20.477  0.00  0.00    +0.000 NA
ATOM     12  C   UNL     1      -0.634   8.558  20.909  0.00  0.00    +0.000 C 
ATOM     13  C   UNL     1       0.454   7.534  21.290  0.00  0.00    +0.000 C 
ATOM     14  N   UNL     1       3.031   6.172  19.081  0.00  0.00    +0.000 NA
ATOM     15  H   UNL     1       5.644   5.227  18.397  0.00  0.00    +0.000 HD
ENDROOT
BRANCH  11  16
ATOM     16  S   UNL     1       0.427  10.887  21.760  0.00  0.00    +0.000 S 
ATOM     17  O   UNL     1       0.636  10.069  22.932  0.00  0.00    +0.000 OA
ATOM     18  O   UNL     1       1.451  11.783  21.275  0.00  0.00    +0.000 OA
BRANCH  16  19
ATOM     19  C   UNL     1      -1.028  11.854  22.082  0.00  0.00    +0.000 A 
ATOM     20  C   UNL     1      -1.376  12.874  21.191  0.00  0.00    +0.000 A 
ATOM     21  C   UNL     1      -2.554  13.583  21.404  0.00  0.00    +0.000 A 
ATOM     22  F   UNL     1      -2.894  14.557  20.549  0.00  0.00    +0.000 F 
ATOM     23  C   UNL     1      -3.380  13.281  22.480  0.00  0.00    +0.000 A 
ATOM     24  F   UNL     1      -4.521  13.962  22.665  0.00  0.00    +0.000 F 
ATOM     25  C   UNL     1      -3.021  12.268  23.357  0.00  0.00    +0.000 A 
ATOM     26  F   UNL     1      -3.813  11.964  24.391  0.00  0.00    +0.000 F 
ATOM     27  C   UNL     1      -1.845  11.543  23.174  0.00  0.00    +0.000 A 
ENDBRANCH  16  19
ENDBRANCH  11  16
BRANCH   1  29
ATOM     28  C   UNL     1       5.561   5.709  15.749  0.00  0.00    +0.000 C 
ATOM     29  C   UNL     1       4.494   5.904  16.813  0.00  0.00    +0.000 C 
ENDBRANCH   1  29
TORSDOF 3
ENDMDL
MODEL 8
REMARK VINA RESULT:      -8.6      4.069      7.167
REMARK  Name = 
REMARK  5 active torsions:
REMARK  status: ('A' for Active; 'I' for Inactive)
REMARK    1  A    between atoms: C_1  and  C_2
REMARK    2  A    between atoms: C_2  and  N_3
REMARK    3  A    between atoms: C_6  and  C_7
REMARK    4  A    between atoms: N_13  and  S_14
REMARK    5  A    between atoms: S_14  and  C_17
REMARK                            x       y       z     vdW  Elec       q    Type
REMARK                         _______ _______ _______ _____ _____    ______ ____
ROOT
ATOM      1  N   UNL     1       0.059  10.870  21.645  0.00  0.00    +0.000 N 
ATOM      2  C   UNL     1       0.785  10.501  20.495  0.00  0.00    +0.000 A 
ATOM      3  C   UNL     1       1.236  11.491  19.655  0.00  0.00    +0.000 A 
ATOM      4  C   UNL     1       1.954  11.081  18.553  0.00  0.00    +0.000 A 
ATOM      5  C   UNL     1       2.427  12.070  17.531  0.00  0.00    +0.000 C 
ATOM      6  N   UNL     1       2.255   9.785  18.330  0.00  0.00    +0.000 NA
ATOM      7  C   UNL     1       1.823   8.881  19.221  0.00  0.00    +0.000 A 
ATOM      8  N   UNL     1       2.070   7.536  19.024  0.00  0.00    +0.000 N 
ATOM      9  C   UNL     1       2.162   6.718  20.236  0.00  0.00    +0.000 C 
ATOM     10  C   UNL     1       1.925   5.234  19.881  0.00  0.00    +0.000 C 
ATOM     11  N   UNL     1       2.803   4.750  18.760  0.00  0.00    +0.000 NA
ATOM     12  C   UNL     1       2.686   5.675  17.575  0.00  0.00    +0.000 C 
ATOM     13  C   UNL     1       2.975   7.145  17.941  0.00  0.00    +0.000 C 
ATOM     14  N   UNL     1       1.084   9.216  20.288  0.00  0.00    +0.000 NA
ATOM     15  H   UNL     1       0.741  11.189  22.331  0.00  0.00    +0.000 HD
ENDROOT
BRANCH  11  16
ATOM     16  S   UNL     1       4.398   4.325  19.160  0.00  0.00    +0.000 S 
ATOM     17  O   UNL     1       4.895   5.264  20.139  0.00  0.00    +0.000 OA
ATOM     18  O   UNL     1       4.444   2.900  19.393  0.00  0.00    +0.000 OA
BRANCH  16  19
ATOM     19  C   UNL     1       5.291   4.655  17.660  0.00  0.00    +0.000 A 
ATOM     20  C   UNL     1       6.214   5.704  17.636  0.00  0.00    +0.000 A 
ATOM     21  C   UNL     1       6.966   5.916  16.484  0.00  0.00    +0.000 A 
ATOM     22  F   UNL     1       7.855   6.917  16.460  0.00  0.00    +0.000 F 
ATOM     23  C   UNL     1       6.810   5.096  15.374  0.00  0.00    +0.000 A 
ATOM     24  F   UNL     1       7.552   5.300  14.275  0.00  0.00    +0.000 F 
ATOM     25  C   UNL     1       5.889   4.059  15.411  0.00  0.00    +0.000 A 
ATOM     26  F   UNL     1       5.738   3.257  14.350  0.00  0.00    +0.000 F 
ATOM     27  C   UNL     1       5.118   3.824  16.547  0.00  0.00    +0.000 A 
ENDBRANCH  16  19
ENDBRANCH  11  16
BRANCH   1  29
ATOM     28  C   UNL     1      -0.276   9.372  23.535  0.00  0.00    +0.000 C 
ATOM     29  C   UNL     1      -0.784   9.796  22.168  0.00  0.00    +0.000 C 
ENDBRANCH   1  29
TORSDOF 3
ENDMDL
MODEL 9
REMARK VINA RESULT:      -8.5      5.892      7.517
REMARK  Name = 
REMARK  5 active torsions:
REMARK  status: ('A' for Active; 'I' for Inactive)
REMARK    1  A    between atoms: C_1  and  C_2
REMARK    2  A    between atoms: C_2  and  N_3
REMARK    3  A    between atoms: C_6  and  C_7
REMARK    4  A    between atoms: N_13  and  S_14
REMARK    5  A    between atoms: S_14  and  C_17
REMARK                            x       y       z     vdW  Elec       q    Type
REMARK                         _______ _______ _______ _____ _____    ______ ____
ROOT
ATOM      1  N   UNL     1       4.719   5.362  17.907  0.00  0.00    +0.000 N 
ATOM      2  C   UNL     1       3.704   5.384  18.885  0.00  0.00    +0.000 A 
ATOM      3  C   UNL     1       3.572   4.301  19.722  0.00  0.00    +0.000 A 
ATOM      4  C   UNL     1       2.578   4.375  20.671  0.00  0.00    +0.000 A 
ATOM      5  C   UNL     1       2.296   3.220  21.583  0.00  0.00    +0.000 C 
ATOM      6  N   UNL     1       1.804   5.471  20.820  0.00  0.00    +0.000 NA
ATOM      7  C   UNL     1       2.025   6.508  19.999  0.00  0.00    +0.000 A 
ATOM      8  N   UNL     1       1.238   7.641  20.082  0.00  0.00    +0.000 N 
ATOM      9  C   UNL     1       1.876   8.894  19.668  0.00  0.00    +0.000 C 
ATOM     10  C   UNL     1       0.792   9.938  19.323  0.00  0.00    +0.000 C 
ATOM     11  N   UNL     1      -0.224  10.114  20.417  0.00  0.00    +0.000 NA
ATOM     12  C   UNL     1      -0.791   8.774  20.816  0.00  0.00    +0.000 C 
ATOM     13  C   UNL     1       0.305   7.761  21.204  0.00  0.00    +0.000 C 
ATOM     14  N   UNL     1       2.949   6.476  19.029  0.00  0.00    +0.000 NA
ATOM     15  H   UNL     1       5.590   5.583  18.385  0.00  0.00    +0.000 HD
ENDROOT
BRANCH  11  16
ATOM     16  S   UNL     1       0.214  11.105  21.725  0.00  0.00    +0.000 S 
ATOM     17  O   UNL     1       0.485  10.265  22.869  0.00  0.00    +0.000 OA
ATOM     18  O   UNL     1       1.178  12.074  21.257  0.00  0.00    +0.000 OA
BRANCH  16  19
ATOM     19  C   UNL     1      -1.290  11.975  22.094  0.00  0.00    +0.000 A 
ATOM     20  C   UNL     1      -2.058  11.569  23.189  0.00  0.00    +0.000 A 
ATOM     21  C   UNL     1      -3.197  12.296  23.522  0.00  0.00    +0.000 A 
ATOM     22  F   UNL     1      -3.932  11.913  24.575  0.00  0.00    +0.000 F 
ATOM     23  C   UNL     1      -3.567  13.413  22.784  0.00  0.00    +0.000 A 
ATOM     24  F   UNL     1      -4.659  14.114  23.123  0.00  0.00    +0.000 F 
ATOM     25  C   UNL     1      -2.797  13.803  21.697  0.00  0.00    +0.000 A 
ATOM     26  F   UNL     1      -3.141  14.882  20.984  0.00  0.00    +0.000 F 
ATOM     27  C   UNL     1      -1.654  13.093  21.336  0.00  0.00    +0.000 A 
ENDBRANCH  16  19
ENDBRANCH  11  16
BRANCH   1  29
ATOM     28  C   UNL     1       5.342   5.880  15.610  0.00  0.00    +0.000 C 
ATOM     29  C   UNL     1       4.463   6.267  16.787  0.00  0.00    +0.000 C 
ENDBRANCH   1  29
TORSDOF 3
ENDMDL
