MODEL 1
REMARK VINA RESULT:      -8.1      0.000      0.000
REMARK  Name = 
REMARK  11 active torsions:
REMARK  status: ('A' for Active; 'I' for Inactive)
REMARK    1  A    between atoms: C_1  and  C_2
REMARK    2  A    between atoms: C_2  and  C_3
REMARK    3  A    between atoms: C_6  and  C_7
REMARK    4  A    between atoms: C_7  and  C_8
REMARK    5  A    between atoms: C_13  and  O_14
REMARK    6  A    between atoms: O_14  and  C_15
REMARK    7  A    between atoms: C_17  and  C_18
REMARK    8  A    between atoms: C_18  and  O_19
REMARK    9  A    between atoms: C_20  and  O_21
REMARK   10  A    between atoms: C_22  and  O_23
REMARK   11  A    between atoms: C_24  and  O_25
REMARK                            x       y       z     vdW  Elec       q    Type
REMARK                         _______ _______ _______ _____ _____    ______ ____
ROOT
ATOM      1  O   UNL     1       4.295   3.356  18.897  0.00  0.00    +0.000 OA
ENDROOT
BRANCH   1   7
ATOM      2  C   UNL     1       2.293   4.217  19.798  0.00  0.00    +0.000 A 
ATOM      3  C   UNL     1       0.910   4.109  20.026  0.00  0.00    +0.000 A 
ATOM      4  C   UNL     1       0.191   3.014  19.553  0.00  0.00    +0.000 A 
ATOM      5  C   UNL     1       0.845   2.017  18.838  0.00  0.00    +0.000 A 
ATOM      6  C   UNL     1       2.220   2.103  18.610  0.00  0.00    +0.000 A 
ATOM      7  C   UNL     1       2.955   3.187  19.102  0.00  0.00    +0.000 A 
BRANCH   2   8
ATOM      8  C   UNL     1       3.025   5.454  20.279  0.00  0.00    +0.000 C 
BRANCH   8  12
ATOM      9  C   UNL     1       1.257   9.152  18.852  0.00  0.00    +0.000 A 
ATOM     10  C   UNL     1       2.010   8.339  17.999  0.00  0.00    +0.000 A 
ATOM     11  C   UNL     1       2.615   7.174  18.470  0.00  0.00    +0.000 A 
ATOM     12  C   UNL     1       2.476   6.785  19.811  0.00  0.00    +0.000 A 
ATOM     13  C   UNL     1       1.738   7.608  20.671  0.00  0.00    +0.000 A 
ATOM     14  C   UNL     1       1.132   8.777  20.197  0.00  0.00    +0.000 A 
BRANCH   9  16
ATOM     15  C   UNL     1      -0.835  10.550  18.946  0.00  0.00    +0.000 C 
ATOM     16  C   UNL     1       0.551  10.382  18.338  0.00  0.00    +0.000 C 
ENDBRANCH   9  16
ENDBRANCH   8  12
ENDBRANCH   2   8
ENDBRANCH   1   7
BRANCH   1  17
ATOM     17  C   UNL     1       4.758   4.407  18.026  0.00  0.00    +0.000 C 
ATOM     18  C   UNL     1       4.607   3.958  16.561  0.00  0.00    +0.000 C 
ATOM     19  C   UNL     1       5.428   4.753  15.539  0.00  0.00    +0.000 C 
ATOM     20  C   UNL     1       6.881   4.933  15.997  0.00  0.00    +0.000 C 
ATOM     21  C   UNL     1       6.935   5.563  17.394  0.00  0.00    +0.000 C 
ATOM     22  C   UNL     1       6.232   4.659  18.413  0.00  0.00    +0.000 C 
BRANCH  20  23
ATOM     23  O   UNL     1       7.576   5.744  15.041  0.00  0.00    +0.000 OA
ATOM     24  H   UNL     1       7.130   5.646  14.178  0.00  0.00    +0.000 HD
ENDBRANCH  20  23
BRANCH  21  25
ATOM     25  O   UNL     1       8.299   5.807  17.756  0.00  0.00    +0.000 OA
ATOM     26  H   UNL     1       8.623   5.040  18.263  0.00  0.00    +0.000 HD
ENDBRANCH  21  25
BRANCH  22  27
ATOM     27  O   UNL     1       6.310   5.246  19.722  0.00  0.00    +0.000 OA
ATOM     28  H   UNL     1       5.543   4.949  20.245  0.00  0.00    +0.000 HD
ENDBRANCH  22  27
BRANCH  19  29
ATOM     29  C   UNL     1       5.351   4.056  14.167  0.00  0.00    +0.000 C 
BRANCH  29  30
ATOM     30  O   UNL     1       6.570   3.414  13.824  0.00  0.00    +0.000 OA
ATOM     31  H   UNL     1       6.532   2.506  14.197  0.00  0.00    +0.000 HD
ENDBRANCH  29  30
ENDBRANCH  19  29
ENDBRANCH   1  17
TORSDOF 10
ENDMDL
MODEL 2
REMARK VINA RESULT:      -7.9      0.843      1.333
REMARK  Name = 
REMARK  11 active torsions:
REMARK  status: ('A' for Active; 'I' for Inactive)
REMARK    1  A    between atoms: C_1  and  C_2
REMARK    2  A    between atoms: C_2  and  C_3
REMARK    3  A    between atoms: C_6  and  C_7
REMARK    4  A    between atoms: C_7  and  C_8
REMARK    5  A    between atoms: C_13  and  O_14
REMARK    6  A    between atoms: O_14  and  C_15
REMARK    7  A    between atoms: C_17  and  C_18
REMARK    8  A    between atoms: C_18  and  O_19
REMARK    9  A    between atoms: C_20  and  O_21
REMARK   10  A    between atoms: C_22  and  O_23
REMARK   11  A    between atoms: C_24  and  O_25
REMARK                            x       y       z     vdW  Elec       q    Type
REMARK                         _______ _______ _______ _____ _____    ______ ____
ROOT
ATOM      1  O   UNL     1       4.559   3.687  18.396  0.00  0.00    +0.000 OA
ENDROOT
BRANCH   1   7
ATOM      2  C   UNL     1       2.542   4.276  19.468  0.00  0.00    +0.000 A 
ATOM      3  C   UNL     1       1.200   4.000  19.782  0.00  0.00    +0.000 A 
ATOM      4  C   UNL     1       0.577   2.848  19.307  0.00  0.00    +0.000 A 
ATOM      5  C   UNL     1       1.286   1.962  18.504  0.00  0.00    +0.000 A 
ATOM      6  C   UNL     1       2.622   2.215  18.190  0.00  0.00    +0.000 A 
ATOM      7  C   UNL     1       3.264   3.356  18.682  0.00  0.00    +0.000 A 
BRANCH   2   8
ATOM      8  C   UNL     1       3.163   5.569  19.957  0.00  0.00    +0.000 C 
BRANCH   8  12
ATOM      9  C   UNL     1       1.290   9.354  18.955  0.00  0.00    +0.000 A 
ATOM     10  C   UNL     1       1.178   8.814  20.241  0.00  0.00    +0.000 A 
ATOM     11  C   UNL     1       1.743   7.576  20.548  0.00  0.00    +0.000 A 
ATOM     12  C   UNL     1       2.444   6.846  19.577  0.00  0.00    +0.000 A 
ATOM     13  C   UNL     1       2.542   7.377  18.284  0.00  0.00    +0.000 A 
ATOM     14  C   UNL     1       1.974   8.619  17.977  0.00  0.00    +0.000 A 
BRANCH   9  16
ATOM     15  C   UNL     1       1.825  11.776  18.522  0.00  0.00    +0.000 C 
ATOM     16  C   UNL     1       0.735  10.718  18.629  0.00  0.00    +0.000 C 
ENDBRANCH   9  16
ENDBRANCH   8  12
ENDBRANCH   2   8
ENDBRANCH   1   7
BRANCH   1  17
ATOM     17  C   UNL     1       4.849   4.511  17.251  0.00  0.00    +0.000 C 
ATOM     18  C   UNL     1       5.012   3.617  16.008  0.00  0.00    +0.000 C 
ATOM     19  C   UNL     1       5.732   4.264  14.818  0.00  0.00    +0.000 C 
ATOM     20  C   UNL     1       7.018   4.977  15.255  0.00  0.00    +0.000 C 
ATOM     21  C   UNL     1       6.725   5.989  16.369  0.00  0.00    +0.000 C 
ATOM     22  C   UNL     1       6.147   5.275  17.597  0.00  0.00    +0.000 C 
BRANCH  20  23
ATOM     23  O   UNL     1       7.604   5.624  14.118  0.00  0.00    +0.000 OA
ATOM     24  H   UNL     1       7.838   6.537  14.375  0.00  0.00    +0.000 HD
ENDBRANCH  20  23
BRANCH  21  25
ATOM     25  O   UNL     1       7.922   6.706  16.691  0.00  0.00    +0.000 OA
ATOM     26  H   UNL     1       7.693   7.425  17.307  0.00  0.00    +0.000 HD
ENDBRANCH  21  25
BRANCH  22  27
ATOM     27  O   UNL     1       5.900   6.227  18.644  0.00  0.00    +0.000 OA
ATOM     28  H   UNL     1       5.225   6.860  18.340  0.00  0.00    +0.000 HD
ENDBRANCH  22  27
BRANCH  19  29
ATOM     29  C   UNL     1       6.016   3.193  13.748  0.00  0.00    +0.000 C 
BRANCH  29  30
ATOM     30  O   UNL     1       6.345   3.767  12.491  0.00  0.00    +0.000 OA
ATOM     31  H   UNL     1       5.787   3.321  11.816  0.00  0.00    +0.000 HD
ENDBRANCH  29  30
ENDBRANCH  19  29
ENDBRANCH   1  17
TORSDOF 10
ENDMDL
MODEL 3
REMARK VINA RESULT:      -7.6      3.296      6.958
REMARK  Name = 
REMARK  11 active torsions:
REMARK  status: ('A' for Active; 'I' for Inactive)
REMARK    1  A    between atoms: C_1  and  C_2
REMARK    2  A    between atoms: C_2  and  C_3
REMARK    3  A    between atoms: C_6  and  C_7
REMARK    4  A    between atoms: C_7  and  C_8
REMARK    5  A    between atoms: C_13  and  O_14
REMARK    6  A    between atoms: O_14  and  C_15
REMARK    7  A    between atoms: C_17  and  C_18
REMARK    8  A    between atoms: C_18  and  O_19
REMARK    9  A    between atoms: C_20  and  O_21
REMARK   10  A    between atoms: C_22  and  O_23
REMARK   11  A    between atoms: C_24  and  O_25
REMARK                            x       y       z     vdW  Elec       q    Type
REMARK                         _______ _______ _______ _____ _____    ______ ____
ROOT
ATOM      1  O   UNL     1       2.034   6.368  18.760  0.00  0.00    +0.000 OA
ENDROOT
BRANCH   1   7
ATOM      2  C   UNL     1       3.447   4.734  19.707  0.00  0.00    +0.000 A 
ATOM      3  C   UNL     1       3.625   3.567  20.470  0.00  0.00    +0.000 A 
ATOM      4  C   UNL     1       2.534   2.909  21.034  0.00  0.00    +0.000 A 
ATOM      5  C   UNL     1       1.253   3.415  20.850  0.00  0.00    +0.000 A 
ATOM      6  C   UNL     1       1.057   4.567  20.087  0.00  0.00    +0.000 A 
ATOM      7  C   UNL     1       2.142   5.222  19.496  0.00  0.00    +0.000 A 
BRANCH   2   8
ATOM      8  C   UNL     1       4.665   5.451  19.160  0.00  0.00    +0.000 C 
BRANCH   8  12
ATOM      9  C   UNL     1       5.818   4.843  15.021  0.00  0.00    +0.000 A 
ATOM     10  C   UNL     1       5.404   6.100  15.475  0.00  0.00    +0.000 A 
ATOM     11  C   UNL     1       4.992   6.283  16.795  0.00  0.00    +0.000 A 
ATOM     12  C   UNL     1       4.989   5.212  17.701  0.00  0.00    +0.000 A 
ATOM     13  C   UNL     1       5.386   3.949  17.243  0.00  0.00    +0.000 A 
ATOM     14  C   UNL     1       5.799   3.767  15.919  0.00  0.00    +0.000 A 
BRANCH   9  16
ATOM     15  C   UNL     1       5.690   3.441  12.933  0.00  0.00    +0.000 C 
ATOM     16  C   UNL     1       6.322   4.648  13.613  0.00  0.00    +0.000 C 
ENDBRANCH   9  16
ENDBRANCH   8  12
ENDBRANCH   2   8
ENDBRANCH   1   7
BRANCH   1  17
ATOM     17  C   UNL     1       2.169   7.648  19.408  0.00  0.00    +0.000 C 
ATOM     18  C   UNL     1       1.363   7.644  20.719  0.00  0.00    +0.000 C 
ATOM     19  C   UNL     1       1.048   9.025  21.305  0.00  0.00    +0.000 C 
ATOM     20  C   UNL     1       0.509   9.984  20.236  0.00  0.00    +0.000 C 
ATOM     21  C   UNL     1       1.475  10.070  19.049  0.00  0.00    +0.000 C 
ATOM     22  C   UNL     1       1.642   8.692  18.398  0.00  0.00    +0.000 C 
BRANCH  20  23
ATOM     23  O   UNL     1       0.305  11.275  20.825  0.00  0.00    +0.000 OA
ATOM     24  H   UNL     1      -0.231  11.158  21.634  0.00  0.00    +0.000 HD
ENDBRANCH  20  23
BRANCH  21  25
ATOM     25  O   UNL     1       0.996  11.041  18.112  0.00  0.00    +0.000 OA
ATOM     26  H   UNL     1       0.030  11.116  18.214  0.00  0.00    +0.000 HD
ENDBRANCH  21  25
BRANCH  22  27
ATOM     27  O   UNL     1       2.528   8.787  17.272  0.00  0.00    +0.000 OA
ATOM     28  H   UNL     1       2.104   9.330  16.584  0.00  0.00    +0.000 HD
ENDBRANCH  22  27
BRANCH  19  29
ATOM     29  C   UNL     1       0.058   8.871  22.475  0.00  0.00    +0.000 C 
BRANCH  29  30
ATOM     30  O   UNL     1       0.299   9.815  23.509  0.00  0.00    +0.000 OA
ATOM     31  H   UNL     1      -0.544   9.923  24.002  0.00  0.00    +0.000 HD
ENDBRANCH  29  30
ENDBRANCH  19  29
ENDBRANCH   1  17
TORSDOF 10
ENDMDL
MODEL 4
REMARK VINA RESULT:      -7.5      3.087      6.307
REMARK  Name = 
REMARK  11 active torsions:
REMARK  status: ('A' for Active; 'I' for Inactive)
REMARK    1  A    between atoms: C_1  and  C_2
REMARK    2  A    between atoms: C_2  and  C_3
REMARK    3  A    between atoms: C_6  and  C_7
REMARK    4  A    between atoms: C_7  and  C_8
REMARK    5  A    between atoms: C_13  and  O_14
REMARK    6  A    between atoms: O_14  and  C_15
REMARK    7  A    between atoms: C_17  and  C_18
REMARK    8  A    between atoms: C_18  and  O_19
REMARK    9  A    between atoms: C_20  and  O_21
REMARK   10  A    between atoms: C_22  and  O_23
REMARK   11  A    between atoms: C_24  and  O_25
REMARK                            x       y       z     vdW  Elec       q    Type
REMARK                         _______ _______ _______ _____ _____    ______ ____
ROOT
ATOM      1  O   UNL     1       2.040   5.816  18.424  0.00  0.00    +0.000 OA
ENDROOT
BRANCH   1   7
ATOM      2  C   UNL     1       2.904   3.655  18.805  0.00  0.00    +0.000 A 
ATOM      3  C   UNL     1       2.955   2.478  19.572  0.00  0.00    +0.000 A 
ATOM      4  C   UNL     1       2.180   2.339  20.721  0.00  0.00    +0.000 A 
ATOM      5  C   UNL     1       1.349   3.379  21.122  0.00  0.00    +0.000 A 
ATOM      6  C   UNL     1       1.278   4.551  20.367  0.00  0.00    +0.000 A 
ATOM      7  C   UNL     1       2.034   4.691  19.200  0.00  0.00    +0.000 A 
BRANCH   2   8
ATOM      8  C   UNL     1       3.808   3.788  17.596  0.00  0.00    +0.000 C 
BRANCH   8  12
ATOM      9  C   UNL     1       7.157   6.493  18.144  0.00  0.00    +0.000 A 
ATOM     10  C   UNL     1       6.415   6.498  16.958  0.00  0.00    +0.000 A 
ATOM     11  C   UNL     1       5.368   5.598  16.766  0.00  0.00    +0.000 A 
ATOM     12  C   UNL     1       5.027   4.669  17.762  0.00  0.00    +0.000 A 
ATOM     13  C   UNL     1       5.781   4.651  18.942  0.00  0.00    +0.000 A 
ATOM     14  C   UNL     1       6.832   5.554  19.133  0.00  0.00    +0.000 A 
BRANCH   9  16
ATOM     15  C   UNL     1       7.951   8.848  17.743  0.00  0.00    +0.000 C 
ATOM     16  C   UNL     1       8.253   7.501  18.385  0.00  0.00    +0.000 C 
ENDBRANCH   9  16
ENDBRANCH   8  12
ENDBRANCH   2   8
ENDBRANCH   1   7
BRANCH   1  17
ATOM     17  C   UNL     1       2.361   7.090  19.016  0.00  0.00    +0.000 C 
ATOM     18  C   UNL     1       1.510   7.293  20.283  0.00  0.00    +0.000 C 
ATOM     19  C   UNL     1       1.407   8.738  20.786  0.00  0.00    +0.000 C 
ATOM     20  C   UNL     1       1.084   9.712  19.646  0.00  0.00    +0.000 C 
ATOM     21  C   UNL     1       2.101   9.570  18.507  0.00  0.00    +0.000 C 
ATOM     22  C   UNL     1       2.061   8.149  17.932  0.00  0.00    +0.000 C 
BRANCH  20  23
ATOM     23  O   UNL     1       1.075  11.049  20.161  0.00  0.00    +0.000 OA
ATOM     24  H   UNL     1       0.157  11.272  20.410  0.00  0.00    +0.000 HD
ENDBRANCH  20  23
BRANCH  21  25
ATOM     25  O   UNL     1       1.833  10.554  17.502  0.00  0.00    +0.000 OA
ATOM     26  H   UNL     1       2.255  11.390  17.771  0.00  0.00    +0.000 HD
ENDBRANCH  21  25
BRANCH  22  27
ATOM     27  O   UNL     1       2.998   8.033  16.850  0.00  0.00    +0.000 OA
ATOM     28  H   UNL     1       3.216   8.926  16.527  0.00  0.00    +0.000 HD
ENDBRANCH  22  27
BRANCH  19  29
ATOM     29  C   UNL     1       0.356   8.815  21.909  0.00  0.00    +0.000 C 
BRANCH  29  30
ATOM     30  O   UNL     1       0.670   9.814  22.869  0.00  0.00    +0.000 OA
ATOM     31  H   UNL     1       0.074  10.575  22.698  0.00  0.00    +0.000 HD
ENDBRANCH  29  30
ENDBRANCH  19  29
ENDBRANCH   1  17
TORSDOF 10
ENDMDL
MODEL 5
REMARK VINA RESULT:      -7.5      2.225      7.490
REMARK  Name = 
REMARK  11 active torsions:
REMARK  status: ('A' for Active; 'I' for Inactive)
REMARK    1  A    between atoms: C_1  and  C_2
REMARK    2  A    between atoms: C_2  and  C_3
REMARK    3  A    between atoms: C_6  and  C_7
REMARK    4  A    between atoms: C_7  and  C_8
REMARK    5  A    between atoms: C_13  and  O_14
REMARK    6  A    between atoms: O_14  and  C_15
REMARK    7  A    between atoms: C_17  and  C_18
REMARK    8  A    between atoms: C_18  and  O_19
REMARK    9  A    between atoms: C_20  and  O_21
REMARK   10  A    between atoms: C_22  and  O_23
REMARK   11  A    between atoms: C_24  and  O_25
REMARK                            x       y       z     vdW  Elec       q    Type
REMARK                         _______ _______ _______ _____ _____    ______ ____
ROOT
ATOM      1  O   UNL     1       5.176   3.793  17.015  0.00  0.00    +0.000 OA
ENDROOT
BRANCH   1   7
ATOM      2  C   UNL     1       6.239   5.847  16.555  0.00  0.00    +0.000 A 
ATOM      3  C   UNL     1       7.136   6.867  16.918  0.00  0.00    +0.000 A 
ATOM      4  C   UNL     1       7.838   6.806  18.120  0.00  0.00    +0.000 A 
ATOM      5  C   UNL     1       7.644   5.730  18.978  0.00  0.00    +0.000 A 
ATOM      6  C   UNL     1       6.764   4.704  18.629  0.00  0.00    +0.000 A 
ATOM      7  C   UNL     1       6.073   4.743  17.414  0.00  0.00    +0.000 A 
BRANCH   2   8
ATOM      8  C   UNL     1       5.452   5.982  15.266  0.00  0.00    +0.000 C 
BRANCH   8  12
ATOM      9  C   UNL     1       6.804   3.305  12.129  0.00  0.00    +0.000 A 
ATOM     10  C   UNL     1       7.665   4.262  12.679  0.00  0.00    +0.000 A 
ATOM     11  C   UNL     1       7.215   5.151  13.655  0.00  0.00    +0.000 A 
ATOM     12  C   UNL     1       5.891   5.102  14.115  0.00  0.00    +0.000 A 
ATOM     13  C   UNL     1       5.023   4.156  13.553  0.00  0.00    +0.000 A 
ATOM     14  C   UNL     1       5.476   3.266  12.573  0.00  0.00    +0.000 A 
BRANCH   9  16
ATOM     15  C   UNL     1       6.468   1.025  11.117  0.00  0.00    +0.000 C 
ATOM     16  C   UNL     1       7.297   2.302  11.116  0.00  0.00    +0.000 C 
ENDBRANCH   9  16
ENDBRANCH   8  12
ENDBRANCH   2   8
ENDBRANCH   1   7
BRANCH   1  17
ATOM     17  C   UNL     1       3.806   3.876  17.453  0.00  0.00    +0.000 C 
ATOM     18  C   UNL     1       3.496   5.320  17.887  0.00  0.00    +0.000 C 
ATOM     19  C   UNL     1       2.250   5.494  18.764  0.00  0.00    +0.000 C 
ATOM     20  C   UNL     1       2.216   4.471  19.906  0.00  0.00    +0.000 C 
ATOM     21  C   UNL     1       2.340   3.044  19.360  0.00  0.00    +0.000 C 
ATOM     22  C   UNL     1       3.672   2.872  18.619  0.00  0.00    +0.000 C 
BRANCH  20  23
ATOM     23  O   UNL     1       0.998   4.633  20.644  0.00  0.00    +0.000 OA
ATOM     24  H   UNL     1       1.122   5.367  21.277  0.00  0.00    +0.000 HD
ENDBRANCH  20  23
BRANCH  21  25
ATOM     25  O   UNL     1       2.209   2.107  20.435  0.00  0.00    +0.000 OA
ATOM     26  H   UNL     1       1.279   2.100  20.725  0.00  0.00    +0.000 HD
ENDBRANCH  21  25
BRANCH  22  27
ATOM     27  O   UNL     1       3.790   1.525  18.133  0.00  0.00    +0.000 OA
ATOM     28  H   UNL     1       2.963   1.048  18.326  0.00  0.00    +0.000 HD
ENDBRANCH  22  27
BRANCH  19  29
ATOM     29  C   UNL     1       2.198   6.938  19.298  0.00  0.00    +0.000 C 
BRANCH  29  30
ATOM     30  O   UNL     1       2.318   6.990  20.712  0.00  0.00    +0.000 OA
ATOM     31  H   UNL     1       1.411   6.916  21.081  0.00  0.00    +0.000 HD
ENDBRANCH  29  30
ENDBRANCH  19  29
ENDBRANCH   1  17
TORSDOF 10
ENDMDL
MODEL 6
REMARK VINA RESULT:      -7.4      1.620      2.587
REMARK  Name = 
REMARK  11 active torsions:
REMARK  status: ('A' for Active; 'I' for Inactive)
REMARK    1  A    between atoms: C_1  and  C_2
REMARK    2  A    between atoms: C_2  and  C_3
REMARK    3  A    between atoms: C_6  and  C_7
REMARK    4  A    between atoms: C_7  and  C_8
REMARK    5  A    between atoms: C_13  and  O_14
REMARK    6  A    between atoms: O_14  and  C_15
REMARK    7  A    between atoms: C_17  and  C_18
REMARK    8  A    between atoms: C_18  and  O_19
REMARK    9  A    between atoms: C_20  and  O_21
REMARK   10  A    between atoms: C_22  and  O_23
REMARK   11  A    between atoms: C_24  and  O_25
REMARK                            x       y       z     vdW  Elec       q    Type
REMARK                         _______ _______ _______ _____ _____    ______ ____
ROOT
ATOM      1  O   UNL     1       5.369   4.284  16.804  0.00  0.00    +0.000 OA
ENDROOT
BRANCH   1   7
ATOM      2  C   UNL     1       3.225   4.905  17.569  0.00  0.00    +0.000 A 
ATOM      3  C   UNL     1       1.935   4.556  18.004  0.00  0.00    +0.000 A 
ATOM      4  C   UNL     1       1.545   3.221  18.084  0.00  0.00    +0.000 A 
ATOM      5  C   UNL     1       2.438   2.219  17.722  0.00  0.00    +0.000 A 
ATOM      6  C   UNL     1       3.726   2.547  17.297  0.00  0.00    +0.000 A 
ATOM      7  C   UNL     1       4.136   3.883  17.236  0.00  0.00    +0.000 A 
BRANCH   2   8
ATOM      8  C   UNL     1       3.589   6.371  17.440  0.00  0.00    +0.000 C 
BRANCH   8  12
ATOM      9  C   UNL     1       1.146   9.036  19.842  0.00  0.00    +0.000 A 
ATOM     10  C   UNL     1       1.420   9.324  18.500  0.00  0.00    +0.000 A 
ATOM     11  C   UNL     1       2.241   8.490  17.743  0.00  0.00    +0.000 A 
ATOM     12  C   UNL     1       2.808   7.336  18.306  0.00  0.00    +0.000 A 
ATOM     13  C   UNL     1       2.550   7.056  19.654  0.00  0.00    +0.000 A 
ATOM     14  C   UNL     1       1.726   7.894  20.413  0.00  0.00    +0.000 A 
BRANCH   9  16
ATOM     15  C   UNL     1      -0.276   9.199  21.913  0.00  0.00    +0.000 C 
ATOM     16  C   UNL     1       0.212   9.899  20.652  0.00  0.00    +0.000 C 
ENDBRANCH   9  16
ENDBRANCH   8  12
ENDBRANCH   2   8
ENDBRANCH   1   7
BRANCH   1  17
ATOM     17  C   UNL     1       5.521   4.820  15.476  0.00  0.00    +0.000 C 
ATOM     18  C   UNL     1       5.023   3.786  14.449  0.00  0.00    +0.000 C 
ATOM     19  C   UNL     1       5.498   4.004  13.007  0.00  0.00    +0.000 C 
ATOM     20  C   UNL     1       7.005   4.280  12.944  0.00  0.00    +0.000 C 
ATOM     21  C   UNL     1       7.380   5.453  13.857  0.00  0.00    +0.000 C 
ATOM     22  C   UNL     1       7.026   5.128  15.313  0.00  0.00    +0.000 C 
BRANCH  20  23
ATOM     23  O   UNL     1       7.375   4.549  11.586  0.00  0.00    +0.000 OA
ATOM     24  H   UNL     1       7.697   5.470  11.536  0.00  0.00    +0.000 HD
ENDBRANCH  20  23
BRANCH  21  25
ATOM     25  O   UNL     1       8.773   5.750  13.706  0.00  0.00    +0.000 OA
ATOM     26  H   UNL     1       9.052   5.469  12.816  0.00  0.00    +0.000 HD
ENDBRANCH  21  25
BRANCH  22  27
ATOM     27  O   UNL     1       7.404   6.223  16.164  0.00  0.00    +0.000 OA
ATOM     28  H   UNL     1       6.809   6.241  16.935  0.00  0.00    +0.000 HD
ENDBRANCH  22  27
BRANCH  19  29
ATOM     29  C   UNL     1       5.111   2.784  12.151  0.00  0.00    +0.000 C 
BRANCH  29  30
ATOM     30  O   UNL     1       6.239   1.992  11.806  0.00  0.00    +0.000 OA
ATOM     31  H   UNL     1       6.936   2.607  11.489  0.00  0.00    +0.000 HD
ENDBRANCH  29  30
ENDBRANCH  19  29
ENDBRANCH   1  17
TORSDOF 10
ENDMDL
MODEL 7
REMARK VINA RESULT:      -7.3      1.131      1.262
REMARK  Name = 
REMARK  11 active torsions:
REMARK  status: ('A' for Active; 'I' for Inactive)
REMARK    1  A    between atoms: C_1  and  C_2
REMARK    2  A    between atoms: C_2  and  C_3
REMARK    3  A    between atoms: C_6  and  C_7
REMARK    4  A    between atoms: C_7  and  C_8
REMARK    5  A    between atoms: C_13  and  O_14
REMARK    6  A    between atoms: O_14  and  C_15
REMARK    7  A    between atoms: C_17  and  C_18
REMARK    8  A    between atoms: C_18  and  O_19
REMARK    9  A    between atoms: C_20  and  O_21
REMARK   10  A    between atoms: C_22  and  O_23
REMARK   11  A    between atoms: C_24  and  O_25
REMARK                            x       y       z     vdW  Elec       q    Type
REMARK                         _______ _______ _______ _____ _____    ______ ____
ROOT
ATOM      1  O   UNL     1       4.366   5.372  19.595  0.00  0.00    +0.000 OA
ENDROOT
BRANCH   1   7
ATOM      2  C   UNL     1       2.108   4.750  19.880  0.00  0.00    +0.000 A 
ATOM      3  C   UNL     1       1.012   3.940  19.537  0.00  0.00    +0.000 A 
ATOM      4  C   UNL     1       1.127   2.961  18.553  0.00  0.00    +0.000 A 
ATOM      5  C   UNL     1       2.339   2.785  17.894  0.00  0.00    +0.000 A 
ATOM      6  C   UNL     1       3.440   3.574  18.229  0.00  0.00    +0.000 A 
ATOM      7  C   UNL     1       3.342   4.544  19.231  0.00  0.00    +0.000 A 
BRANCH   2   8
ATOM      8  C   UNL     1       1.923   5.843  20.914  0.00  0.00    +0.000 C 
BRANCH   8  12
ATOM      9  C   UNL     1       0.987   9.748  19.267  0.00  0.00    +0.000 A 
ATOM     10  C   UNL     1       1.742   8.822  18.538  0.00  0.00    +0.000 A 
ATOM     11  C   UNL     1       2.079   7.585  19.087  0.00  0.00    +0.000 A 
ATOM     12  C   UNL     1       1.663   7.236  20.381  0.00  0.00    +0.000 A 
ATOM     13  C   UNL     1       0.922   8.169  21.118  0.00  0.00    +0.000 A 
ATOM     14  C   UNL     1       0.585   9.410  20.566  0.00  0.00    +0.000 A 
BRANCH   9  16
ATOM     15  C   UNL     1      -0.667  11.645  19.338  0.00  0.00    +0.000 C 
ATOM     16  C   UNL     1       0.566  11.063  18.660  0.00  0.00    +0.000 C 
ENDBRANCH   9  16
ENDBRANCH   8  12
ENDBRANCH   2   8
ENDBRANCH   1   7
BRANCH   1  17
ATOM     17  C   UNL     1       5.355   5.756  18.620  0.00  0.00    +0.000 C 
ATOM     18  C   UNL     1       4.751   5.639  17.209  0.00  0.00    +0.000 C 
ATOM     19  C   UNL     1       5.764   5.592  16.059  0.00  0.00    +0.000 C 
ATOM     20  C   UNL     1       6.898   4.599  16.344  0.00  0.00    +0.000 C 
ATOM     21  C   UNL     1       7.567   4.913  17.687  0.00  0.00    +0.000 C 
ATOM     22  C   UNL     1       6.549   4.798  18.828  0.00  0.00    +0.000 C 
BRANCH  20  23
ATOM     23  O   UNL     1       7.849   4.654  15.273  0.00  0.00    +0.000 OA
ATOM     24  H   UNL     1       7.367   4.529  14.432  0.00  0.00    +0.000 HD
ENDBRANCH  20  23
BRANCH  21  25
ATOM     25  O   UNL     1       8.680   4.033  17.884  0.00  0.00    +0.000 OA
ATOM     26  H   UNL     1       8.591   3.616  18.760  0.00  0.00    +0.000 HD
ENDBRANCH  21  25
BRANCH  22  27
ATOM     27  O   UNL     1       7.191   5.069  20.085  0.00  0.00    +0.000 OA
ATOM     28  H   UNL     1       8.105   5.357  19.915  0.00  0.00    +0.000 HD
ENDBRANCH  22  27
BRANCH  19  29
ATOM     29  C   UNL     1       5.033   5.252  14.746  0.00  0.00    +0.000 C 
BRANCH  29  30
ATOM     30  O   UNL     1       5.452   4.006  14.207  0.00  0.00    +0.000 OA
ATOM     31  H   UNL     1       6.089   3.616  14.845  0.00  0.00    +0.000 HD
ENDBRANCH  29  30
ENDBRANCH  19  29
ENDBRANCH   1  17
TORSDOF 10
ENDMDL
MODEL 8
REMARK VINA RESULT:      -7.3      3.291      7.065
REMARK  Name = 
REMARK  11 active torsions:
REMARK  status: ('A' for Active; 'I' for Inactive)
REMARK    1  A    between atoms: C_1  and  C_2
REMARK    2  A    between atoms: C_2  and  C_3
REMARK    3  A    between atoms: C_6  and  C_7
REMARK    4  A    between atoms: C_7  and  C_8
REMARK    5  A    between atoms: C_13  and  O_14
REMARK    6  A    between atoms: O_14  and  C_15
REMARK    7  A    between atoms: C_17  and  C_18
REMARK    8  A    between atoms: C_18  and  O_19
REMARK    9  A    between atoms: C_20  and  O_21
REMARK   10  A    between atoms: C_22  and  O_23
REMARK   11  A    between atoms: C_24  and  O_25
REMARK                            x       y       z     vdW  Elec       q    Type
REMARK                         _______ _______ _______ _____ _____    ______ ____
ROOT
ATOM      1  O   UNL     1       1.903   6.398  18.651  0.00  0.00    +0.000 OA
ENDROOT
BRANCH   1   7
ATOM      2  C   UNL     1       3.629   4.885  19.195  0.00  0.00    +0.000 A 
ATOM      3  C   UNL     1       4.063   3.697  19.810  0.00  0.00    +0.000 A 
ATOM      4  C   UNL     1       3.167   2.874  20.488  0.00  0.00    +0.000 A 
ATOM      5  C   UNL     1       1.826   3.233  20.568  0.00  0.00    +0.000 A 
ATOM      6  C   UNL     1       1.376   4.404  19.956  0.00  0.00    +0.000 A 
ATOM      7  C   UNL     1       2.263   5.224  19.252  0.00  0.00    +0.000 A 
BRANCH   2   8
ATOM      8  C   UNL     1       4.647   5.781  18.519  0.00  0.00    +0.000 C 
BRANCH   8  12
ATOM      9  C   UNL     1       5.883   4.380  14.601  0.00  0.00    +0.000 A 
ATOM     10  C   UNL     1       5.856   3.514  15.700  0.00  0.00    +0.000 A 
ATOM     11  C   UNL     1       5.502   3.976  16.966  0.00  0.00    +0.000 A 
ATOM     12  C   UNL     1       5.156   5.321  17.169  0.00  0.00    +0.000 A 
ATOM     13  C   UNL     1       5.199   6.193  16.074  0.00  0.00    +0.000 A 
ATOM     14  C   UNL     1       5.556   5.728  14.804  0.00  0.00    +0.000 A 
BRANCH   9  16
ATOM     15  C   UNL     1       4.963   3.446  12.452  0.00  0.00    +0.000 C 
ATOM     16  C   UNL     1       6.206   3.877  13.217  0.00  0.00    +0.000 C 
ENDBRANCH   9  16
ENDBRANCH   8  12
ENDBRANCH   2   8
ENDBRANCH   1   7
BRANCH   1  17
ATOM     17  C   UNL     1       2.130   7.647  19.331  0.00  0.00    +0.000 C 
ATOM     18  C   UNL     1       1.338   7.659  20.652  0.00  0.00    +0.000 C 
ATOM     19  C   UNL     1       1.121   9.041  21.280  0.00  0.00    +0.000 C 
ATOM     20  C   UNL     1       0.634  10.062  20.245  0.00  0.00    +0.000 C 
ATOM     21  C   UNL     1       1.591  10.119  19.048  0.00  0.00    +0.000 C 
ATOM     22  C   UNL     1       1.660   8.751  18.358  0.00  0.00    +0.000 C 
BRANCH  20  23
ATOM     23  O   UNL     1       0.521  11.347  20.871  0.00  0.00    +0.000 OA
ATOM     24  H   UNL     1      -0.219  11.826  20.450  0.00  0.00    +0.000 HD
ENDBRANCH  20  23
BRANCH  21  25
ATOM     25  O   UNL     1       1.166  11.145  18.144  0.00  0.00    +0.000 OA
ATOM     26  H   UNL     1       1.078  11.977  18.644  0.00  0.00    +0.000 HD
ENDBRANCH  21  25
BRANCH  22  27
ATOM     27  O   UNL     1       2.539   8.820  17.224  0.00  0.00    +0.000 OA
ATOM     28  H   UNL     1       3.449   8.636  17.520  0.00  0.00    +0.000 HD
ENDBRANCH  22  27
BRANCH  19  29
ATOM     29  C   UNL     1       0.135   8.918  22.458  0.00  0.00    +0.000 C 
BRANCH  29  30
ATOM     30  O   UNL     1       0.378   9.893  23.462  0.00  0.00    +0.000 OA
ATOM     31  H   UNL     1       0.446   9.414  24.317  0.00  0.00    +0.000 HD
ENDBRANCH  29  30
ENDBRANCH  19  29
ENDBRANCH   1  17
TORSDOF 10
ENDMDL
MODEL 9
REMARK VINA RESULT:      -7.3      2.236      7.447
REMARK  Name = 
REMARK  11 active torsions:
REMARK  status: ('A' for Active; 'I' for Inactive)
REMARK    1  A    between atoms: C_1  and  C_2
REMARK    2  A    between atoms: C_2  and  C_3
REMARK    3  A    between atoms: C_6  and  C_7
REMARK    4  A    between atoms: C_7  and  C_8
REMARK    5  A    between atoms: C_13  and  O_14
REMARK    6  A    between atoms: O_14  and  C_15
REMARK    7  A    between atoms: C_17  and  C_18
REMARK    8  A    between atoms: C_18  and  O_19
REMARK    9  A    between atoms: C_20  and  O_21
REMARK   10  A    between atoms: C_22  and  O_23
REMARK   11  A    between atoms: C_24  and  O_25
REMARK                            x       y       z     vdW  Elec       q    Type
REMARK                         _______ _______ _______ _____ _____    ______ ____
ROOT
ATOM      1  O   UNL     1       5.293   3.927  17.208  0.00  0.00    +0.000 OA
ENDROOT
BRANCH   1   7
ATOM      2  C   UNL     1       6.374   5.954  16.673  0.00  0.00    +0.000 A 
ATOM      3  C   UNL     1       7.261   6.991  17.010  0.00  0.00    +0.000 A 
ATOM      4  C   UNL     1       7.924   6.996  18.236  0.00  0.00    +0.000 A 
ATOM      5  C   UNL     1       7.701   5.966  19.143  0.00  0.00    +0.000 A 
ATOM      6  C   UNL     1       6.831   4.923  18.821  0.00  0.00    +0.000 A 
ATOM      7  C   UNL     1       6.179   4.898  17.585  0.00  0.00    +0.000 A 
BRANCH   2   8
ATOM      8  C   UNL     1       5.629   6.020  15.355  0.00  0.00    +0.000 C 
BRANCH   8  12
ATOM      9  C   UNL     1       6.738   3.319  12.144  0.00  0.00    +0.000 A 
ATOM     10  C   UNL     1       5.477   3.242  12.746  0.00  0.00    +0.000 A 
ATOM     11  C   UNL     1       5.139   4.081  13.808  0.00  0.00    +0.000 A 
ATOM     12  C   UNL     1       6.053   5.028  14.293  0.00  0.00    +0.000 A 
ATOM     13  C   UNL     1       7.322   5.095  13.703  0.00  0.00    +0.000 A 
ATOM     14  C   UNL     1       7.660   4.252  12.639  0.00  0.00    +0.000 A 
BRANCH   9  16
ATOM     15  C   UNL     1       6.514   1.053  11.070  0.00  0.00    +0.000 C 
ATOM     16  C   UNL     1       7.092   2.457  10.958  0.00  0.00    +0.000 C 
ENDBRANCH   9  16
ENDBRANCH   8  12
ENDBRANCH   2   8
ENDBRANCH   1   7
BRANCH   1  17
ATOM     17  C   UNL     1       3.922   4.004  17.644  0.00  0.00    +0.000 C 
ATOM     18  C   UNL     1       3.586   5.460  18.014  0.00  0.00    +0.000 C 
ATOM     19  C   UNL     1       2.338   5.650  18.885  0.00  0.00    +0.000 C 
ATOM     20  C   UNL     1       2.323   4.678  20.072  0.00  0.00    +0.000 C 
ATOM     21  C   UNL     1       2.473   3.230  19.588  0.00  0.00    +0.000 C 
ATOM     22  C   UNL     1       3.807   3.051  18.854  0.00  0.00    +0.000 C 
BRANCH  20  23
ATOM     23  O   UNL     1       1.102   4.850  20.803  0.00  0.00    +0.000 OA
ATOM     24  H   UNL     1       1.221   4.453  21.688  0.00  0.00    +0.000 HD
ENDBRANCH  20  23
BRANCH  21  25
ATOM     25  O   UNL     1       2.360   2.340  20.703  0.00  0.00    +0.000 OA
ATOM     26  H   UNL     1       2.146   2.865  21.495  0.00  0.00    +0.000 HD
ENDBRANCH  21  25
BRANCH  22  27
ATOM     27  O   UNL     1       3.950   1.686  18.427  0.00  0.00    +0.000 OA
ATOM     28  H   UNL     1       4.050   1.120  19.213  0.00  0.00    +0.000 HD
ENDBRANCH  22  27
BRANCH  19  29
ATOM     29  C   UNL     1       2.259   7.115  19.355  0.00  0.00    +0.000 C 
BRANCH  29  30
ATOM     30  O   UNL     1       2.708   8.022  18.358  0.00  0.00    +0.000 OA
ATOM     31  H   UNL     1       2.820   7.506  17.530  0.00  0.00    +0.000 HD
ENDBRANCH  29  30
ENDBRANCH  19  29
ENDBRANCH   1  17
TORSDOF 10
ENDMDL
