MODEL 1
REMARK VINA RESULT:      -7.3      0.000      0.000
REMARK  Name = 
REMARK  4 active torsions:
REMARK  status: ('A' for Active; 'I' for Inactive)
REMARK    1  A    between atoms: O_1  and  C_2
REMARK    2  A    between atoms: C_5  and  C_6
REMARK    3  A    between atoms: N_7  and  C_8
REMARK    4  A    between atoms: C_11  and  C_12
REMARK                            x       y       z     vdW  Elec       q    Type
REMARK                         _______ _______ _______ _____ _____    ______ ____
ROOT
ATOM      1  C   UNL     1       7.184   7.316  17.561  0.00  0.00    +0.000 A 
ATOM      2  N   UNL     1       6.559   7.324  16.400  0.00  0.00    +0.000 NA
ATOM      3  N   UNL     1       5.468   6.481  16.367  0.00  0.00    +0.000 NA
ATOM      4  C   UNL     1       5.303   5.824  17.498  0.00  0.00    +0.000 A 
ATOM      5  S   UNL     1       6.480   6.212  18.688  0.00  0.00    +0.000 S 
ENDROOT
BRANCH   4   6
ATOM      6  C   UNL     1       4.201   4.887  17.763  0.00  0.00    +0.000 A 
ATOM      7  C   UNL     1       4.386   3.495  17.842  0.00  0.00    +0.000 A 
ATOM      8  C   UNL     1       3.304   2.639  18.077  0.00  0.00    +0.000 A 
ATOM      9  C   UNL     1       2.024   3.164  18.235  0.00  0.00    +0.000 A 
ATOM     10 CL   UNL     1       0.695   2.109  18.516  0.00  0.00    +0.000 Cl
ATOM     11  C   UNL     1       1.816   4.538  18.162  0.00  0.00    +0.000 A 
ATOM     12  C   UNL     1       2.898   5.392  17.923  0.00  0.00    +0.000 A 
ENDBRANCH   4   6
BRANCH   1  14
ATOM     13  C   UNL     1       8.066   9.333  18.014  0.00  0.00    +0.000 C 
ATOM     14  N   UNL     1       8.250   8.053  17.973  0.00  0.00    +0.000 NA
BRANCH  13  18
ATOM     15  C   UNL     1      11.136  11.920  19.429  0.00  0.00    +0.000 A 
ATOM     16  C   UNL     1      10.978  11.741  18.057  0.00  0.00    +0.000 A 
ATOM     17  C   UNL     1       9.967  10.901  17.589  0.00  0.00    +0.000 A 
ATOM     18  C   UNL     1       9.126  10.243  18.496  0.00  0.00    +0.000 A 
ATOM     19  C   UNL     1       9.294  10.427  19.872  0.00  0.00    +0.000 A 
ATOM     20  C   UNL     1      10.306  11.270  20.337  0.00  0.00    +0.000 A 
BRANCH  15  21
ATOM     21  O   UNL     1      12.108  12.735  19.928  0.00  0.00    +0.000 OA
ATOM     22  H   UNL     1      12.949  12.523  19.490  0.00  0.00    +0.000 HD
ENDBRANCH  15  21
ENDBRANCH  13  18
ENDBRANCH   1  14
TORSDOF 4
ENDMDL
MODEL 2
REMARK VINA RESULT:      -7.3      0.127      1.066
REMARK  Name = 
REMARK  4 active torsions:
REMARK  status: ('A' for Active; 'I' for Inactive)
REMARK    1  A    between atoms: O_1  and  C_2
REMARK    2  A    between atoms: C_5  and  C_6
REMARK    3  A    between atoms: N_7  and  C_8
REMARK    4  A    between atoms: C_11  and  C_12
REMARK                            x       y       z     vdW  Elec       q    Type
REMARK                         _______ _______ _______ _____ _____    ______ ____
ROOT
ATOM      1  C   UNL     1       7.288   7.307  17.530  0.00  0.00    +0.000 A 
ATOM      2  N   UNL     1       6.674   7.306  16.363  0.00  0.00    +0.000 NA
ATOM      3  N   UNL     1       5.584   6.461  16.326  0.00  0.00    +0.000 NA
ATOM      4  C   UNL     1       5.409   5.812  17.460  0.00  0.00    +0.000 A 
ATOM      5  S   UNL     1       6.573   6.211  18.658  0.00  0.00    +0.000 S 
ENDROOT
BRANCH   4   6
ATOM      6  C   UNL     1       4.305   4.876  17.721  0.00  0.00    +0.000 A 
ATOM      7  C   UNL     1       4.470   3.480  17.700  0.00  0.00    +0.000 A 
ATOM      8  C   UNL     1       3.387   2.626  17.935  0.00  0.00    +0.000 A 
ATOM      9  C   UNL     1       2.126   3.157  18.195  0.00  0.00    +0.000 A 
ATOM     10 CL   UNL     1       0.794   2.105  18.476  0.00  0.00    +0.000 Cl
ATOM     11  C   UNL     1       1.939   4.536  18.221  0.00  0.00    +0.000 A 
ATOM     12  C   UNL     1       3.022   5.388  17.982  0.00  0.00    +0.000 A 
ENDBRANCH   4   6
BRANCH   1  14
ATOM     13  C   UNL     1       8.117   9.309  18.128  0.00  0.00    +0.000 C 
ATOM     14  N   UNL     1       8.348   8.049  17.947  0.00  0.00    +0.000 NA
BRANCH  13  18
ATOM     15  C   UNL     1      11.132  11.954  19.553  0.00  0.00    +0.000 A 
ATOM     16  C   UNL     1      10.319  11.295  20.471  0.00  0.00    +0.000 A 
ATOM     17  C   UNL     1       9.335  10.420  20.008  0.00  0.00    +0.000 A 
ATOM     18  C   UNL     1       9.170  10.215  18.632  0.00  0.00    +0.000 A 
ATOM     19  C   UNL     1       9.990  10.885  17.718  0.00  0.00    +0.000 A 
ATOM     20  C   UNL     1      10.974  11.758  18.184  0.00  0.00    +0.000 A 
BRANCH  15  21
ATOM     21  O   UNL     1      12.108  12.814  19.963  0.00  0.00    +0.000 OA
ATOM     22  H   UNL     1      11.859  13.179  20.828  0.00  0.00    +0.000 HD
ENDBRANCH  15  21
ENDBRANCH  13  18
ENDBRANCH   1  14
TORSDOF 4
ENDMDL
MODEL 3
REMARK VINA RESULT:      -7.2      1.002      1.510
REMARK  Name = 
REMARK  4 active torsions:
REMARK  status: ('A' for Active; 'I' for Inactive)
REMARK    1  A    between atoms: O_1  and  C_2
REMARK    2  A    between atoms: C_5  and  C_6
REMARK    3  A    between atoms: N_7  and  C_8
REMARK    4  A    between atoms: C_11  and  C_12
REMARK                            x       y       z     vdW  Elec       q    Type
REMARK                         _______ _______ _______ _____ _____    ______ ____
ROOT
ATOM      1  C   UNL     1       7.721   7.629  17.933  0.00  0.00    +0.000 A 
ATOM      2  N   UNL     1       6.980   7.722  16.846  0.00  0.00    +0.000 NA
ATOM      3  N   UNL     1       5.992   6.763  16.782  0.00  0.00    +0.000 NA
ATOM      4  C   UNL     1       6.020   5.938  17.809  0.00  0.00    +0.000 A 
ATOM      5  S   UNL     1       7.265   6.299  18.937  0.00  0.00    +0.000 S 
ENDROOT
BRANCH   4   6
ATOM      6  C   UNL     1       5.062   4.843  18.025  0.00  0.00    +0.000 A 
ATOM      7  C   UNL     1       5.024   4.087  19.210  0.00  0.00    +0.000 A 
ATOM      8  C   UNL     1       4.108   3.040  19.364  0.00  0.00    +0.000 A 
ATOM      9  C   UNL     1       3.220   2.737  18.335  0.00  0.00    +0.000 A 
ATOM     10 CL   UNL     1       2.100   1.444  18.525  0.00  0.00    +0.000 Cl
ATOM     11  C   UNL     1       3.238   3.471  17.154  0.00  0.00    +0.000 A 
ATOM     12  C   UNL     1       4.157   4.515  17.001  0.00  0.00    +0.000 A 
ENDBRANCH   4   6
BRANCH   1  14
ATOM     13  C   UNL     1       8.542   9.700  18.229  0.00  0.00    +0.000 C 
ATOM     14  N   UNL     1       8.737   8.428  18.357  0.00  0.00    +0.000 NA
BRANCH  13  18
ATOM     15  C   UNL     1      11.407  12.552  19.562  0.00  0.00    +0.000 A 
ATOM     16  C   UNL     1      10.649  11.862  20.503  0.00  0.00    +0.000 A 
ATOM     17  C   UNL     1       9.714  10.920  20.071  0.00  0.00    +0.000 A 
ATOM     18  C   UNL     1       9.543  10.679  18.701  0.00  0.00    +0.000 A 
ATOM     19  C   UNL     1      10.308  11.380  17.763  0.00  0.00    +0.000 A 
ATOM     20  C   UNL     1      11.243  12.320  18.199  0.00  0.00    +0.000 A 
BRANCH  15  21
ATOM     21  O   UNL     1      12.333  13.478  19.941  0.00  0.00    +0.000 OA
ATOM     22  H   UNL     1      11.994  14.364  19.731  0.00  0.00    +0.000 HD
ENDBRANCH  15  21
ENDBRANCH  13  18
ENDBRANCH   1  14
TORSDOF 4
ENDMDL
MODEL 4
REMARK VINA RESULT:      -7.2      6.095      7.825
REMARK  Name = 
REMARK  4 active torsions:
REMARK  status: ('A' for Active; 'I' for Inactive)
REMARK    1  A    between atoms: O_1  and  C_2
REMARK    2  A    between atoms: C_5  and  C_6
REMARK    3  A    between atoms: N_7  and  C_8
REMARK    4  A    between atoms: C_11  and  C_12
REMARK                            x       y       z     vdW  Elec       q    Type
REMARK                         _______ _______ _______ _____ _____    ______ ____
ROOT
ATOM      1  C   UNL     1       2.112   6.375  20.221  0.00  0.00    +0.000 A 
ATOM      2  N   UNL     1       2.514   5.144  20.475  0.00  0.00    +0.000 NA
ATOM      3  N   UNL     1       3.309   4.619  19.478  0.00  0.00    +0.000 NA
ATOM      4  C   UNL     1       3.471   5.451  18.469  0.00  0.00    +0.000 A 
ATOM      5  S   UNL     1       2.661   6.951  18.687  0.00  0.00    +0.000 S 
ENDROOT
BRANCH   4   6
ATOM      6  C   UNL     1       4.300   5.174  17.286  0.00  0.00    +0.000 A 
ATOM      7  C   UNL     1       4.716   3.878  16.933  0.00  0.00    +0.000 A 
ATOM      8  C   UNL     1       5.521   3.664  15.809  0.00  0.00    +0.000 A 
ATOM      9  C   UNL     1       5.920   4.742  15.024  0.00  0.00    +0.000 A 
ATOM     10 CL   UNL     1       6.916   4.476  13.647  0.00  0.00    +0.000 Cl
ATOM     11  C   UNL     1       5.520   6.034  15.352  0.00  0.00    +0.000 A 
ATOM     12  C   UNL     1       4.718   6.246  16.479  0.00  0.00    +0.000 A 
ENDBRANCH   4   6
BRANCH   1  14
ATOM     13  C   UNL     1       1.394   8.463  20.638  0.00  0.00    +0.000 C 
ATOM     14  N   UNL     1       1.375   7.219  20.991  0.00  0.00    +0.000 NA
BRANCH  13  18
ATOM     15  C   UNL     1      -0.940  11.385  22.672  0.00  0.00    +0.000 A 
ATOM     16  C   UNL     1      -0.823  10.109  23.218  0.00  0.00    +0.000 A 
ATOM     17  C   UNL     1      -0.052   9.151  22.559  0.00  0.00    +0.000 A 
ATOM     18  C   UNL     1       0.592   9.475  21.357  0.00  0.00    +0.000 A 
ATOM     19  C   UNL     1       0.467  10.759  20.816  0.00  0.00    +0.000 A 
ATOM     20  C   UNL     1      -0.304  11.715  21.479  0.00  0.00    +0.000 A 
BRANCH  15  21
ATOM     21  O   UNL     1      -1.681  12.351  23.285  0.00  0.00    +0.000 OA
ATOM     22  H   UNL     1      -1.465  12.357  24.233  0.00  0.00    +0.000 HD
ENDBRANCH  15  21
ENDBRANCH  13  18
ENDBRANCH   1  14
TORSDOF 4
ENDMDL
MODEL 5
REMARK VINA RESULT:      -7.2      6.088      7.804
REMARK  Name = 
REMARK  4 active torsions:
REMARK  status: ('A' for Active; 'I' for Inactive)
REMARK    1  A    between atoms: O_1  and  C_2
REMARK    2  A    between atoms: C_5  and  C_6
REMARK    3  A    between atoms: N_7  and  C_8
REMARK    4  A    between atoms: C_11  and  C_12
REMARK                            x       y       z     vdW  Elec       q    Type
REMARK                         _______ _______ _______ _____ _____    ______ ____
ROOT
ATOM      1  C   UNL     1       2.113   6.412  20.209  0.00  0.00    +0.000 A 
ATOM      2  N   UNL     1       2.566   5.206  20.494  0.00  0.00    +0.000 NA
ATOM      3  N   UNL     1       3.374   4.686  19.505  0.00  0.00    +0.000 NA
ATOM      4  C   UNL     1       3.495   5.496  18.472  0.00  0.00    +0.000 A 
ATOM      5  S   UNL     1       2.627   6.967  18.656  0.00  0.00    +0.000 S 
ENDROOT
BRANCH   4   6
ATOM      6  C   UNL     1       4.325   5.220  17.290  0.00  0.00    +0.000 A 
ATOM      7  C   UNL     1       4.748   3.926  16.940  0.00  0.00    +0.000 A 
ATOM      8  C   UNL     1       5.555   3.712  15.817  0.00  0.00    +0.000 A 
ATOM      9  C   UNL     1       5.949   4.791  15.030  0.00  0.00    +0.000 A 
ATOM     10 CL   UNL     1       6.947   4.527  13.654  0.00  0.00    +0.000 Cl
ATOM     11  C   UNL     1       5.543   6.082  15.355  0.00  0.00    +0.000 A 
ATOM     12  C   UNL     1       4.740   6.293  16.481  0.00  0.00    +0.000 A 
ENDBRANCH   4   6
BRANCH   1  14
ATOM     13  C   UNL     1       1.348   8.489  20.602  0.00  0.00    +0.000 C 
ATOM     14  N   UNL     1       1.347   7.246  20.963  0.00  0.00    +0.000 NA
BRANCH  13  18
ATOM     15  C   UNL     1      -1.022  11.366  22.657  0.00  0.00    +0.000 A 
ATOM     16  C   UNL     1      -0.468  11.699  21.424  0.00  0.00    +0.000 A 
ATOM     17  C   UNL     1       0.302  10.756  20.743  0.00  0.00    +0.000 A 
ATOM     18  C   UNL     1       0.516   9.489  21.302  0.00  0.00    +0.000 A 
ATOM     19  C   UNL     1      -0.042   9.165  22.544  0.00  0.00    +0.000 A 
ATOM     20  C   UNL     1      -0.814  10.110  23.221  0.00  0.00    +0.000 A 
BRANCH  15  21
ATOM     21  O   UNL     1      -1.784  12.256  23.355  0.00  0.00    +0.000 OA
ATOM     22  H   UNL     1      -2.357  12.733  22.731  0.00  0.00    +0.000 HD
ENDBRANCH  15  21
ENDBRANCH  13  18
ENDBRANCH   1  14
TORSDOF 4
ENDMDL
MODEL 6
REMARK VINA RESULT:      -7.2      6.091      7.894
REMARK  Name = 
REMARK  4 active torsions:
REMARK  status: ('A' for Active; 'I' for Inactive)
REMARK    1  A    between atoms: O_1  and  C_2
REMARK    2  A    between atoms: C_5  and  C_6
REMARK    3  A    between atoms: N_7  and  C_8
REMARK    4  A    between atoms: C_11  and  C_12
REMARK                            x       y       z     vdW  Elec       q    Type
REMARK                         _______ _______ _______ _____ _____    ______ ____
ROOT
ATOM      1  C   UNL     1       2.089   6.429  20.209  0.00  0.00    +0.000 A 
ATOM      2  N   UNL     1       2.463   5.185  20.439  0.00  0.00    +0.000 NA
ATOM      3  N   UNL     1       3.255   4.664  19.437  0.00  0.00    +0.000 NA
ATOM      4  C   UNL     1       3.443   5.515  18.448  0.00  0.00    +0.000 A 
ATOM      5  S   UNL     1       2.664   7.026  18.693  0.00  0.00    +0.000 S 
ENDROOT
BRANCH   4   6
ATOM      6  C   UNL     1       4.276   5.246  17.265  0.00  0.00    +0.000 A 
ATOM      7  C   UNL     1       4.762   6.266  16.429  0.00  0.00    +0.000 A 
ATOM      8  C   UNL     1       5.535   5.963  15.302  0.00  0.00    +0.000 A 
ATOM      9  C   UNL     1       5.830   4.636  14.998  0.00  0.00    +0.000 A 
ATOM     10 CL   UNL     1       6.773   4.266  13.608  0.00  0.00    +0.000 Cl
ATOM     11  C   UNL     1       5.360   3.609  15.811  0.00  0.00    +0.000 A 
ATOM     12  C   UNL     1       4.584   3.915  16.935  0.00  0.00    +0.000 A 
ENDBRANCH   4   6
BRANCH   1  14
ATOM     13  C   UNL     1       1.326   8.505  20.605  0.00  0.00    +0.000 C 
ATOM     14  N   UNL     1       1.364   7.271  20.991  0.00  0.00    +0.000 NA
BRANCH  13  18
ATOM     15  C   UNL     1      -0.998  11.411  22.673  0.00  0.00    +0.000 A 
ATOM     16  C   UNL     1      -0.841  10.145  23.231  0.00  0.00    +0.000 A 
ATOM     17  C   UNL     1      -0.073   9.193  22.561  0.00  0.00    +0.000 A 
ATOM     18  C   UNL     1       0.528   9.512  21.336  0.00  0.00    +0.000 A 
ATOM     19  C   UNL     1       0.362  10.785  20.782  0.00  0.00    +0.000 A 
ATOM     20  C   UNL     1      -0.406  11.737  21.456  0.00  0.00    +0.000 A 
BRANCH  15  21
ATOM     21  O   UNL     1      -1.738  12.372  23.296  0.00  0.00    +0.000 OA
ATOM     22  H   UNL     1      -1.240  13.206  23.284  0.00  0.00    +0.000 HD
ENDBRANCH  15  21
ENDBRANCH  13  18
ENDBRANCH   1  14
TORSDOF 4
ENDMDL
MODEL 7
REMARK VINA RESULT:      -7.2      6.081      7.833
REMARK  Name = 
REMARK  4 active torsions:
REMARK  status: ('A' for Active; 'I' for Inactive)
REMARK    1  A    between atoms: O_1  and  C_2
REMARK    2  A    between atoms: C_5  and  C_6
REMARK    3  A    between atoms: N_7  and  C_8
REMARK    4  A    between atoms: C_11  and  C_12
REMARK                            x       y       z     vdW  Elec       q    Type
REMARK                         _______ _______ _______ _____ _____    ______ ____
ROOT
ATOM      1  C   UNL     1       2.073   6.491  20.210  0.00  0.00    +0.000 A 
ATOM      2  N   UNL     1       2.456   5.253  20.459  0.00  0.00    +0.000 NA
ATOM      3  N   UNL     1       3.245   4.720  19.462  0.00  0.00    +0.000 NA
ATOM      4  C   UNL     1       3.424   5.555  18.458  0.00  0.00    +0.000 A 
ATOM      5  S   UNL     1       2.637   7.066  18.682  0.00  0.00    +0.000 S 
ENDROOT
BRANCH   4   6
ATOM      6  C   UNL     1       4.252   5.272  17.276  0.00  0.00    +0.000 A 
ATOM      7  C   UNL     1       4.774   6.283  16.451  0.00  0.00    +0.000 A 
ATOM      8  C   UNL     1       5.541   5.966  15.324  0.00  0.00    +0.000 A 
ATOM      9  C   UNL     1       5.795   4.634  15.009  0.00  0.00    +0.000 A 
ATOM     10 CL   UNL     1       6.732   4.247  13.619  0.00  0.00    +0.000 Cl
ATOM     11  C   UNL     1       5.290   3.615  15.810  0.00  0.00    +0.000 A 
ATOM     12  C   UNL     1       4.520   3.934  16.934  0.00  0.00    +0.000 A 
ENDBRANCH   4   6
BRANCH   1  14
ATOM     13  C   UNL     1       1.285   8.565  20.566  0.00  0.00    +0.000 C 
ATOM     14  N   UNL     1       1.347   7.342  20.982  0.00  0.00    +0.000 NA
BRANCH  13  18
ATOM     15  C   UNL     1      -0.999  11.477  22.670  0.00  0.00    +0.000 A 
ATOM     16  C   UNL     1      -0.415  11.821  21.455  0.00  0.00    +0.000 A 
ATOM     17  C   UNL     1       0.328  10.868  20.757  0.00  0.00    +0.000 A 
ATOM     18  C   UNL     1       0.483   9.578  21.283  0.00  0.00    +0.000 A 
ATOM     19  C   UNL     1      -0.106   9.242  22.507  0.00  0.00    +0.000 A 
ATOM     20  C   UNL     1      -0.849  10.198  23.201  0.00  0.00    +0.000 A 
BRANCH  15  21
ATOM     21  O   UNL     1      -1.735  12.377  23.382  0.00  0.00    +0.000 OA
ATOM     22  H   UNL     1      -2.600  11.982  23.586  0.00  0.00    +0.000 HD
ENDBRANCH  15  21
ENDBRANCH  13  18
ENDBRANCH   1  14
TORSDOF 4
ENDMDL
MODEL 8
REMARK VINA RESULT:      -7.2      0.724      1.649
REMARK  Name = 
REMARK  4 active torsions:
REMARK  status: ('A' for Active; 'I' for Inactive)
REMARK    1  A    between atoms: O_1  and  C_2
REMARK    2  A    between atoms: C_5  and  C_6
REMARK    3  A    between atoms: N_7  and  C_8
REMARK    4  A    between atoms: C_11  and  C_12
REMARK                            x       y       z     vdW  Elec       q    Type
REMARK                         _______ _______ _______ _____ _____    ______ ____
ROOT
ATOM      1  C   UNL     1       7.203   7.292  17.159  0.00  0.00    +0.000 A 
ATOM      2  N   UNL     1       7.452   6.217  16.434  0.00  0.00    +0.000 NA
ATOM      3  N   UNL     1       6.462   5.262  16.528  0.00  0.00    +0.000 NA
ATOM      4  C   UNL     1       5.493   5.616  17.348  0.00  0.00    +0.000 A 
ATOM      5  S   UNL     1       5.730   7.165  18.052  0.00  0.00    +0.000 S 
ENDROOT
BRANCH   4   6
ATOM      6  C   UNL     1       4.290   4.812  17.612  0.00  0.00    +0.000 A 
ATOM      7  C   UNL     1       3.044   5.385  17.924  0.00  0.00    +0.000 A 
ATOM      8  C   UNL     1       1.930   4.581  18.188  0.00  0.00    +0.000 A 
ATOM      9  C   UNL     1       2.048   3.194  18.143  0.00  0.00    +0.000 A 
ATOM     10 CL   UNL     1       0.679   2.207  18.476  0.00  0.00    +0.000 Cl
ATOM     11  C   UNL     1       3.270   2.604  17.837  0.00  0.00    +0.000 A 
ATOM     12  C   UNL     1       4.384   3.410  17.577  0.00  0.00    +0.000 A 
ENDBRANCH   4   6
BRANCH   1  14
ATOM     13  C   UNL     1       8.257   8.786  18.466  0.00  0.00    +0.000 C 
ATOM     14  N   UNL     1       7.916   8.445  17.265  0.00  0.00    +0.000 NA
BRANCH  13  18
ATOM     15  C   UNL     1      10.597  12.274  19.157  0.00  0.00    +0.000 A 
ATOM     16  C   UNL     1      10.118  11.552  20.246  0.00  0.00    +0.000 A 
ATOM     17  C   UNL     1       9.358  10.403  20.024  0.00  0.00    +0.000 A 
ATOM     18  C   UNL     1       9.079   9.989  18.715  0.00  0.00    +0.000 A 
ATOM     19  C   UNL     1       9.563  10.723  17.627  0.00  0.00    +0.000 A 
ATOM     20  C   UNL     1      10.325  11.871  17.852  0.00  0.00    +0.000 A 
BRANCH  15  21
ATOM     21  O   UNL     1      11.347  13.400  19.329  0.00  0.00    +0.000 OA
ATOM     22  H   UNL     1      10.849  14.026  19.882  0.00  0.00    +0.000 HD
ENDBRANCH  15  21
ENDBRANCH  13  18
ENDBRANCH   1  14
TORSDOF 4
ENDMDL
MODEL 9
REMARK VINA RESULT:      -7.1      0.697      1.261
REMARK  Name = 
REMARK  4 active torsions:
REMARK  status: ('A' for Active; 'I' for Inactive)
REMARK    1  A    between atoms: O_1  and  C_2
REMARK    2  A    between atoms: C_5  and  C_6
REMARK    3  A    between atoms: N_7  and  C_8
REMARK    4  A    between atoms: C_11  and  C_12
REMARK                            x       y       z     vdW  Elec       q    Type
REMARK                         _______ _______ _______ _____ _____    ______ ____
ROOT
ATOM      1  C   UNL     1       7.113   7.387  17.166  0.00  0.00    +0.000 A 
ATOM      2  N   UNL     1       7.386   6.319  16.440  0.00  0.00    +0.000 NA
ATOM      3  N   UNL     1       6.417   5.343  16.530  0.00  0.00    +0.000 NA
ATOM      4  C   UNL     1       5.438   5.675  17.348  0.00  0.00    +0.000 A 
ATOM      5  S   UNL     1       5.641   7.228  18.055  0.00  0.00    +0.000 S 
ENDROOT
BRANCH   4   6
ATOM      6  C   UNL     1       4.252   4.846  17.608  0.00  0.00    +0.000 A 
ATOM      7  C   UNL     1       2.984   5.392  17.877  0.00  0.00    +0.000 A 
ATOM      8  C   UNL     1       1.887   4.564  18.139  0.00  0.00    +0.000 A 
ATOM      9  C   UNL     1       2.043   3.181  18.135  0.00  0.00    +0.000 A 
ATOM     10 CL   UNL     1       0.694   2.166  18.465  0.00  0.00    +0.000 Cl
ATOM     11  C   UNL     1       3.288   2.617  17.871  0.00  0.00    +0.000 A 
ATOM     12  C   UNL     1       4.385   3.446  17.614  0.00  0.00    +0.000 A 
ENDBRANCH   4   6
BRANCH   1  14
ATOM     13  C   UNL     1       8.284   8.815  18.448  0.00  0.00    +0.000 C 
ATOM     14  N   UNL     1       7.801   8.555  17.276  0.00  0.00    +0.000 NA
BRANCH  13  18
ATOM     15  C   UNL     1      10.657  12.274  19.169  0.00  0.00    +0.000 A 
ATOM     16  C   UNL     1      10.393  11.894  17.856  0.00  0.00    +0.000 A 
ATOM     17  C   UNL     1       9.608  10.766  17.615  0.00  0.00    +0.000 A 
ATOM     18  C   UNL     1       9.098  10.024  18.689  0.00  0.00    +0.000 A 
ATOM     19  C   UNL     1       9.371  10.413  20.005  0.00  0.00    +0.000 A 
ATOM     20  C   UNL     1      10.155  11.543  20.242  0.00  0.00    +0.000 A 
BRANCH  15  21
ATOM     21  O   UNL     1      11.415  13.372  19.448  0.00  0.00    +0.000 OA
ATOM     22  H   UNL     1      10.907  14.169  19.223  0.00  0.00    +0.000 HD
ENDBRANCH  15  21
ENDBRANCH  13  18
ENDBRANCH   1  14
TORSDOF 4
ENDMDL
