MODEL 1
REMARK VINA RESULT:      -7.3      0.000      0.000
REMARK  Name = 
REMARK  3 active torsions:
REMARK  status: ('A' for Active; 'I' for Inactive)
REMARK    1  A    between atoms: C_1  and  C_2
REMARK    2  A    between atoms: C_7  and  C_8
REMARK    3  A    between atoms: C_16  and  O_17
REMARK                            x       y       z     vdW  Elec       q    Type
REMARK                         _______ _______ _______ _____ _____    ______ ____
ROOT
ATOM      1  C   UNL     1       7.921   5.176  13.135  0.00  0.00    +0.000 C 
ATOM      2  C   UNL     1       7.075   5.004  14.338  0.00  0.00    +0.000 A 
ATOM      3  N   UNL     1       7.499   5.453  15.573  0.00  0.00    +0.000 NA
ATOM      4  C   UNL     1       6.517   5.138  16.386  0.00  0.00    +0.000 A 
ATOM      5  C   UNL     1       6.420   5.365  17.799  0.00  0.00    +0.000 A 
ATOM      6  N   UNL     1       5.376   4.987  18.488  0.00  0.00    +0.000 NA
ATOM      7  C   UNL     1       4.350   4.349  17.805  0.00  0.00    +0.000 A 
ATOM      8  C   UNL     1       4.370   4.106  16.478  0.00  0.00    +0.000 A 
ATOM      9  N   UNL     1       5.478   4.509  15.753  0.00  0.00    +0.000 N 
ATOM     10  C   UNL     1       5.821   4.416  14.421  0.00  0.00    +0.000 A 
ENDROOT
BRANCH   7  11
ATOM     11  C   UNL     1       3.181   3.898  18.576  0.00  0.00    +0.000 A 
ATOM     12  C   UNL     1       2.238   3.048  17.987  0.00  0.00    +0.000 A 
ATOM     13  C   UNL     1       1.108   2.646  18.701  0.00  0.00    +0.000 A 
ATOM     14  C   UNL     1       0.916   3.090  20.009  0.00  0.00    +0.000 A 
ATOM     15  C   UNL     1       1.854   3.931  20.606  0.00  0.00    +0.000 A 
ATOM     16  C   UNL     1       2.985   4.335  19.893  0.00  0.00    +0.000 A 
ENDBRANCH   7  11
BRANCH  10  17
ATOM     17  O   UNL     1       5.065   3.865  13.473  0.00  0.00    +0.000 OA
ATOM     18  H   UNL     1       4.479   3.193  13.861  0.00  0.00    +0.000 HD
ENDBRANCH  10  17
TORSDOF 2
ENDMDL
MODEL 2
REMARK VINA RESULT:      -7.2      0.103      1.176
REMARK  Name = 
REMARK  3 active torsions:
REMARK  status: ('A' for Active; 'I' for Inactive)
REMARK    1  A    between atoms: C_1  and  C_2
REMARK    2  A    between atoms: C_7  and  C_8
REMARK    3  A    between atoms: C_16  and  O_17
REMARK                            x       y       z     vdW  Elec       q    Type
REMARK                         _______ _______ _______ _____ _____    ______ ____
ROOT
ATOM      1  C   UNL     1       7.930   5.151  13.188  0.00  0.00    +0.000 C 
ATOM      2  C   UNL     1       7.065   5.011  14.382  0.00  0.00    +0.000 A 
ATOM      3  N   UNL     1       7.475   5.482  15.613  0.00  0.00    +0.000 NA
ATOM      4  C   UNL     1       6.479   5.192  16.419  0.00  0.00    +0.000 A 
ATOM      5  C   UNL     1       6.364   5.449  17.825  0.00  0.00    +0.000 A 
ATOM      6  N   UNL     1       5.306   5.093  18.507  0.00  0.00    +0.000 NA
ATOM      7  C   UNL     1       4.286   4.449  17.822  0.00  0.00    +0.000 A 
ATOM      8  C   UNL     1       4.323   4.177  16.501  0.00  0.00    +0.000 A 
ATOM      9  N   UNL     1       5.444   4.557  15.784  0.00  0.00    +0.000 N 
ATOM     10  C   UNL     1       5.806   4.434  14.459  0.00  0.00    +0.000 A 
ENDROOT
BRANCH   7  11
ATOM     11  C   UNL     1       3.103   4.023  18.586  0.00  0.00    +0.000 A 
ATOM     12  C   UNL     1       2.896   4.503  19.885  0.00  0.00    +0.000 A 
ATOM     13  C   UNL     1       1.795   4.074  20.628  0.00  0.00    +0.000 A 
ATOM     14  C   UNL     1       0.894   3.163  20.076  0.00  0.00    +0.000 A 
ATOM     15  C   UNL     1       1.088   2.686  18.781  0.00  0.00    +0.000 A 
ATOM     16  C   UNL     1       2.190   3.114  18.036  0.00  0.00    +0.000 A 
ENDBRANCH   7  11
BRANCH  10  17
ATOM     17  O   UNL     1       5.059   3.869  13.512  0.00  0.00    +0.000 OA
ATOM     18  H   UNL     1       5.165   4.347  12.672  0.00  0.00    +0.000 HD
ENDBRANCH  10  17
TORSDOF 2
ENDMDL
MODEL 3
REMARK VINA RESULT:      -6.9      1.717      5.999
REMARK  Name = 
REMARK  3 active torsions:
REMARK  status: ('A' for Active; 'I' for Inactive)
REMARK    1  A    between atoms: C_1  and  C_2
REMARK    2  A    between atoms: C_7  and  C_8
REMARK    3  A    between atoms: C_16  and  O_17
REMARK                            x       y       z     vdW  Elec       q    Type
REMARK                         _______ _______ _______ _____ _____    ______ ____
ROOT
ATOM      1  C   UNL     1       2.082   4.341  20.563  0.00  0.00    +0.000 C 
ATOM      2  C   UNL     1       3.057   4.374  19.449  0.00  0.00    +0.000 A 
ATOM      3  N   UNL     1       4.392   4.639  19.684  0.00  0.00    +0.000 NA
ATOM      4  C   UNL     1       4.946   4.590  18.494  0.00  0.00    +0.000 A 
ATOM      5  C   UNL     1       6.321   4.793  18.140  0.00  0.00    +0.000 A 
ATOM      6  N   UNL     1       6.732   4.719  16.902  0.00  0.00    +0.000 NA
ATOM      7  C   UNL     1       5.788   4.438  15.925  0.00  0.00    +0.000 A 
ATOM      8  C   UNL     1       4.480   4.232  16.184  0.00  0.00    +0.000 A 
ATOM      9  N   UNL     1       4.049   4.309  17.497  0.00  0.00    +0.000 N 
ATOM     10  C   UNL     1       2.818   4.163  18.099  0.00  0.00    +0.000 A 
ENDROOT
BRANCH   7  11
ATOM     11  C   UNL     1       6.236   4.378  14.526  0.00  0.00    +0.000 A 
ATOM     12  C   UNL     1       5.557   3.570  13.605  0.00  0.00    +0.000 A 
ATOM     13  C   UNL     1       6.000   3.480  12.285  0.00  0.00    +0.000 A 
ATOM     14  C   UNL     1       7.124   4.199  11.876  0.00  0.00    +0.000 A 
ATOM     15  C   UNL     1       7.801   5.012  12.784  0.00  0.00    +0.000 A 
ATOM     16  C   UNL     1       7.360   5.103  14.106  0.00  0.00    +0.000 A 
ENDBRANCH   7  11
BRANCH  10  17
ATOM     17  O   UNL     1       1.683   3.882  17.461  0.00  0.00    +0.000 OA
ATOM     18  H   UNL     1       1.682   4.299  16.582  0.00  0.00    +0.000 HD
ENDBRANCH  10  17
TORSDOF 2
ENDMDL
MODEL 4
REMARK VINA RESULT:      -6.9      1.426      1.723
REMARK  Name = 
REMARK  3 active torsions:
REMARK  status: ('A' for Active; 'I' for Inactive)
REMARK    1  A    between atoms: C_1  and  C_2
REMARK    2  A    between atoms: C_7  and  C_8
REMARK    3  A    between atoms: C_16  and  O_17
REMARK                            x       y       z     vdW  Elec       q    Type
REMARK                         _______ _______ _______ _____ _____    ______ ____
ROOT
ATOM      1  C   UNL     1       7.370   5.127  13.722  0.00  0.00    +0.000 C 
ATOM      2  C   UNL     1       6.431   5.092  14.867  0.00  0.00    +0.000 A 
ATOM      3  N   UNL     1       5.945   6.260  15.420  0.00  0.00    +0.000 NA
ATOM      4  C   UNL     1       5.159   5.856  16.391  0.00  0.00    +0.000 A 
ATOM      5  C   UNL     1       4.390   6.648  17.307  0.00  0.00    +0.000 A 
ATOM      6  N   UNL     1       3.652   6.104  18.238  0.00  0.00    +0.000 NA
ATOM      7  C   UNL     1       3.633   4.719  18.318  0.00  0.00    +0.000 A 
ATOM      8  C   UNL     1       4.326   3.910  17.490  0.00  0.00    +0.000 A 
ATOM      9  N   UNL     1       5.107   4.491  16.505  0.00  0.00    +0.000 N 
ATOM     10  C   UNL     1       5.924   3.979  15.520  0.00  0.00    +0.000 A 
ENDROOT
BRANCH   7  11
ATOM     11  C   UNL     1       2.824   4.098  19.378  0.00  0.00    +0.000 A 
ATOM     12  C   UNL     1       3.436   3.288  20.343  0.00  0.00    +0.000 A 
ATOM     13  C   UNL     1       2.669   2.667  21.330  0.00  0.00    +0.000 A 
ATOM     14  C   UNL     1       1.286   2.852  21.358  0.00  0.00    +0.000 A 
ATOM     15  C   UNL     1       0.671   3.663  20.405  0.00  0.00    +0.000 A 
ATOM     16  C   UNL     1       1.437   4.285  19.417  0.00  0.00    +0.000 A 
ENDBRANCH   7  11
BRANCH  10  17
ATOM     17  O   UNL     1       6.138   2.682  15.303  0.00  0.00    +0.000 OA
ATOM     18  H   UNL     1       7.002   2.552  14.877  0.00  0.00    +0.000 HD
ENDBRANCH  10  17
TORSDOF 2
ENDMDL
MODEL 5
REMARK VINA RESULT:      -6.8      1.960      6.032
REMARK  Name = 
REMARK  3 active torsions:
REMARK  status: ('A' for Active; 'I' for Inactive)
REMARK    1  A    between atoms: C_1  and  C_2
REMARK    2  A    between atoms: C_7  and  C_8
REMARK    3  A    between atoms: C_16  and  O_17
REMARK                            x       y       z     vdW  Elec       q    Type
REMARK                         _______ _______ _______ _____ _____    ______ ____
ROOT
ATOM      1  C   UNL     1       2.417   2.953  20.888  0.00  0.00    +0.000 C 
ATOM      2  C   UNL     1       3.151   3.419  19.690  0.00  0.00    +0.000 A 
ATOM      3  N   UNL     1       3.567   4.731  19.579  0.00  0.00    +0.000 NA
ATOM      4  C   UNL     1       4.170   4.782  18.414  0.00  0.00    +0.000 A 
ATOM      5  C   UNL     1       4.795   5.908  17.780  0.00  0.00    +0.000 A 
ATOM      6  N   UNL     1       5.355   5.812  16.602  0.00  0.00    +0.000 NA
ATOM      7  C   UNL     1       5.325   4.576  15.973  0.00  0.00    +0.000 A 
ATOM      8  C   UNL     1       4.760   3.474  16.509  0.00  0.00    +0.000 A 
ATOM      9  N   UNL     1       4.169   3.580  17.757  0.00  0.00    +0.000 N 
ATOM     10  C   UNL     1       3.514   2.682  18.573  0.00  0.00    +0.000 A 
ENDROOT
BRANCH   7  11
ATOM     11  C   UNL     1       5.930   4.466  14.637  0.00  0.00    +0.000 A 
ATOM     12  C   UNL     1       5.335   3.655  13.663  0.00  0.00    +0.000 A 
ATOM     13  C   UNL     1       5.925   3.517  12.405  0.00  0.00    +0.000 A 
ATOM     14  C   UNL     1       7.112   4.189  12.114  0.00  0.00    +0.000 A 
ATOM     15  C   UNL     1       7.707   5.005  13.076  0.00  0.00    +0.000 A 
ATOM     16  C   UNL     1       7.119   5.144  14.335  0.00  0.00    +0.000 A 
ENDBRANCH   7  11
BRANCH  10  17
ATOM     17  O   UNL     1       3.308   1.398  18.285  0.00  0.00    +0.000 OA
ATOM     18  H   UNL     1       3.679   1.187  17.411  0.00  0.00    +0.000 HD
ENDBRANCH  10  17
TORSDOF 2
ENDMDL
MODEL 6
REMARK VINA RESULT:      -6.8      1.952      6.150
REMARK  Name = 
REMARK  3 active torsions:
REMARK  status: ('A' for Active; 'I' for Inactive)
REMARK    1  A    between atoms: C_1  and  C_2
REMARK    2  A    between atoms: C_7  and  C_8
REMARK    3  A    between atoms: C_16  and  O_17
REMARK                            x       y       z     vdW  Elec       q    Type
REMARK                         _______ _______ _______ _____ _____    ______ ____
ROOT
ATOM      1  C   UNL     1       2.532   3.468  20.820  0.00  0.00    +0.000 C 
ATOM      2  C   UNL     1       3.247   3.850  19.581  0.00  0.00    +0.000 A 
ATOM      3  N   UNL     1       3.554   5.170  19.317  0.00  0.00    +0.000 NA
ATOM      4  C   UNL     1       4.173   5.134  18.160  0.00  0.00    +0.000 A 
ATOM      5  C   UNL     1       4.713   6.226  17.401  0.00  0.00    +0.000 A 
ATOM      6  N   UNL     1       5.302   6.039  16.249  0.00  0.00    +0.000 NA
ATOM      7  C   UNL     1       5.389   4.739  15.773  0.00  0.00    +0.000 A 
ATOM      8  C   UNL     1       4.909   3.664  16.432  0.00  0.00    +0.000 A 
ATOM      9  N   UNL     1       4.287   3.867  17.652  0.00  0.00    +0.000 N 
ATOM     10  C   UNL     1       3.694   3.019  18.564  0.00  0.00    +0.000 A 
ENDROOT
BRANCH   7  11
ATOM     11  C   UNL     1       6.028   4.523  14.466  0.00  0.00    +0.000 A 
ATOM     12  C   UNL     1       7.209   5.203  14.141  0.00  0.00    +0.000 A 
ATOM     13  C   UNL     1       7.800   5.030  12.888  0.00  0.00    +0.000 A 
ATOM     14  C   UNL     1       7.215   4.175  11.954  0.00  0.00    +0.000 A 
ATOM     15  C   UNL     1       6.044   3.488  12.272  0.00  0.00    +0.000 A 
ATOM     16  C   UNL     1       5.451   3.660  13.525  0.00  0.00    +0.000 A 
ENDBRANCH   7  11
BRANCH  10  17
ATOM     17  O   UNL     1       3.603   1.697  18.431  0.00  0.00    +0.000 OA
ATOM     18  H   UNL     1       4.379   1.354  17.957  0.00  0.00    +0.000 HD
ENDBRANCH  10  17
TORSDOF 2
ENDMDL
MODEL 7
REMARK VINA RESULT:      -6.8      1.431      1.575
REMARK  Name = 
REMARK  3 active torsions:
REMARK  status: ('A' for Active; 'I' for Inactive)
REMARK    1  A    between atoms: C_1  and  C_2
REMARK    2  A    between atoms: C_7  and  C_8
REMARK    3  A    between atoms: C_16  and  O_17
REMARK                            x       y       z     vdW  Elec       q    Type
REMARK                         _______ _______ _______ _____ _____    ______ ____
ROOT
ATOM      1  C   UNL     1       7.406   5.213  13.733  0.00  0.00    +0.000 C 
ATOM      2  C   UNL     1       6.457   5.146  14.868  0.00  0.00    +0.000 A 
ATOM      3  N   UNL     1       5.937   6.296  15.426  0.00  0.00    +0.000 NA
ATOM      4  C   UNL     1       5.152   5.864  16.386  0.00  0.00    +0.000 A 
ATOM      5  C   UNL     1       4.355   6.630  17.301  0.00  0.00    +0.000 A 
ATOM      6  N   UNL     1       3.621   6.059  18.220  0.00  0.00    +0.000 NA
ATOM      7  C   UNL     1       3.636   4.674  18.288  0.00  0.00    +0.000 A 
ATOM      8  C   UNL     1       4.357   3.889  17.460  0.00  0.00    +0.000 A 
ATOM      9  N   UNL     1       5.132   4.498  16.488  0.00  0.00    +0.000 N 
ATOM     10  C   UNL     1       5.972   4.014  15.507  0.00  0.00    +0.000 A 
ENDROOT
BRANCH   7  11
ATOM     11  C   UNL     1       2.832   4.024  19.335  0.00  0.00    +0.000 A 
ATOM     12  C   UNL     1       1.445   4.214  19.373  0.00  0.00    +0.000 A 
ATOM     13  C   UNL     1       0.682   3.630  20.386  0.00  0.00    +0.000 A 
ATOM     14  C   UNL     1       1.301   2.851  21.364  0.00  0.00    +0.000 A 
ATOM     15  C   UNL     1       2.680   2.651  21.329  0.00  0.00    +0.000 A 
ATOM     16  C   UNL     1       3.445   3.235  20.317  0.00  0.00    +0.000 A 
ENDBRANCH   7  11
BRANCH  10  17
ATOM     17  O   UNL     1       6.219   2.725  15.281  0.00  0.00    +0.000 OA
ATOM     18  H   UNL     1       6.865   2.390  15.925  0.00  0.00    +0.000 HD
ENDBRANCH  10  17
TORSDOF 2
ENDMDL
MODEL 8
REMARK VINA RESULT:      -6.8      1.820      6.071
REMARK  Name = 
REMARK  3 active torsions:
REMARK  status: ('A' for Active; 'I' for Inactive)
REMARK    1  A    between atoms: C_1  and  C_2
REMARK    2  A    between atoms: C_7  and  C_8
REMARK    3  A    between atoms: C_16  and  O_17
REMARK                            x       y       z     vdW  Elec       q    Type
REMARK                         _______ _______ _______ _____ _____    ______ ____
ROOT
ATOM      1  C   UNL     1       2.038   5.062  20.461  0.00  0.00    +0.000 C 
ATOM      2  C   UNL     1       3.022   5.024  19.356  0.00  0.00    +0.000 A 
ATOM      3  N   UNL     1       4.302   5.513  19.529  0.00  0.00    +0.000 NA
ATOM      4  C   UNL     1       4.882   5.321  18.367  0.00  0.00    +0.000 A 
ATOM      5  C   UNL     1       6.223   5.645  17.973  0.00  0.00    +0.000 A 
ATOM      6  N   UNL     1       6.666   5.401  16.768  0.00  0.00    +0.000 NA
ATOM      7  C   UNL     1       5.790   4.814  15.867  0.00  0.00    +0.000 A 
ATOM      8  C   UNL     1       4.518   4.478  16.166  0.00  0.00    +0.000 A 
ATOM      9  N   UNL     1       4.054   4.737  17.445  0.00  0.00    +0.000 N 
ATOM     10  C   UNL     1       2.842   4.534  18.071  0.00  0.00    +0.000 A 
ENDROOT
BRANCH   7  11
ATOM     11  C   UNL     1       6.271   4.558  14.501  0.00  0.00    +0.000 A 
ATOM     12  C   UNL     1       7.399   5.234  14.017  0.00  0.00    +0.000 A 
ATOM     13  C   UNL     1       7.839   5.023  12.709  0.00  0.00    +0.000 A 
ATOM     14  C   UNL     1       7.156   4.134  11.878  0.00  0.00    +0.000 A 
ATOM     15  C   UNL     1       6.037   3.452  12.354  0.00  0.00    +0.000 A 
ATOM     16  C   UNL     1       5.595   3.662  13.662  0.00  0.00    +0.000 A 
ENDBRANCH   7  11
BRANCH  10  17
ATOM     17  O   UNL     1       1.771   3.983  17.502  0.00  0.00    +0.000 OA
ATOM     18  H   UNL     1       0.971   4.478  17.746  0.00  0.00    +0.000 HD
ENDBRANCH  10  17
TORSDOF 2
ENDMDL
MODEL 9
REMARK VINA RESULT:      -6.7      2.139      6.038
REMARK  Name = 
REMARK  3 active torsions:
REMARK  status: ('A' for Active; 'I' for Inactive)
REMARK    1  A    between atoms: C_1  and  C_2
REMARK    2  A    between atoms: C_7  and  C_8
REMARK    3  A    between atoms: C_16  and  O_17
REMARK                            x       y       z     vdW  Elec       q    Type
REMARK                         _______ _______ _______ _____ _____    ______ ____
ROOT
ATOM      1  C   UNL     1       1.292   2.686  21.507  0.00  0.00    +0.000 C 
ATOM      2  C   UNL     1       2.214   3.197  20.467  0.00  0.00    +0.000 A 
ATOM      3  N   UNL     1       2.893   4.385  20.645  0.00  0.00    +0.000 NA
ATOM      4  C   UNL     1       3.601   4.521  19.547  0.00  0.00    +0.000 A 
ATOM      5  C   UNL     1       4.496   5.582  19.186  0.00  0.00    +0.000 A 
ATOM      6  N   UNL     1       5.134   5.589  18.045  0.00  0.00    +0.000 NA
ATOM      7  C   UNL     1       4.916   4.526  17.180  0.00  0.00    +0.000 A 
ATOM      8  C   UNL     1       4.093   3.492  17.452  0.00  0.00    +0.000 A 
ATOM      9  N   UNL     1       3.421   3.489  18.663  0.00  0.00    +0.000 N 
ATOM     10  C   UNL     1       2.525   2.618  19.245  0.00  0.00    +0.000 A 
ENDROOT
BRANCH   7  11
ATOM     11  C   UNL     1       5.610   4.537  15.883  0.00  0.00    +0.000 A 
ATOM     12  C   UNL     1       5.023   3.927  14.768  0.00  0.00    +0.000 A 
ATOM     13  C   UNL     1       5.693   3.902  13.543  0.00  0.00    +0.000 A 
ATOM     14  C   UNL     1       6.953   4.488  13.426  0.00  0.00    +0.000 A 
ATOM     15  C   UNL     1       7.542   5.105  14.530  0.00  0.00    +0.000 A 
ATOM     16  C   UNL     1       6.873   5.130  15.756  0.00  0.00    +0.000 A 
ENDBRANCH   7  11
BRANCH  10  17
ATOM     17  O   UNL     1       2.094   1.485  18.695  0.00  0.00    +0.000 OA
ATOM     18  H   UNL     1       2.564   1.317  17.861  0.00  0.00    +0.000 HD
ENDBRANCH  10  17
TORSDOF 2
ENDMDL
