MODEL 1
REMARK VINA RESULT:      -7.7      0.000      0.000
REMARK  Name = 
REMARK  6 active torsions:
REMARK  status: ('A' for Active; 'I' for Inactive)
REMARK    1  A    between atoms: C_2  and  O_3
REMARK    2  A    between atoms: C_2  and  C_4
REMARK    3  A    between atoms: C_5  and  C_6
REMARK    4  A    between atoms: C_15  and  C_16
REMARK    5  A    between atoms: N_22  and  C_23
REMARK    6  A    between atoms: C_23  and  C_24
REMARK                            x       y       z     vdW  Elec       q    Type
REMARK                         _______ _______ _______ _____ _____    ______ ____
ROOT
ATOM      1  C   UNL     1       4.156   5.273  18.390  0.00  0.00    +0.000 A 
ATOM      2  C   UNL     1       2.988   5.494  19.119  0.00  0.00    +0.000 A 
ATOM      3  C   UNL     1       2.551   6.834  18.908  0.00  0.00    +0.000 A 
ATOM      4  C   UNL     1       1.478   7.620  19.399  0.00  0.00    +0.000 A 
ATOM      5  C   UNL     1       1.294   8.953  18.977  0.00  0.00    +0.000 A 
ATOM      6  C   UNL     1       2.172   9.450  18.005  0.00  0.00    +0.000 A 
ATOM      7  C   UNL     1       3.243   8.704  17.512  0.00  0.00    +0.000 A 
ATOM      8  C   UNL     1       3.436   7.405  17.996  0.00  0.00    +0.000 A 
ATOM      9  N   UNL     1       4.445   6.477  17.759  0.00  0.00    +0.000 N 
ENDROOT
BRANCH   2  10
ATOM     10  C   UNL     1       2.333   4.509  19.923  0.00  0.00    +0.000 A 
ATOM     11  C   UNL     1       2.600   4.326  21.237  0.00  0.00    +0.000 A 
ATOM     12  C   UNL     1       1.944   3.299  22.011  0.00  0.00    +0.000 A 
ATOM     13  C   UNL     1       1.037   2.502  21.433  0.00  0.00    +0.000 A 
ATOM     14  N   UNL     1       0.721   2.665  20.109  0.00  0.00    +0.000 N 
ATOM     15  C   UNL     1       1.307   3.604  19.285  0.00  0.00    +0.000 A 
ATOM     16  O   UNL     1       1.001   3.683  18.097  0.00  0.00    +0.000 OA
ATOM     17  H   UNL     1       0.045   2.058  19.667  0.00  0.00    +0.000 HD
ENDBRANCH   2  10
BRANCH   5  18
ATOM     18  C   UNL     1       0.174   9.819  19.511  0.00  0.00    +0.000 C 
ATOM     19  C   UNL     1      -0.039  11.226  19.004  0.00  0.00    +0.000 C 
ATOM     20  C   UNL     1      -0.994  10.145  18.602  0.00  0.00    +0.000 C 
ENDBRANCH   5  18
BRANCH   1  22
ATOM     21  O   UNL     1       5.913   3.853  19.140  0.00  0.00    +0.000 OA
ATOM     22  C   UNL     1       4.964   4.064  18.399  0.00  0.00    +0.000 C 
BRANCH  22  23
ATOM     23  O   UNL     1       4.557   3.154  17.486  0.00  0.00    +0.000 OA
ATOM     24  H   UNL     1       4.122   3.556  16.716  0.00  0.00    +0.000 HD
ENDBRANCH  22  23
ENDBRANCH   1  22
BRANCH   9  25
ATOM     25  C   UNL     1       5.662   6.798  17.006  0.00  0.00    +0.000 C 
BRANCH  25  26
ATOM     26  C   UNL     1       5.926   5.918  15.811  0.00  0.00    +0.000 A 
ATOM     27  C   UNL     1       5.057   5.846  14.712  0.00  0.00    +0.000 A 
ATOM     28  C   UNL     1       5.272   4.897  13.708  0.00  0.00    +0.000 A 
ATOM     29  C   UNL     1       6.342   4.013  13.809  0.00  0.00    +0.000 A 
ATOM     30  F   UNL     1       6.509   3.071  12.871  0.00  0.00    +0.000 F 
ATOM     31  C   UNL     1       7.227   4.081  14.874  0.00  0.00    +0.000 A 
ATOM     32  C   UNL     1       7.010   5.031  15.863  0.00  0.00    +0.000 A 
ATOM     33  F   UNL     1       7.843   5.072  16.913  0.00  0.00    +0.000 F 
ENDBRANCH  25  26
ENDBRANCH   9  25
TORSDOF 6
ENDMDL
MODEL 2
REMARK VINA RESULT:      -7.4      5.883      9.119
REMARK  Name = 
REMARK  6 active torsions:
REMARK  status: ('A' for Active; 'I' for Inactive)
REMARK    1  A    between atoms: C_2  and  O_3
REMARK    2  A    between atoms: C_2  and  C_4
REMARK    3  A    between atoms: C_5  and  C_6
REMARK    4  A    between atoms: C_15  and  C_16
REMARK    5  A    between atoms: N_22  and  C_23
REMARK    6  A    between atoms: C_23  and  C_24
REMARK                            x       y       z     vdW  Elec       q    Type
REMARK                         _______ _______ _______ _____ _____    ______ ____
ROOT
ATOM      1  C   UNL     1      -1.058  12.171  20.864  0.00  0.00    +0.000 A 
ATOM      2  C   UNL     1      -2.410  12.509  20.871  0.00  0.00    +0.000 A 
ATOM      3  C   UNL     1      -3.002  12.096  19.642  0.00  0.00    +0.000 A 
ATOM      4  C   UNL     1      -4.298  12.200  19.077  0.00  0.00    +0.000 A 
ATOM      5  C   UNL     1      -4.589  11.660  17.807  0.00  0.00    +0.000 A 
ATOM      6  C   UNL     1      -3.566  10.960  17.153  0.00  0.00    +0.000 A 
ATOM      7  C   UNL     1      -2.279  10.851  17.679  0.00  0.00    +0.000 A 
ATOM      8  C   UNL     1      -2.005  11.451  18.914  0.00  0.00    +0.000 A 
ATOM      9  N   UNL     1      -0.819  11.579  19.630  0.00  0.00    +0.000 N 
ENDROOT
BRANCH   2  10
ATOM     10  C   UNL     1      -3.085  13.145  21.960  0.00  0.00    +0.000 A 
ATOM     11  C   UNL     1      -3.567  12.470  23.030  0.00  0.00    +0.000 A 
ATOM     12  C   UNL     1      -4.272  13.140  24.096  0.00  0.00    +0.000 A 
ATOM     13  C   UNL     1      -4.459  14.465  24.047  0.00  0.00    +0.000 A 
ATOM     14  N   UNL     1      -3.971  15.190  22.991  0.00  0.00    +0.000 N 
ATOM     15  C   UNL     1      -3.301  14.638  21.919  0.00  0.00    +0.000 A 
ATOM     16  O   UNL     1      -2.912  15.338  20.987  0.00  0.00    +0.000 OA
ATOM     17  H   UNL     1      -4.120  16.189  22.946  0.00  0.00    +0.000 HD
ENDBRANCH   2  10
BRANCH   5  18
ATOM     18  C   UNL     1      -5.957  11.786  17.172  0.00  0.00    +0.000 C 
ATOM     19  C   UNL     1      -7.153  12.246  17.971  0.00  0.00    +0.000 C 
ATOM     20  C   UNL     1      -6.541  13.168  16.963  0.00  0.00    +0.000 C 
ENDBRANCH   5  18
BRANCH   1  22
ATOM     21  O   UNL     1       0.686  13.443  21.868  0.00  0.00    +0.000 OA
ATOM     22  C   UNL     1      -0.082  12.493  21.893  0.00  0.00    +0.000 C 
BRANCH  22  23
ATOM     23  O   UNL     1      -0.101  11.619  22.926  0.00  0.00    +0.000 OA
ATOM     24  H   UNL     1       0.277  10.754  22.699  0.00  0.00    +0.000 HD
ENDBRANCH  22  23
ENDBRANCH   1  22
BRANCH   9  25
ATOM     25  C   UNL     1       0.487  11.199  19.082  0.00  0.00    +0.000 C 
BRANCH  25  26
ATOM     26  C   UNL     1       0.916   9.783  19.373  0.00  0.00    +0.000 A 
ATOM     27  C   UNL     1       0.700   9.163  20.613  0.00  0.00    +0.000 A 
ATOM     28  C   UNL     1       1.259   7.908  20.876  0.00  0.00    +0.000 A 
ATOM     29  C   UNL     1       2.041   7.283  19.911  0.00  0.00    +0.000 A 
ATOM     30  F   UNL     1       2.618   6.107  20.191  0.00  0.00    +0.000 F 
ATOM     31  C   UNL     1       2.248   7.867  18.670  0.00  0.00    +0.000 A 
ATOM     32  C   UNL     1       1.684   9.109  18.415  0.00  0.00    +0.000 A 
ATOM     33  F   UNL     1       1.915   9.691  17.229  0.00  0.00    +0.000 F 
ENDBRANCH  25  26
ENDBRANCH   9  25
TORSDOF 6
ENDMDL
MODEL 3
REMARK VINA RESULT:      -7.3      1.848      3.018
REMARK  Name = 
REMARK  6 active torsions:
REMARK  status: ('A' for Active; 'I' for Inactive)
REMARK    1  A    between atoms: C_2  and  O_3
REMARK    2  A    between atoms: C_2  and  C_4
REMARK    3  A    between atoms: C_5  and  C_6
REMARK    4  A    between atoms: C_15  and  C_16
REMARK    5  A    between atoms: N_22  and  C_23
REMARK    6  A    between atoms: C_23  and  C_24
REMARK                            x       y       z     vdW  Elec       q    Type
REMARK                         _______ _______ _______ _____ _____    ______ ____
ROOT
ATOM      1  C   UNL     1       4.213   5.189  18.217  0.00  0.00    +0.000 A 
ATOM      2  C   UNL     1       3.053   5.438  18.949  0.00  0.00    +0.000 A 
ATOM      3  C   UNL     1       2.646   6.787  18.738  0.00  0.00    +0.000 A 
ATOM      4  C   UNL     1       1.592   7.598  19.231  0.00  0.00    +0.000 A 
ATOM      5  C   UNL     1       1.437   8.935  18.809  0.00  0.00    +0.000 A 
ATOM      6  C   UNL     1       2.324   9.410  17.834  0.00  0.00    +0.000 A 
ATOM      7  C   UNL     1       3.376   8.640  17.338  0.00  0.00    +0.000 A 
ATOM      8  C   UNL     1       3.541   7.337  17.823  0.00  0.00    +0.000 A 
ATOM      9  N   UNL     1       4.527   6.386  17.584  0.00  0.00    +0.000 N 
ENDROOT
BRANCH   2  10
ATOM     10  C   UNL     1       2.377   4.469  19.756  0.00  0.00    +0.000 A 
ATOM     11  C   UNL     1       2.632   4.293  21.073  0.00  0.00    +0.000 A 
ATOM     12  C   UNL     1       1.955   3.282  21.850  0.00  0.00    +0.000 A 
ATOM     13  C   UNL     1       1.042   2.493  21.271  0.00  0.00    +0.000 A 
ATOM     14  N   UNL     1       0.739   2.649  19.944  0.00  0.00    +0.000 N 
ATOM     15  C   UNL     1       1.344   3.573  19.117  0.00  0.00    +0.000 A 
ATOM     16  O   UNL     1       1.050   3.645  17.926  0.00  0.00    +0.000 OA
ATOM     17  H   UNL     1       0.058   2.047  19.501  0.00  0.00    +0.000 HD
ENDBRANCH   2  10
BRANCH   5  18
ATOM     18  C   UNL     1       0.339   9.826  19.345  0.00  0.00    +0.000 C 
ATOM     19  C   UNL     1      -0.230   9.624  20.729  0.00  0.00    +0.000 C 
ATOM     20  C   UNL     1       0.664  10.795  20.464  0.00  0.00    +0.000 C 
ENDBRANCH   5  18
BRANCH   1  22
ATOM     21  O   UNL     1       5.617   3.527  19.181  0.00  0.00    +0.000 OA
ATOM     22  C   UNL     1       4.994   3.963  18.225  0.00  0.00    +0.000 C 
BRANCH  22  23
ATOM     23  O   UNL     1       4.965   3.315  17.038  0.00  0.00    +0.000 OA
ATOM     24  H   UNL     1       5.733   2.736  16.902  0.00  0.00    +0.000 HD
ENDBRANCH  22  23
ENDBRANCH   1  22
BRANCH   9  25
ATOM     25  C   UNL     1       5.749   6.679  16.827  0.00  0.00    +0.000 C 
BRANCH  25  26
ATOM     26  C   UNL     1       6.740   7.571  17.531  0.00  0.00    +0.000 A 
ATOM     27  C   UNL     1       6.862   8.941  17.253  0.00  0.00    +0.000 A 
ATOM     28  C   UNL     1       7.903   9.682  17.820  0.00  0.00    +0.000 A 
ATOM     29  C   UNL     1       8.826   9.055  18.650  0.00  0.00    +0.000 A 
ATOM     30  F   UNL     1       9.852   9.760  19.146  0.00  0.00    +0.000 F 
ATOM     31  C   UNL     1       8.712   7.708  18.958  0.00  0.00    +0.000 A 
ATOM     32  C   UNL     1       7.671   6.981  18.396  0.00  0.00    +0.000 A 
ATOM     33  F   UNL     1       7.583   5.670  18.662  0.00  0.00    +0.000 F 
ENDBRANCH  25  26
ENDBRANCH   9  25
TORSDOF 6
ENDMDL
MODEL 4
REMARK VINA RESULT:      -7.3      3.302      6.607
REMARK  Name = 
REMARK  6 active torsions:
REMARK  status: ('A' for Active; 'I' for Inactive)
REMARK    1  A    between atoms: C_2  and  O_3
REMARK    2  A    between atoms: C_2  and  C_4
REMARK    3  A    between atoms: C_5  and  C_6
REMARK    4  A    between atoms: C_15  and  C_16
REMARK    5  A    between atoms: N_22  and  C_23
REMARK    6  A    between atoms: C_23  and  C_24
REMARK                            x       y       z     vdW  Elec       q    Type
REMARK                         _______ _______ _______ _____ _____    ______ ____
ROOT
ATOM      1  C   UNL     1       2.086   7.207  19.720  0.00  0.00    +0.000 A 
ATOM      2  C   UNL     1       2.470   5.906  19.394  0.00  0.00    +0.000 A 
ATOM      3  C   UNL     1       3.287   5.937  18.227  0.00  0.00    +0.000 A 
ATOM      4  C   UNL     1       3.920   4.951  17.429  0.00  0.00    +0.000 A 
ATOM      5  C   UNL     1       4.702   5.306  16.309  0.00  0.00    +0.000 A 
ATOM      6  C   UNL     1       4.882   6.672  16.055  0.00  0.00    +0.000 A 
ATOM      7  C   UNL     1       4.263   7.664  16.816  0.00  0.00    +0.000 A 
ATOM      8  C   UNL     1       3.443   7.278  17.883  0.00  0.00    +0.000 A 
ATOM      9  N   UNL     1       2.645   8.023  18.744  0.00  0.00    +0.000 N 
ENDROOT
BRANCH   2  10
ATOM     10  C   UNL     1       2.111   4.741  20.142  0.00  0.00    +0.000 A 
ATOM     11  C   UNL     1       2.569   4.490  21.390  0.00  0.00    +0.000 A 
ATOM     12  C   UNL     1       2.212   3.287  22.104  0.00  0.00    +0.000 A 
ATOM     13  C   UNL     1       1.403   2.386  21.534  0.00  0.00    +0.000 A 
ATOM     14  N   UNL     1       0.901   2.608  20.278  0.00  0.00    +0.000 N 
ATOM     15  C   UNL     1       1.197   3.717  19.513  0.00  0.00    +0.000 A 
ATOM     16  O   UNL     1       0.738   3.846  18.380  0.00  0.00    +0.000 OA
ATOM     17  H   UNL     1       0.298   1.925  19.841  0.00  0.00    +0.000 HD
ENDBRANCH   2  10
BRANCH   5  18
ATOM     18  C   UNL     1       5.362   4.270  15.427  0.00  0.00    +0.000 C 
ATOM     19  C   UNL     1       6.284   4.671  14.300  0.00  0.00    +0.000 C 
ATOM     20  C   UNL     1       6.858   4.059  15.541  0.00  0.00    +0.000 C 
ENDBRANCH   5  18
BRANCH   1  22
ATOM     21  O   UNL     1      -0.015   7.371  20.823  0.00  0.00    +0.000 OA
ATOM     22  C   UNL     1       1.184   7.599  20.790  0.00  0.00    +0.000 C 
BRANCH  22  23
ATOM     23  O   UNL     1       1.812   8.260  21.790  0.00  0.00    +0.000 OA
ATOM     24  H   UNL     1       1.387   9.104  22.014  0.00  0.00    +0.000 HD
ENDBRANCH  22  23
ENDBRANCH   1  22
BRANCH   9  25
ATOM     25  C   UNL     1       2.396   9.457  18.559  0.00  0.00    +0.000 C 
BRANCH  25  26
ATOM     26  C   UNL     1       0.944   9.863  18.578  0.00  0.00    +0.000 A 
ATOM     27  C   UNL     1       0.021   9.432  17.613  0.00  0.00    +0.000 A 
ATOM     28  C   UNL     1      -1.271   9.966  17.591  0.00  0.00    +0.000 A 
ATOM     29  C   UNL     1      -1.635  10.936  18.519  0.00  0.00    +0.000 A 
ATOM     30  F   UNL     1      -2.857  11.482  18.457  0.00  0.00    +0.000 F 
ATOM     31  C   UNL     1      -0.747  11.360  19.496  0.00  0.00    +0.000 A 
ATOM     32  C   UNL     1       0.532  10.819  19.516  0.00  0.00    +0.000 A 
ATOM     33  F   UNL     1       1.403  11.256  20.436  0.00  0.00    +0.000 F 
ENDBRANCH  25  26
ENDBRANCH   9  25
TORSDOF 6
ENDMDL
MODEL 5
REMARK VINA RESULT:      -7.1      4.864      8.080
REMARK  Name = 
REMARK  6 active torsions:
REMARK  status: ('A' for Active; 'I' for Inactive)
REMARK    1  A    between atoms: C_2  and  O_3
REMARK    2  A    between atoms: C_2  and  C_4
REMARK    3  A    between atoms: C_5  and  C_6
REMARK    4  A    between atoms: C_15  and  C_16
REMARK    5  A    between atoms: N_22  and  C_23
REMARK    6  A    between atoms: C_23  and  C_24
REMARK                            x       y       z     vdW  Elec       q    Type
REMARK                         _______ _______ _______ _____ _____    ______ ____
ROOT
ATOM      1  C   UNL     1       0.024  11.535  20.127  0.00  0.00    +0.000 A 
ATOM      2  C   UNL     1      -1.272  12.042  20.212  0.00  0.00    +0.000 A 
ATOM      3  C   UNL     1      -2.043  11.540  19.124  0.00  0.00    +0.000 A 
ATOM      4  C   UNL     1      -3.376  11.730  18.678  0.00  0.00    +0.000 A 
ATOM      5  C   UNL     1      -3.870  11.058  17.540  0.00  0.00    +0.000 A 
ATOM      6  C   UNL     1      -3.015  10.147  16.906  0.00  0.00    +0.000 A 
ATOM      7  C   UNL     1      -1.696   9.948  17.316  0.00  0.00    +0.000 A 
ATOM      8  C   UNL     1      -1.216  10.675  18.412  0.00  0.00    +0.000 A 
ATOM      9  N   UNL     1       0.050  10.749  18.981  0.00  0.00    +0.000 N 
ENDROOT
BRANCH   2  10
ATOM     10  C   UNL     1      -1.740  12.907  21.250  0.00  0.00    +0.000 A 
ATOM     11  C   UNL     1      -2.014  14.218  21.058  0.00  0.00    +0.000 A 
ATOM     12  C   UNL     1      -2.453  15.070  22.137  0.00  0.00    +0.000 A 
ATOM     13  C   UNL     1      -2.606  14.566  23.368  0.00  0.00    +0.000 A 
ATOM     14  N   UNL     1      -2.358  13.239  23.604  0.00  0.00    +0.000 N 
ATOM     15  C   UNL     1      -1.919  12.352  22.643  0.00  0.00    +0.000 A 
ATOM     16  O   UNL     1      -1.686  11.179  22.924  0.00  0.00    +0.000 OA
ATOM     17  H   UNL     1      -2.463  12.859  24.535  0.00  0.00    +0.000 HD
ENDBRANCH   2  10
BRANCH   5  18
ATOM     18  C   UNL     1      -5.278  11.269  17.029  0.00  0.00    +0.000 C 
ATOM     19  C   UNL     1      -6.432  11.489  17.978  0.00  0.00    +0.000 C 
ATOM     20  C   UNL     1      -5.911  12.639  17.172  0.00  0.00    +0.000 C 
ENDBRANCH   5  18
BRANCH   1  22
ATOM     21  O   UNL     1       1.859  12.851  20.878  0.00  0.00    +0.000 OA
ATOM     22  C   UNL     1       1.142  11.869  20.995  0.00  0.00    +0.000 C 
BRANCH  22  23
ATOM     23  O   UNL     1       1.323  10.969  21.987  0.00  0.00    +0.000 OA
ATOM     24  H   UNL     1       1.361  11.376  22.869  0.00  0.00    +0.000 HD
ENDBRANCH  22  23
ENDBRANCH   1  22
BRANCH   9  25
ATOM     25  C   UNL     1       1.234  10.129  18.375  0.00  0.00    +0.000 C 
BRANCH  25  26
ATOM     26  C   UNL     1       1.566   8.750  18.884  0.00  0.00    +0.000 A 
ATOM     27  C   UNL     1       1.222   8.311  20.172  0.00  0.00    +0.000 A 
ATOM     28  C   UNL     1       1.694   7.083  20.644  0.00  0.00    +0.000 A 
ATOM     29  C   UNL     1       2.519   6.304  19.840  0.00  0.00    +0.000 A 
ATOM     30  F   UNL     1       3.012   5.154  20.321  0.00  0.00    +0.000 F 
ATOM     31  C   UNL     1       2.854   6.706  18.556  0.00  0.00    +0.000 A 
ATOM     32  C   UNL     1       2.374   7.924  18.092  0.00  0.00    +0.000 A 
ATOM     33  F   UNL     1       2.728   8.331  16.865  0.00  0.00    +0.000 F 
ENDBRANCH  25  26
ENDBRANCH   9  25
TORSDOF 6
ENDMDL
MODEL 6
REMARK VINA RESULT:      -7.1      6.292      9.862
REMARK  Name = 
REMARK  6 active torsions:
REMARK  status: ('A' for Active; 'I' for Inactive)
REMARK    1  A    between atoms: C_2  and  O_3
REMARK    2  A    between atoms: C_2  and  C_4
REMARK    3  A    between atoms: C_5  and  C_6
REMARK    4  A    between atoms: C_15  and  C_16
REMARK    5  A    between atoms: N_22  and  C_23
REMARK    6  A    between atoms: C_23  and  C_24
REMARK                            x       y       z     vdW  Elec       q    Type
REMARK                         _______ _______ _______ _____ _____    ______ ____
ROOT
ATOM      1  C   UNL     1      -1.548  12.831  21.044  0.00  0.00    +0.000 A 
ATOM      2  C   UNL     1      -2.891  13.203  21.090  0.00  0.00    +0.000 A 
ATOM      3  C   UNL     1      -3.566  12.666  19.956  0.00  0.00    +0.000 A 
ATOM      4  C   UNL     1      -4.893  12.739  19.461  0.00  0.00    +0.000 A 
ATOM      5  C   UNL     1      -5.273  12.063  18.283  0.00  0.00    +0.000 A 
ATOM      6  C   UNL     1      -4.307  11.264  17.657  0.00  0.00    +0.000 A 
ATOM      7  C   UNL     1      -2.991  11.181  18.115  0.00  0.00    +0.000 A 
ATOM      8  C   UNL     1      -2.629  11.914  19.252  0.00  0.00    +0.000 A 
ATOM      9  N   UNL     1      -1.399  12.092  19.876  0.00  0.00    +0.000 N 
ENDROOT
BRANCH   2  10
ATOM     10  C   UNL     1      -3.483  13.980  22.135  0.00  0.00    +0.000 A 
ATOM     11  C   UNL     1      -3.659  15.320  22.056  0.00  0.00    +0.000 A 
ATOM     12  C   UNL     1      -4.230  16.077  23.144  0.00  0.00    +0.000 A 
ATOM     13  C   UNL     1      -4.608  15.455  24.267  0.00  0.00    +0.000 A 
ATOM     14  N   UNL     1      -4.466  14.097  24.383  0.00  0.00    +0.000 N 
ATOM     15  C   UNL     1      -3.916  13.291  23.407  0.00  0.00    +0.000 A 
ATOM     16  O   UNL     1      -3.789  12.082  23.582  0.00  0.00    +0.000 OA
ATOM     17  H   UNL     1      -4.741  13.625  25.234  0.00  0.00    +0.000 HD
ENDBRANCH   2  10
BRANCH   5  18
ATOM     18  C   UNL     1      -6.674  12.151  17.720  0.00  0.00    +0.000 C 
ATOM     19  C   UNL     1      -7.699  13.090  18.311  0.00  0.00    +0.000 C 
ATOM     20  C   UNL     1      -7.088  13.408  16.982  0.00  0.00    +0.000 C 
ENDBRANCH   5  18
BRANCH   1  22
ATOM     21  O   UNL     1      -0.246  12.700  23.031  0.00  0.00    +0.000 OA
ATOM     22  C   UNL     1      -0.504  13.243  21.967  0.00  0.00    +0.000 C 
BRANCH  22  23
ATOM     23  O   UNL     1       0.189  14.319  21.530  0.00  0.00    +0.000 OA
ATOM     24  H   UNL     1       0.897  14.087  20.906  0.00  0.00    +0.000 HD
ENDBRANCH  22  23
ENDBRANCH   1  22
BRANCH   9  25
ATOM     25  C   UNL     1      -0.137  11.615  19.300  0.00  0.00    +0.000 C 
BRANCH  25  26
ATOM     26  C   UNL     1       0.284  10.235  19.736  0.00  0.00    +0.000 A 
ATOM     27  C   UNL     1      -0.098   9.676  20.965  0.00  0.00    +0.000 A 
ATOM     28  C   UNL     1       0.451   8.460  21.384  0.00  0.00    +0.000 A 
ATOM     29  C   UNL     1       1.389   7.813  20.586  0.00  0.00    +0.000 A 
ATOM     30  F   UNL     1       1.951   6.677  21.020  0.00  0.00    +0.000 F 
ATOM     31  C   UNL     1       1.764   8.335  19.358  0.00  0.00    +0.000 A 
ATOM     32  C   UNL     1       1.208   9.539  18.946  0.00  0.00    +0.000 A 
ATOM     33  F   UNL     1       1.599  10.063  17.776  0.00  0.00    +0.000 F 
ENDBRANCH  25  26
ENDBRANCH   9  25
TORSDOF 6
ENDMDL
MODEL 7
REMARK VINA RESULT:      -7.0      5.217      8.327
REMARK  Name = 
REMARK  6 active torsions:
REMARK  status: ('A' for Active; 'I' for Inactive)
REMARK    1  A    between atoms: C_2  and  O_3
REMARK    2  A    between atoms: C_2  and  C_4
REMARK    3  A    between atoms: C_5  and  C_6
REMARK    4  A    between atoms: C_15  and  C_16
REMARK    5  A    between atoms: N_22  and  C_23
REMARK    6  A    between atoms: C_23  and  C_24
REMARK                            x       y       z     vdW  Elec       q    Type
REMARK                         _______ _______ _______ _____ _____    ______ ____
ROOT
ATOM      1  C   UNL     1      -0.297  11.529  20.338  0.00  0.00    +0.000 A 
ATOM      2  C   UNL     1      -1.607  12.004  20.406  0.00  0.00    +0.000 A 
ATOM      3  C   UNL     1      -2.317  11.585  19.244  0.00  0.00    +0.000 A 
ATOM      4  C   UNL     1      -3.632  11.789  18.754  0.00  0.00    +0.000 A 
ATOM      5  C   UNL     1      -4.059  11.212  17.540  0.00  0.00    +0.000 A 
ATOM      6  C   UNL     1      -3.156  10.375  16.870  0.00  0.00    +0.000 A 
ATOM      7  C   UNL     1      -1.854  10.164  17.323  0.00  0.00    +0.000 A 
ATOM      8  C   UNL     1      -1.439  10.801  18.499  0.00  0.00    +0.000 A 
ATOM      9  N   UNL     1      -0.202  10.847  19.131  0.00  0.00    +0.000 N 
ENDROOT
BRANCH   2  10
ATOM     10  C   UNL     1      -2.140  12.765  21.492  0.00  0.00    +0.000 A 
ATOM     11  C   UNL     1      -2.696  12.204  22.591  0.00  0.00    +0.000 A 
ATOM     12  C   UNL     1      -3.256  13.004  23.654  0.00  0.00    +0.000 A 
ATOM     13  C   UNL     1      -3.228  14.339  23.573  0.00  0.00    +0.000 A 
ATOM     14  N   UNL     1      -2.658  14.951  22.487  0.00  0.00    +0.000 N 
ATOM     15  C   UNL     1      -2.114  14.273  21.415  0.00  0.00    +0.000 A 
ATOM     16  O   UNL     1      -1.643  14.879  20.455  0.00  0.00    +0.000 OA
ATOM     17  H   UNL     1      -2.645  15.959  22.417  0.00  0.00    +0.000 HD
ENDBRANCH   2  10
BRANCH   5  18
ATOM     18  C   UNL     1      -5.447  11.441  16.983  0.00  0.00    +0.000 C 
ATOM     19  C   UNL     1      -6.630  11.665  17.894  0.00  0.00    +0.000 C 
ATOM     20  C   UNL     1      -6.070  12.816  17.117  0.00  0.00    +0.000 C 
ENDBRANCH   5  18
BRANCH   1  22
ATOM     21  O   UNL     1       1.560  12.737  21.208  0.00  0.00    +0.000 OA
ATOM     22  C   UNL     1       0.772  11.807  21.283  0.00  0.00    +0.000 C 
BRANCH  22  23
ATOM     23  O   UNL     1       0.819  10.914  22.299  0.00  0.00    +0.000 OA
ATOM     24  H   UNL     1       0.266  10.131  22.143  0.00  0.00    +0.000 HD
ENDBRANCH  22  23
ENDBRANCH   1  22
BRANCH   9  25
ATOM     25  C   UNL     1       1.021  10.305  18.530  0.00  0.00    +0.000 C 
BRANCH  25  26
ATOM     26  C   UNL     1       1.402   8.921  18.991  0.00  0.00    +0.000 A 
ATOM     27  C   UNL     1       1.101   8.437  20.273  0.00  0.00    +0.000 A 
ATOM     28  C   UNL     1       1.617   7.209  20.698  0.00  0.00    +0.000 A 
ATOM     29  C   UNL     1       2.441   6.474  19.851  0.00  0.00    +0.000 A 
ATOM     30  F   UNL     1       2.975   5.325  20.286  0.00  0.00    +0.000 F 
ATOM     31  C   UNL     1       2.732   6.922  18.572  0.00  0.00    +0.000 A 
ATOM     32  C   UNL     1       2.209   8.139  18.155  0.00  0.00    +0.000 A 
ATOM     33  F   UNL     1       2.522   8.590  16.932  0.00  0.00    +0.000 F 
ENDBRANCH  25  26
ENDBRANCH   9  25
TORSDOF 6
ENDMDL
MODEL 8
REMARK VINA RESULT:      -7.0      5.821      9.719
REMARK  Name = 
REMARK  6 active torsions:
REMARK  status: ('A' for Active; 'I' for Inactive)
REMARK    1  A    between atoms: C_2  and  O_3
REMARK    2  A    between atoms: C_2  and  C_4
REMARK    3  A    between atoms: C_5  and  C_6
REMARK    4  A    between atoms: C_15  and  C_16
REMARK    5  A    between atoms: N_22  and  C_23
REMARK    6  A    between atoms: C_23  and  C_24
REMARK                            x       y       z     vdW  Elec       q    Type
REMARK                         _______ _______ _______ _____ _____    ______ ____
ROOT
ATOM      1  C   UNL     1       0.031  11.402  20.155  0.00  0.00    +0.000 A 
ATOM      2  C   UNL     1       0.031  10.367  19.221  0.00  0.00    +0.000 A 
ATOM      3  C   UNL     1      -1.072  10.536  18.335  0.00  0.00    +0.000 A 
ATOM      4  C   UNL     1      -1.591   9.800  17.240  0.00  0.00    +0.000 A 
ATOM      5  C   UNL     1      -2.724  10.247  16.528  0.00  0.00    +0.000 A 
ATOM      6  C   UNL     1      -3.277  11.479  16.902  0.00  0.00    +0.000 A 
ATOM      7  C   UNL     1      -2.794  12.220  17.981  0.00  0.00    +0.000 A 
ATOM      8  C   UNL     1      -1.707  11.719  18.707  0.00  0.00    +0.000 A 
ATOM      9  N   UNL     1      -1.079  12.183  19.857  0.00  0.00    +0.000 N 
ENDROOT
BRANCH   2  10
ATOM     10  C   UNL     1       1.009   9.325  19.161  0.00  0.00    +0.000 A 
ATOM     11  C   UNL     1       1.873   9.175  18.130  0.00  0.00    +0.000 A 
ATOM     12  C   UNL     1       2.825   8.091  18.087  0.00  0.00    +0.000 A 
ATOM     13  C   UNL     1       2.875   7.204  19.088  0.00  0.00    +0.000 A 
ATOM     14  N   UNL     1       2.032   7.329  20.162  0.00  0.00    +0.000 N 
ATOM     15  C   UNL     1       1.078   8.319  20.284  0.00  0.00    +0.000 A 
ATOM     16  O   UNL     1       0.331   8.360  21.259  0.00  0.00    +0.000 OA
ATOM     17  H   UNL     1       2.060   6.654  20.914  0.00  0.00    +0.000 HD
ENDBRANCH   2  10
BRANCH   5  18
ATOM     18  C   UNL     1      -3.312   9.462  15.376  0.00  0.00    +0.000 C 
ATOM     19  C   UNL     1      -4.185  10.127  14.339  0.00  0.00    +0.000 C 
ATOM     20  C   UNL     1      -2.792   9.716  13.976  0.00  0.00    +0.000 C 
ENDBRANCH   5  18
BRANCH   1  22
ATOM     21  O   UNL     1       1.951  12.233  21.289  0.00  0.00    +0.000 OA
ATOM     22  C   UNL     1       0.939  11.550  21.281  0.00  0.00    +0.000 C 
BRANCH  22  23
ATOM     23  O   UNL     1       0.548  10.842  22.366  0.00  0.00    +0.000 OA
ATOM     24  H   UNL     1       1.270  10.328  22.765  0.00  0.00    +0.000 HD
ENDBRANCH  22  23
ENDBRANCH   1  22
BRANCH   9  25
ATOM     25  C   UNL     1      -1.600  13.299  20.654  0.00  0.00    +0.000 C 
BRANCH  25  26
ATOM     26  C   UNL     1      -2.740  12.949  21.577  0.00  0.00    +0.000 A 
ATOM     27  C   UNL     1      -4.072  12.864  21.143  0.00  0.00    +0.000 A 
ATOM     28  C   UNL     1      -5.103  12.693  22.071  0.00  0.00    +0.000 A 
ATOM     29  C   UNL     1      -4.807  12.622  23.428  0.00  0.00    +0.000 A 
ATOM     30  F   UNL     1      -5.805  12.513  24.315  0.00  0.00    +0.000 F 
ATOM     31  C   UNL     1      -3.497  12.680  23.879  0.00  0.00    +0.000 A 
ATOM     32  C   UNL     1      -2.478  12.842  22.949  0.00  0.00    +0.000 A 
ATOM     33  F   UNL     1      -1.215  12.937  23.387  0.00  0.00    +0.000 F 
ENDBRANCH  25  26
ENDBRANCH   9  25
TORSDOF 6
ENDMDL
MODEL 9
REMARK VINA RESULT:      -7.0      5.295      8.713
REMARK  Name = 
REMARK  6 active torsions:
REMARK  status: ('A' for Active; 'I' for Inactive)
REMARK    1  A    between atoms: C_2  and  O_3
REMARK    2  A    between atoms: C_2  and  C_4
REMARK    3  A    between atoms: C_5  and  C_6
REMARK    4  A    between atoms: C_15  and  C_16
REMARK    5  A    between atoms: N_22  and  C_23
REMARK    6  A    between atoms: C_23  and  C_24
REMARK                            x       y       z     vdW  Elec       q    Type
REMARK                         _______ _______ _______ _____ _____    ______ ____
ROOT
ATOM      1  C   UNL     1       0.175  12.299  19.704  0.00  0.00    +0.000 A 
ATOM      2  C   UNL     1      -1.125  12.799  19.768  0.00  0.00    +0.000 A 
ATOM      3  C   UNL     1      -1.980  11.988  18.968  0.00  0.00    +0.000 A 
ATOM      4  C   UNL     1      -3.356  12.025  18.627  0.00  0.00    +0.000 A 
ATOM      5  C   UNL     1      -3.933  11.038  17.800  0.00  0.00    +0.000 A 
ATOM      6  C   UNL     1      -3.110   9.984  17.383  0.00  0.00    +0.000 A 
ATOM      7  C   UNL     1      -1.751   9.927  17.693  0.00  0.00    +0.000 A 
ATOM      8  C   UNL     1      -1.194  10.954  18.464  0.00  0.00    +0.000 A 
ATOM      9  N   UNL     1       0.118  11.204  18.850  0.00  0.00    +0.000 N 
ENDROOT
BRANCH   2  10
ATOM     10  C   UNL     1      -1.522  13.934  20.543  0.00  0.00    +0.000 A 
ATOM     11  C   UNL     1      -2.204  13.836  21.709  0.00  0.00    +0.000 A 
ATOM     12  C   UNL     1      -2.618  15.004  22.448  0.00  0.00    +0.000 A 
ATOM     13  C   UNL     1      -2.324  16.226  21.989  0.00  0.00    +0.000 A 
ATOM     14  N   UNL     1      -1.618  16.372  20.823  0.00  0.00    +0.000 N 
ATOM     15  C   UNL     1      -1.195  15.319  20.039  0.00  0.00    +0.000 A 
ATOM     16  O   UNL     1      -0.591  15.515  18.987  0.00  0.00    +0.000 OA
ATOM     17  H   UNL     1      -1.404  17.294  20.468  0.00  0.00    +0.000 HD
ENDBRANCH   2  10
BRANCH   5  18
ATOM     18  C   UNL     1      -5.391  11.076  17.400  0.00  0.00    +0.000 C 
ATOM     19  C   UNL     1      -6.481  11.286  18.424  0.00  0.00    +0.000 C 
ATOM     20  C   UNL     1      -6.137  12.393  17.477  0.00  0.00    +0.000 C 
ENDBRANCH   5  18
BRANCH   1  22
ATOM     21  O   UNL     1       1.860  12.536  21.367  0.00  0.00    +0.000 OA
ATOM     22  C   UNL     1       1.358  12.887  20.310  0.00  0.00    +0.000 C 
BRANCH  22  23
ATOM     23  O   UNL     1       1.881  13.892  19.572  0.00  0.00    +0.000 OA
ATOM     24  H   UNL     1       2.120  13.618  18.671  0.00  0.00    +0.000 HD
ENDBRANCH  22  23
ENDBRANCH   1  22
BRANCH   9  25
ATOM     25  C   UNL     1       1.260  10.439  18.336  0.00  0.00    +0.000 C 
BRANCH  25  26
ATOM     26  C   UNL     1       1.460   9.085  18.969  0.00  0.00    +0.000 A 
ATOM     27  C   UNL     1       1.066   8.795  20.285  0.00  0.00    +0.000 A 
ATOM     28  C   UNL     1       1.420   7.576  20.870  0.00  0.00    +0.000 A 
ATOM     29  C   UNL     1       2.175   6.656  20.150  0.00  0.00    +0.000 A 
ATOM     30  F   UNL     1       2.556   5.513  20.737  0.00  0.00    +0.000 F 
ATOM     31  C   UNL     1       2.555   6.911  18.841  0.00  0.00    +0.000 A 
ATOM     32  C   UNL     1       2.193   8.122  18.265  0.00  0.00    +0.000 A 
ATOM     33  F   UNL     1       2.593   8.385  17.013  0.00  0.00    +0.000 F 
ENDBRANCH  25  26
ENDBRANCH   9  25
TORSDOF 6
ENDMDL
