MODEL 1
REMARK VINA RESULT:      -8.1      0.000      0.000
REMARK  Name = 
REMARK  2 active torsions:
REMARK  status: ('A' for Active; 'I' for Inactive)
REMARK    1  A    between atoms: C_4  and  C_5
REMARK    2  A    between atoms: C_8  and  N_9
REMARK                            x       y       z     vdW  Elec       q    Type
REMARK                         _______ _______ _______ _____ _____    ______ ____
ROOT
ATOM      1  C   UNL     1       6.179   4.315  15.676  0.00  0.00    +0.000 A 
ATOM      2  C   UNL     1       4.838   3.944  15.853  0.00  0.00    +0.000 A 
ATOM      3  C   UNL     1       4.243   3.904  17.097  0.00  0.00    +0.000 A 
ATOM      4  C   UNL     1       4.979   4.179  18.243  0.00  0.00    +0.000 A 
ATOM      5  C   UNL     1       6.321   4.564  18.080  0.00  0.00    +0.000 A 
ATOM      6  C   UNL     1       6.926   4.629  16.819  0.00  0.00    +0.000 A 
ENDROOT
BRANCH   4   7
ATOM      7  N   UNL     1       4.428   4.080  19.518  0.00  0.00    +0.000 N 
ATOM      8  C   UNL     1       4.205   2.751  20.111  0.00  0.00    +0.000 C 
ATOM      9  C   UNL     1       2.773   2.766  20.614  0.00  0.00    +0.000 C 
ATOM     10  C   UNL     1       1.729   2.328  19.601  0.00  0.00    +0.000 C 
ATOM     11  N   UNL     1       0.514   3.060  19.986  0.00  0.00    +0.000 NA
ATOM     12  C   UNL     1       0.946   4.300  20.655  0.00  0.00    +0.000 C 
ATOM     13  C   UNL     1       2.453   4.234  20.822  0.00  0.00    +0.000 C 
ATOM     14  C   UNL     1       3.246   4.935  19.713  0.00  0.00    +0.000 C 
ATOM     15  H   UNL     1      -0.016   2.496  20.651  0.00  0.00    +0.000 HD
ENDBRANCH   4   7
BRANCH   1  19
ATOM     16  C   UNL     1       7.366   4.771  11.649  0.00  0.00    +0.000 A 
ATOM     17  C   UNL     1       7.970   5.507  12.662  0.00  0.00    +0.000 A 
ATOM     18  C   UNL     1       7.727   5.186  13.985  0.00  0.00    +0.000 A 
ATOM     19  C   UNL     1       6.735   4.263  14.321  0.00  0.00    +0.000 A 
ATOM     20  C   UNL     1       6.173   3.482  13.302  0.00  0.00    +0.000 A 
ATOM     21  C   UNL     1       6.512   3.719  11.971  0.00  0.00    +0.000 A 
ENDBRANCH   1  19
TORSDOF 2
ENDMDL
MODEL 2
REMARK VINA RESULT:      -8.0      4.227      8.498
REMARK  Name = 
REMARK  2 active torsions:
REMARK  status: ('A' for Active; 'I' for Inactive)
REMARK    1  A    between atoms: C_4  and  C_5
REMARK    2  A    between atoms: C_8  and  N_9
REMARK                            x       y       z     vdW  Elec       q    Type
REMARK                         _______ _______ _______ _____ _____    ______ ____
ROOT
ATOM      1  C   UNL     1       1.331   8.888  20.189  0.00  0.00    +0.000 A 
ATOM      2  C   UNL     1       1.747   7.624  20.634  0.00  0.00    +0.000 A 
ATOM      3  C   UNL     1       2.343   6.707  19.793  0.00  0.00    +0.000 A 
ATOM      4  C   UNL     1       2.503   6.985  18.442  0.00  0.00    +0.000 A 
ATOM      5  C   UNL     1       2.102   8.252  17.984  0.00  0.00    +0.000 A 
ATOM      6  C   UNL     1       1.517   9.197  18.836  0.00  0.00    +0.000 A 
ENDROOT
BRANCH   4   7
ATOM      7  N   UNL     1       3.037   6.055  17.553  0.00  0.00    +0.000 N 
ATOM      8  C   UNL     1       2.857   4.617  17.813  0.00  0.00    +0.000 C 
ATOM      9  C   UNL     1       4.238   4.004  17.676  0.00  0.00    +0.000 C 
ATOM     10  C   UNL     1       5.063   3.981  18.952  0.00  0.00    +0.000 C 
ATOM     11  N   UNL     1       6.456   4.053  18.490  0.00  0.00    +0.000 NA
ATOM     12  C   UNL     1       6.450   4.757  17.195  0.00  0.00    +0.000 C 
ATOM     13  C   UNL     1       5.003   4.970  16.791  0.00  0.00    +0.000 C 
ATOM     14  C   UNL     1       4.431   6.339  17.176  0.00  0.00    +0.000 C 
ATOM     15  H   UNL     1       6.807   3.106  18.345  0.00  0.00    +0.000 HD
ENDBRANCH   4   7
BRANCH   1  19
ATOM     16  C   UNL     1      -1.197  10.932  22.884  0.00  0.00    +0.000 A 
ATOM     17  C   UNL     1      -0.441   9.841  23.297  0.00  0.00    +0.000 A 
ATOM     18  C   UNL     1       0.539   9.329  22.468  0.00  0.00    +0.000 A 
ATOM     19  C   UNL     1       0.649   9.764  21.145  0.00  0.00    +0.000 A 
ATOM     20  C   UNL     1      -0.069  10.901  20.752  0.00  0.00    +0.000 A 
ATOM     21  C   UNL     1      -0.969  11.499  21.632  0.00  0.00    +0.000 A 
ENDBRANCH   1  19
TORSDOF 2
ENDMDL
MODEL 3
REMARK VINA RESULT:      -7.9      4.259      8.490
REMARK  Name = 
REMARK  2 active torsions:
REMARK  status: ('A' for Active; 'I' for Inactive)
REMARK    1  A    between atoms: C_4  and  C_5
REMARK    2  A    between atoms: C_8  and  N_9
REMARK                            x       y       z     vdW  Elec       q    Type
REMARK                         _______ _______ _______ _____ _____    ______ ____
ROOT
ATOM      1  C   UNL     1       1.307   8.712  20.315  0.00  0.00    +0.000 A 
ATOM      2  C   UNL     1       1.530   9.106  18.987  0.00  0.00    +0.000 A 
ATOM      3  C   UNL     1       2.106   8.265  18.057  0.00  0.00    +0.000 A 
ATOM      4  C   UNL     1       2.545   6.999  18.424  0.00  0.00    +0.000 A 
ATOM      5  C   UNL     1       2.316   6.587  19.748  0.00  0.00    +0.000 A 
ATOM      6  C   UNL     1       1.712   7.425  20.692  0.00  0.00    +0.000 A 
ENDROOT
BRANCH   4   7
ATOM      7  N   UNL     1       3.193   6.152  17.527  0.00  0.00    +0.000 N 
ATOM      8  C   UNL     1       3.037   4.694  17.666  0.00  0.00    +0.000 C 
ATOM      9  C   UNL     1       4.445   4.129  17.623  0.00  0.00    +0.000 C 
ATOM     10  C   UNL     1       5.143   4.035  18.969  0.00  0.00    +0.000 C 
ATOM     11  N   UNL     1       6.572   4.177  18.652  0.00  0.00    +0.000 NA
ATOM     12  C   UNL     1       6.666   4.975  17.416  0.00  0.00    +0.000 C 
ATOM     13  C   UNL     1       5.258   5.178  16.887  0.00  0.00    +0.000 C 
ATOM     14  C   UNL     1       4.606   6.499  17.311  0.00  0.00    +0.000 C 
ATOM     15  H   UNL     1       6.966   3.252  18.476  0.00  0.00    +0.000 HD
ENDBRANCH   4   7
BRANCH   1  19
ATOM     16  C   UNL     1      -0.962  11.284  22.779  0.00  0.00    +0.000 A 
ATOM     17  C   UNL     1      -0.652   9.992  23.186  0.00  0.00    +0.000 A 
ATOM     18  C   UNL     1       0.271   9.248  22.473  0.00  0.00    +0.000 A 
ATOM     19  C   UNL     1       0.748   9.701  21.241  0.00  0.00    +0.000 A 
ATOM     20  C   UNL     1       0.483  11.024  20.865  0.00  0.00    +0.000 A 
ATOM     21  C   UNL     1      -0.348  11.822  21.650  0.00  0.00    +0.000 A 
ENDBRANCH   1  19
TORSDOF 2
ENDMDL
MODEL 4
REMARK VINA RESULT:      -7.8      0.352      1.129
REMARK  Name = 
REMARK  2 active torsions:
REMARK  status: ('A' for Active; 'I' for Inactive)
REMARK    1  A    between atoms: C_4  and  C_5
REMARK    2  A    between atoms: C_8  and  N_9
REMARK                            x       y       z     vdW  Elec       q    Type
REMARK                         _______ _______ _______ _____ _____    ______ ____
ROOT
ATOM      1  C   UNL     1       5.879   4.546  15.591  0.00  0.00    +0.000 A 
ATOM      2  C   UNL     1       4.513   4.361  15.851  0.00  0.00    +0.000 A 
ATOM      3  C   UNL     1       4.020   4.229  17.133  0.00  0.00    +0.000 A 
ATOM      4  C   UNL     1       4.879   4.216  18.224  0.00  0.00    +0.000 A 
ATOM      5  C   UNL     1       6.249   4.413  17.979  0.00  0.00    +0.000 A 
ATOM      6  C   UNL     1       6.755   4.571  16.683  0.00  0.00    +0.000 A 
ENDROOT
BRANCH   4   7
ATOM      7  N   UNL     1       4.421   4.015  19.524  0.00  0.00    +0.000 N 
ATOM      8  C   UNL     1       4.219   2.642  20.017  0.00  0.00    +0.000 C 
ATOM      9  C   UNL     1       2.829   2.629  20.625  0.00  0.00    +0.000 C 
ATOM     10  C   UNL     1       1.706   2.291  19.659  0.00  0.00    +0.000 C 
ATOM     11  N   UNL     1       0.535   3.000  20.195  0.00  0.00    +0.000 NA
ATOM     12  C   UNL     1       1.037   4.174  20.933  0.00  0.00    +0.000 C 
ATOM     13  C   UNL     1       2.551   4.078  20.981  0.00  0.00    +0.000 C 
ATOM     14  C   UNL     1       3.272   4.862  19.879  0.00  0.00    +0.000 C 
ATOM     15  H   UNL     1       0.046   2.388  20.848  0.00  0.00    +0.000 HD
ENDBRANCH   4   7
BRANCH   1  19
ATOM     16  C   UNL     1       7.498   4.113  11.714  0.00  0.00    +0.000 A 
ATOM     17  C   UNL     1       6.365   3.406  12.101  0.00  0.00    +0.000 A 
ATOM     18  C   UNL     1       5.725   3.725  13.285  0.00  0.00    +0.000 A 
ATOM     19  C   UNL     1       6.310   4.612  14.192  0.00  0.00    +0.000 A 
ATOM     20  C   UNL     1       7.415   5.365  13.774  0.00  0.00    +0.000 A 
ATOM     21  C   UNL     1       7.988   5.133  12.525  0.00  0.00    +0.000 A 
ENDBRANCH   1  19
TORSDOF 2
ENDMDL
MODEL 5
REMARK VINA RESULT:      -7.8      1.139      1.616
REMARK  Name = 
REMARK  2 active torsions:
REMARK  status: ('A' for Active; 'I' for Inactive)
REMARK    1  A    between atoms: C_4  and  C_5
REMARK    2  A    between atoms: C_8  and  N_9
REMARK                            x       y       z     vdW  Elec       q    Type
REMARK                         _______ _______ _______ _____ _____    ______ ____
ROOT
ATOM      1  C   UNL     1       5.620   4.624  15.416  0.00  0.00    +0.000 A 
ATOM      2  C   UNL     1       5.237   5.933  15.748  0.00  0.00    +0.000 A 
ATOM      3  C   UNL     1       4.417   6.209  16.822  0.00  0.00    +0.000 A 
ATOM      4  C   UNL     1       3.886   5.181  17.591  0.00  0.00    +0.000 A 
ATOM      5  C   UNL     1       4.271   3.866  17.277  0.00  0.00    +0.000 A 
ATOM      6  C   UNL     1       5.122   3.578  16.203  0.00  0.00    +0.000 A 
ENDROOT
BRANCH   4   7
ATOM      7  N   UNL     1       3.000   5.421  18.638  0.00  0.00    +0.000 N 
ATOM      8  C   UNL     1       3.501   5.439  20.022  0.00  0.00    +0.000 C 
ATOM      9  C   UNL     1       2.568   4.534  20.804  0.00  0.00    +0.000 C 
ATOM     10  C   UNL     1       2.966   3.068  20.835  0.00  0.00    +0.000 C 
ATOM     11  N   UNL     1       1.693   2.344  20.963  0.00  0.00    +0.000 NA
ATOM     12  C   UNL     1       0.649   3.189  20.356  0.00  0.00    +0.000 C 
ATOM     13  C   UNL     1       1.280   4.522  20.002  0.00  0.00    +0.000 C 
ATOM     14  C   UNL     1       1.762   4.630  18.550  0.00  0.00    +0.000 C 
ATOM     15  H   UNL     1       1.480   2.221  21.954  0.00  0.00    +0.000 HD
ENDBRANCH   4   7
BRANCH   1  19
ATOM     16  C   UNL     1       7.630   4.665  11.702  0.00  0.00    +0.000 A 
ATOM     17  C   UNL     1       8.037   5.488  12.746  0.00  0.00    +0.000 A 
ATOM     18  C   UNL     1       7.514   5.302  14.013  0.00  0.00    +0.000 A 
ATOM     19  C   UNL     1       6.442   4.431  14.218  0.00  0.00    +0.000 A 
ATOM     20  C   UNL     1       6.076   3.563  13.181  0.00  0.00    +0.000 A 
ATOM     21  C   UNL     1       6.691   3.663  11.935  0.00  0.00    +0.000 A 
ENDBRANCH   1  19
TORSDOF 2
ENDMDL
MODEL 6
REMARK VINA RESULT:      -7.7      3.435      7.746
REMARK  Name = 
REMARK  2 active torsions:
REMARK  status: ('A' for Active; 'I' for Inactive)
REMARK    1  A    between atoms: C_4  and  C_5
REMARK    2  A    between atoms: C_8  and  N_9
REMARK                            x       y       z     vdW  Elec       q    Type
REMARK                         _______ _______ _______ _____ _____    ______ ____
ROOT
ATOM      1  C   UNL     1       2.188   7.470  19.437  0.00  0.00    +0.000 A 
ATOM      2  C   UNL     1       2.868   7.676  18.227  0.00  0.00    +0.000 A 
ATOM      3  C   UNL     1       3.662   6.704  17.655  0.00  0.00    +0.000 A 
ATOM      4  C   UNL     1       3.867   5.489  18.296  0.00  0.00    +0.000 A 
ATOM      5  C   UNL     1       3.182   5.264  19.502  0.00  0.00    +0.000 A 
ATOM      6  C   UNL     1       2.355   6.236  20.078  0.00  0.00    +0.000 A 
ENDROOT
BRANCH   4   7
ATOM      7  N   UNL     1       4.718   4.514  17.780  0.00  0.00    +0.000 N 
ATOM      8  C   UNL     1       6.130   4.490  18.197  0.00  0.00    +0.000 C 
ATOM      9  C   UNL     1       6.931   4.403  16.912  0.00  0.00    +0.000 C 
ATOM     10  C   UNL     1       7.291   5.740  16.285  0.00  0.00    +0.000 C 
ATOM     11  N   UNL     1       7.376   5.459  14.844  0.00  0.00    +0.000 NA
ATOM     12  C   UNL     1       6.483   4.318  14.570  0.00  0.00    +0.000 C 
ATOM     13  C   UNL     1       5.975   3.798  15.901  0.00  0.00    +0.000 C 
ATOM     14  C   UNL     1       4.610   4.354  16.321  0.00  0.00    +0.000 C 
ATOM     15  H   UNL     1       8.333   5.187  14.615  0.00  0.00    +0.000 HD
ENDBRANCH   4   7
BRANCH   1  19
ATOM     16  C   UNL     1      -0.609  10.240  20.965  0.00  0.00    +0.000 A 
ATOM     17  C   UNL     1      -0.072   9.245  21.773  0.00  0.00    +0.000 A 
ATOM     18  C   UNL     1       0.998   8.494  21.321  0.00  0.00    +0.000 A 
ATOM     19  C   UNL     1       1.421   8.588  19.994  0.00  0.00    +0.000 A 
ATOM     20  C   UNL     1       0.920   9.630  19.203  0.00  0.00    +0.000 A 
ATOM     21  C   UNL     1      -0.073  10.472  19.702  0.00  0.00    +0.000 A 
ENDBRANCH   1  19
TORSDOF 2
ENDMDL
MODEL 7
REMARK VINA RESULT:      -7.7      5.518      7.384
REMARK  Name = 
REMARK  2 active torsions:
REMARK  status: ('A' for Active; 'I' for Inactive)
REMARK    1  A    between atoms: C_4  and  C_5
REMARK    2  A    between atoms: C_8  and  N_9
REMARK                            x       y       z     vdW  Elec       q    Type
REMARK                         _______ _______ _______ _____ _____    ______ ____
ROOT
ATOM      1  C   UNL     1       2.484   6.688  18.594  0.00  0.00    +0.000 A 
ATOM      2  C   UNL     1       2.282   7.791  17.750  0.00  0.00    +0.000 A 
ATOM      3  C   UNL     1       1.791   8.993  18.214  0.00  0.00    +0.000 A 
ATOM      4  C   UNL     1       1.419   9.140  19.545  0.00  0.00    +0.000 A 
ATOM      5  C   UNL     1       1.628   8.048  20.405  0.00  0.00    +0.000 A 
ATOM      6  C   UNL     1       2.147   6.831  19.946  0.00  0.00    +0.000 A 
ENDROOT
BRANCH   4   7
ATOM      7  N   UNL     1       0.856  10.317  20.031  0.00  0.00    +0.000 N 
ATOM      8  C   UNL     1      -0.585  10.361  20.333  0.00  0.00    +0.000 C 
ATOM      9  C   UNL     1      -1.106  11.609  19.645  0.00  0.00    +0.000 C 
ATOM     10  C   UNL     1      -1.563  11.410  18.210  0.00  0.00    +0.000 C 
ATOM     11  N   UNL     1      -1.330  12.712  17.567  0.00  0.00    +0.000 NA
ATOM     12  C   UNL     1      -0.222  13.362  18.291  0.00  0.00    +0.000 C 
ATOM     13  C   UNL     1       0.109  12.504  19.497  0.00  0.00    +0.000 C 
ATOM     14  C   UNL     1       1.259  11.515  19.276  0.00  0.00    +0.000 C 
ATOM     15  H   UNL     1      -2.168  13.286  17.667  0.00  0.00    +0.000 HD
ENDBRANCH   4   7
BRANCH   1  19
ATOM     16  C   UNL     1       3.736   2.796  17.540  0.00  0.00    +0.000 A 
ATOM     17  C   UNL     1       2.386   3.120  17.610  0.00  0.00    +0.000 A 
ATOM     18  C   UNL     1       2.001   4.442  17.736  0.00  0.00    +0.000 A 
ATOM     19  C   UNL     1       2.948   5.436  17.992  0.00  0.00    +0.000 A 
ATOM     20  C   UNL     1       4.306   5.117  17.860  0.00  0.00    +0.000 A 
ATOM     21  C   UNL     1       4.695   3.803  17.606  0.00  0.00    +0.000 A 
ENDBRANCH   1  19
TORSDOF 2
ENDMDL
MODEL 8
REMARK VINA RESULT:      -7.7      4.126      8.428
REMARK  Name = 
REMARK  2 active torsions:
REMARK  status: ('A' for Active; 'I' for Inactive)
REMARK    1  A    between atoms: C_4  and  C_5
REMARK    2  A    between atoms: C_8  and  N_9
REMARK                            x       y       z     vdW  Elec       q    Type
REMARK                         _______ _______ _______ _____ _____    ______ ____
ROOT
ATOM      1  C   UNL     1       1.267   8.642  19.964  0.00  0.00    +0.000 A 
ATOM      2  C   UNL     1       1.782   7.397  20.358  0.00  0.00    +0.000 A 
ATOM      3  C   UNL     1       2.590   6.641  19.534  0.00  0.00    +0.000 A 
ATOM      4  C   UNL     1       2.880   7.066  18.243  0.00  0.00    +0.000 A 
ATOM      5  C   UNL     1       2.381   8.316  17.840  0.00  0.00    +0.000 A 
ATOM      6  C   UNL     1       1.579   9.100  18.678  0.00  0.00    +0.000 A 
ENDROOT
BRANCH   4   7
ATOM      7  N   UNL     1       3.634   6.294  17.362  0.00  0.00    +0.000 N 
ATOM      8  C   UNL     1       3.541   4.826  17.421  0.00  0.00    +0.000 C 
ATOM      9  C   UNL     1       4.974   4.330  17.461  0.00  0.00    +0.000 C 
ATOM     10  C   UNL     1       5.574   4.201  18.852  0.00  0.00    +0.000 C 
ATOM     11  N   UNL     1       7.013   4.424  18.653  0.00  0.00    +0.000 NA
ATOM     12  C   UNL     1       7.160   5.285  17.465  0.00  0.00    +0.000 C 
ATOM     13  C   UNL     1       5.788   5.449  16.840  0.00  0.00    +0.000 C 
ATOM     14  C   UNL     1       5.041   6.717  17.271  0.00  0.00    +0.000 C 
ATOM     15  H   UNL     1       7.465   3.528  18.465  0.00  0.00    +0.000 HD
ENDBRANCH   4   7
BRANCH   1  19
ATOM     16  C   UNL     1      -0.747  11.088  22.755  0.00  0.00    +0.000 A 
ATOM     17  C   UNL     1      -0.621  11.473  21.425  0.00  0.00    +0.000 A 
ATOM     18  C   UNL     1      -0.159  10.567  20.488  0.00  0.00    +0.000 A 
ATOM     19  C   UNL     1       0.366   9.336  20.888  0.00  0.00    +0.000 A 
ATOM     20  C   UNL     1       0.182   8.929  22.216  0.00  0.00    +0.000 A 
ATOM     21  C   UNL     1      -0.400   9.796  23.139  0.00  0.00    +0.000 A 
ENDBRANCH   1  19
TORSDOF 2
ENDMDL
MODEL 9
REMARK VINA RESULT:      -7.7      0.339      1.552
REMARK  Name = 
REMARK  2 active torsions:
REMARK  status: ('A' for Active; 'I' for Inactive)
REMARK    1  A    between atoms: C_4  and  C_5
REMARK    2  A    between atoms: C_8  and  N_9
REMARK                            x       y       z     vdW  Elec       q    Type
REMARK                         _______ _______ _______ _____ _____    ______ ____
ROOT
ATOM      1  C   UNL     1       5.748   4.219  15.553  0.00  0.00    +0.000 A 
ATOM      2  C   UNL     1       6.552   4.632  16.627  0.00  0.00    +0.000 A 
ATOM      3  C   UNL     1       6.144   4.512  17.939  0.00  0.00    +0.000 A 
ATOM      4  C   UNL     1       4.879   4.025  18.246  0.00  0.00    +0.000 A 
ATOM      5  C   UNL     1       4.069   3.597  17.181  0.00  0.00    +0.000 A 
ATOM      6  C   UNL     1       4.484   3.693  15.848  0.00  0.00    +0.000 A 
ENDROOT
BRANCH   4   7
ATOM      7  N   UNL     1       4.410   3.957  19.556  0.00  0.00    +0.000 N 
ATOM      8  C   UNL     1       4.165   2.642  20.171  0.00  0.00    +0.000 C 
ATOM      9  C   UNL     1       2.773   2.725  20.767  0.00  0.00    +0.000 C 
ATOM     10  C   UNL     1       1.644   2.332  19.829  0.00  0.00    +0.000 C 
ATOM     11  N   UNL     1       0.492   3.121  20.288  0.00  0.00    +0.000 NA
ATOM     12  C   UNL     1       1.025   4.343  20.919  0.00  0.00    +0.000 C 
ATOM     13  C   UNL     1       2.535   4.208  20.987  0.00  0.00    +0.000 C 
ATOM     14  C   UNL     1       3.284   4.867  19.823  0.00  0.00    +0.000 C 
ATOM     15  H   UNL     1      -0.017   2.586  20.991  0.00  0.00    +0.000 HD
ENDBRANCH   4   7
BRANCH   1  19
ATOM     16  C   UNL     1       7.572   4.253  11.744  0.00  0.00    +0.000 A 
ATOM     17  C   UNL     1       6.444   3.479  11.992  0.00  0.00    +0.000 A 
ATOM     18  C   UNL     1       5.736   3.651  13.167  0.00  0.00    +0.000 A 
ATOM     19  C   UNL     1       6.246   4.448  14.194  0.00  0.00    +0.000 A 
ATOM     20  C   UNL     1       7.347   5.270  13.920  0.00  0.00    +0.000 A 
ATOM     21  C   UNL     1       7.989   5.191  12.685  0.00  0.00    +0.000 A 
ENDBRANCH   1  19
TORSDOF 2
ENDMDL
