MODEL 1
REMARK VINA RESULT:      -7.2      0.000      0.000
REMARK  Name = 
REMARK  10 active torsions:
REMARK  status: ('A' for Active; 'I' for Inactive)
REMARK    1  A    between atoms: C_1  and  O_2
REMARK    2  A    between atoms: O_2  and  C_3
REMARK    3  A    between atoms: C_5  and  C_6
REMARK    4  A    between atoms: C_7  and  C_8
REMARK    5  A    between atoms: N_14  and  C_15
REMARK    6  A    between atoms: C_15  and  C_16
REMARK    7  A    between atoms: C_16  and  O_17
REMARK    8  A    between atoms: O_17  and  C_18
REMARK    9  A    between atoms: C_18  and  C_19
REMARK   10  A    between atoms: C_23  and  C_24
REMARK                            x       y       z     vdW  Elec       q    Type
REMARK                         _______ _______ _______ _____ _____    ______ ____
ROOT
ATOM      1  C   UNL     1       2.521   6.312  19.596  0.00  0.00    +0.000 A 
ATOM      2  S   UNL     1       3.397   6.489  18.122  0.00  0.00    +0.000 S 
ATOM      3  C   UNL     1       3.895   4.849  18.183  0.00  0.00    +0.000 A 
ATOM      4  N   UNL     1       4.699   4.251  17.222  0.00  0.00    +0.000 N 
ATOM      5  C   UNL     1       5.493   4.908  16.317  0.00  0.00    +0.000 C 
ATOM      6  O   UNL     1       5.613   6.126  16.219  0.00  0.00    +0.000 OA
ATOM      7  N   UNL     1       6.240   4.057  15.500  0.00  0.00    +0.000 N 
ATOM      8  N   UNL     1       3.416   4.170  19.205  0.00  0.00    +0.000 NA
ATOM      9  C   UNL     1       2.668   5.007  20.039  0.00  0.00    +0.000 A 
ATOM     10  C   UNL     1       2.117   4.441  21.301  0.00  0.00    +0.000 C 
ATOM     11  H   UNL     1       4.866   3.269  17.384  0.00  0.00    +0.000 HD
ATOM     12  H   UNL     1       5.850   3.149  15.288  0.00  0.00    +0.000 HD
ENDROOT
BRANCH   1  14
ATOM     13  C   UNL     1       1.172   8.264  20.782  0.00  0.00    +0.000 C 
ATOM     14  C   UNL     1       1.783   7.364  20.260  0.00  0.00    +0.000 C 
BRANCH  13  17
ATOM     15  C   UNL     1      -0.811  11.402  21.290  0.00  0.00    +0.000 A 
ATOM     16  C   UNL     1      -0.024  10.443  20.651  0.00  0.00    +0.000 A 
ATOM     17  C   UNL     1       0.390   9.318  21.378  0.00  0.00    +0.000 A 
ATOM     18  C   UNL     1       0.010   9.228  22.719  0.00  0.00    +0.000 A 
ATOM     19  C   UNL     1      -0.762  10.242  23.268  0.00  0.00    +0.000 A 
ATOM     20  N   UNL     1      -1.184  11.323  22.582  0.00  0.00    +0.000 NA
BRANCH  15  22
ATOM     21  C   UNL     1      -1.991  12.129  19.393  0.00  0.00    +0.000 C 
ATOM     22  O   UNL     1      -1.219  12.490  20.536  0.00  0.00    +0.000 OA
ENDBRANCH  15  22
ENDBRANCH  13  17
ENDBRANCH   1  14
BRANCH   7  23
ATOM     23  C   UNL     1       7.039   4.681  14.444  0.00  0.00    +0.000 C 
BRANCH  23  24
ATOM     24  C   UNL     1       6.672   4.326  12.996  0.00  0.00    +0.000 C 
BRANCH  24  25
ATOM     25  O   UNL     1       5.319   3.864  12.889  0.00  0.00    +0.000 OA
BRANCH  25  26
ATOM     26  C   UNL     1       5.173   2.948  11.794  0.00  0.00    +0.000 C 
BRANCH  26  27
ATOM     27  C   UNL     1       6.250   1.909  11.865  0.00  0.00    +0.000 C 
ATOM     28  C   UNL     1       6.102   0.630  11.073  0.00  0.00    +0.000 C 
ATOM     29  C   UNL     1       7.159   1.627  10.694  0.00  0.00    +0.000 C 
ENDBRANCH  26  27
ENDBRANCH  25  26
ENDBRANCH  24  25
ENDBRANCH  23  24
ENDBRANCH   7  23
TORSDOF 8
ENDMDL
MODEL 2
REMARK VINA RESULT:      -7.0      1.143      1.546
REMARK  Name = 
REMARK  10 active torsions:
REMARK  status: ('A' for Active; 'I' for Inactive)
REMARK    1  A    between atoms: C_1  and  O_2
REMARK    2  A    between atoms: O_2  and  C_3
REMARK    3  A    between atoms: C_5  and  C_6
REMARK    4  A    between atoms: C_7  and  C_8
REMARK    5  A    between atoms: N_14  and  C_15
REMARK    6  A    between atoms: C_15  and  C_16
REMARK    7  A    between atoms: C_16  and  O_17
REMARK    8  A    between atoms: O_17  and  C_18
REMARK    9  A    between atoms: C_18  and  C_19
REMARK   10  A    between atoms: C_23  and  C_24
REMARK                            x       y       z     vdW  Elec       q    Type
REMARK                         _______ _______ _______ _____ _____    ______ ____
ROOT
ATOM      1  C   UNL     1       2.559   6.022  19.585  0.00  0.00    +0.000 A 
ATOM      2  S   UNL     1       3.342   6.133  18.052  0.00  0.00    +0.000 S 
ATOM      3  C   UNL     1       3.818   4.488  18.140  0.00  0.00    +0.000 A 
ATOM      4  N   UNL     1       4.550   3.843  17.152  0.00  0.00    +0.000 N 
ATOM      5  C   UNL     1       5.294   4.456  16.176  0.00  0.00    +0.000 C 
ATOM      6  O   UNL     1       5.426   5.668  16.027  0.00  0.00    +0.000 OA
ATOM      7  N   UNL     1       5.975   3.564  15.344  0.00  0.00    +0.000 N 
ATOM      8  N   UNL     1       3.395   3.853  19.214  0.00  0.00    +0.000 NA
ATOM      9  C   UNL     1       2.714   4.731  20.063  0.00  0.00    +0.000 A 
ATOM     10  C   UNL     1       2.236   4.218  21.377  0.00  0.00    +0.000 C 
ATOM     11  H   UNL     1       4.712   2.865  17.338  0.00  0.00    +0.000 HD
ATOM     12  H   UNL     1       5.559   2.656  15.189  0.00  0.00    +0.000 HD
ENDROOT
BRANCH   1  14
ATOM     13  C   UNL     1       1.348   8.026  20.831  0.00  0.00    +0.000 C 
ATOM     14  C   UNL     1       1.880   7.109  20.256  0.00  0.00    +0.000 C 
BRANCH  13  17
ATOM     15  C   UNL     1       0.058  11.470  21.550  0.00  0.00    +0.000 A 
ATOM     16  C   UNL     1       0.712  10.432  20.884  0.00  0.00    +0.000 A 
ATOM     17  C   UNL     1       0.727   9.159  21.471  0.00  0.00    +0.000 A 
ATOM     18  C   UNL     1       0.103   9.001  22.711  0.00  0.00    +0.000 A 
ATOM     19  C   UNL     1      -0.509  10.099  23.299  0.00  0.00    +0.000 A 
ATOM     20  N   UNL     1      -0.549  11.327  22.744  0.00  0.00    +0.000 NA
BRANCH  15  22
ATOM     21  C   UNL     1      -0.543  12.688  19.632  0.00  0.00    +0.000 C 
ATOM     22  O   UNL     1       0.044  12.709  20.932  0.00  0.00    +0.000 OA
ENDBRANCH  15  22
ENDBRANCH  13  17
ENDBRANCH   1  14
BRANCH   7  23
ATOM     23  C   UNL     1       6.714   4.138  14.218  0.00  0.00    +0.000 C 
BRANCH  23  24
ATOM     24  C   UNL     1       6.387   3.588  12.822  0.00  0.00    +0.000 C 
BRANCH  24  25
ATOM     25  O   UNL     1       5.243   4.236  12.251  0.00  0.00    +0.000 OA
BRANCH  25  26
ATOM     26  C   UNL     1       4.259   3.274  11.843  0.00  0.00    +0.000 C 
BRANCH  26  27
ATOM     27  C   UNL     1       4.000   3.415  10.374  0.00  0.00    +0.000 C 
ATOM     28  C   UNL     1       2.712   2.883   9.791  0.00  0.00    +0.000 C 
ATOM     29  C   UNL     1       2.956   4.364   9.839  0.00  0.00    +0.000 C 
ENDBRANCH  26  27
ENDBRANCH  25  26
ENDBRANCH  24  25
ENDBRANCH  23  24
ENDBRANCH   7  23
TORSDOF 8
ENDMDL
MODEL 3
REMARK VINA RESULT:      -6.8      2.098     10.428
REMARK  Name = 
REMARK  10 active torsions:
REMARK  status: ('A' for Active; 'I' for Inactive)
REMARK    1  A    between atoms: C_1  and  O_2
REMARK    2  A    between atoms: O_2  and  C_3
REMARK    3  A    between atoms: C_5  and  C_6
REMARK    4  A    between atoms: C_7  and  C_8
REMARK    5  A    between atoms: N_14  and  C_15
REMARK    6  A    between atoms: C_15  and  C_16
REMARK    7  A    between atoms: C_16  and  O_17
REMARK    8  A    between atoms: O_17  and  C_18
REMARK    9  A    between atoms: C_18  and  C_19
REMARK   10  A    between atoms: C_23  and  C_24
REMARK                            x       y       z     vdW  Elec       q    Type
REMARK                         _______ _______ _______ _____ _____    ______ ____
ROOT
ATOM      1  C   UNL     1       3.737   5.360  17.974  0.00  0.00    +0.000 A 
ATOM      2  S   UNL     1       3.283   6.934  18.512  0.00  0.00    +0.000 S 
ATOM      3  C   UNL     1       2.502   6.275  19.889  0.00  0.00    +0.000 A 
ATOM      4  N   UNL     1       1.858   7.041  20.851  0.00  0.00    +0.000 N 
ATOM      5  C   UNL     1       1.433   8.335  20.693  0.00  0.00    +0.000 C 
ATOM      6  O   UNL     1       1.558   9.014  19.677  0.00  0.00    +0.000 OA
ATOM      7  N   UNL     1       0.763   8.848  21.807  0.00  0.00    +0.000 N 
ATOM      8  N   UNL     1       2.596   4.965  19.995  0.00  0.00    +0.000 NA
ATOM      9  C   UNL     1       3.260   4.432  18.887  0.00  0.00    +0.000 A 
ATOM     10  C   UNL     1       3.385   2.952  18.779  0.00  0.00    +0.000 C 
ATOM     11  H   UNL     1       1.486   6.502  21.619  0.00  0.00    +0.000 HD
ATOM     12  H   UNL     1       1.025   8.493  22.716  0.00  0.00    +0.000 HD
ENDROOT
BRANCH   1  14
ATOM     13  C   UNL     1       5.069   4.793  15.752  0.00  0.00    +0.000 C 
ATOM     14  C   UNL     1       4.470   5.071  16.762  0.00  0.00    +0.000 C 
BRANCH  13  17
ATOM     15  C   UNL     1       5.841   3.407  12.357  0.00  0.00    +0.000 A 
ATOM     16  C   UNL     1       5.150   3.640  13.548  0.00  0.00    +0.000 A 
ATOM     17  C   UNL     1       5.733   4.472  14.513  0.00  0.00    +0.000 A 
ATOM     18  C   UNL     1       6.993   5.010  14.241  0.00  0.00    +0.000 A 
ATOM     19  C   UNL     1       7.605   4.707  13.033  0.00  0.00    +0.000 A 
ATOM     20  N   UNL     1       7.055   3.923  12.085  0.00  0.00    +0.000 NA
BRANCH  15  22
ATOM     21  C   UNL     1       3.926   3.048  11.043  0.00  0.00    +0.000 C 
ATOM     22  O   UNL     1       5.226   2.597  11.417  0.00  0.00    +0.000 OA
ENDBRANCH  15  22
ENDBRANCH  13  17
ENDBRANCH   1  14
BRANCH   7  23
ATOM     23  C   UNL     1       0.363  10.255  21.753  0.00  0.00    +0.000 C 
BRANCH  23  24
ATOM     24  C   UNL     1      -0.935  10.578  21.000  0.00  0.00    +0.000 C 
BRANCH  24  25
ATOM     25  O   UNL     1      -0.708  11.494  19.920  0.00  0.00    +0.000 OA
BRANCH  25  26
ATOM     26  C   UNL     1      -1.930  11.775  19.221  0.00  0.00    +0.000 C 
BRANCH  26  27
ATOM     27  C   UNL     1      -1.755  11.468  17.765  0.00  0.00    +0.000 C 
ATOM     28  C   UNL     1      -1.938  10.049  17.277  0.00  0.00    +0.000 C 
ATOM     29  C   UNL     1      -2.926  11.110  16.883  0.00  0.00    +0.000 C 
ENDBRANCH  26  27
ENDBRANCH  25  26
ENDBRANCH  24  25
ENDBRANCH  23  24
ENDBRANCH   7  23
TORSDOF 8
ENDMDL
MODEL 4
REMARK VINA RESULT:      -6.7      2.141     11.208
REMARK  Name = 
REMARK  10 active torsions:
REMARK  status: ('A' for Active; 'I' for Inactive)
REMARK    1  A    between atoms: C_1  and  O_2
REMARK    2  A    between atoms: O_2  and  C_3
REMARK    3  A    between atoms: C_5  and  C_6
REMARK    4  A    between atoms: C_7  and  C_8
REMARK    5  A    between atoms: N_14  and  C_15
REMARK    6  A    between atoms: C_15  and  C_16
REMARK    7  A    between atoms: C_16  and  O_17
REMARK    8  A    between atoms: O_17  and  C_18
REMARK    9  A    between atoms: C_18  and  C_19
REMARK   10  A    between atoms: C_23  and  C_24
REMARK                            x       y       z     vdW  Elec       q    Type
REMARK                         _______ _______ _______ _____ _____    ______ ____
ROOT
ATOM      1  C   UNL     1       3.819   5.200  18.040  0.00  0.00    +0.000 A 
ATOM      2  S   UNL     1       3.294   6.743  18.602  0.00  0.00    +0.000 S 
ATOM      3  C   UNL     1       2.551   6.027  19.972  0.00  0.00    +0.000 A 
ATOM      4  N   UNL     1       1.875   6.748  20.948  0.00  0.00    +0.000 N 
ATOM      5  C   UNL     1       1.389   8.022  20.811  0.00  0.00    +0.000 C 
ATOM      6  O   UNL     1       1.477   8.721  19.805  0.00  0.00    +0.000 OA
ATOM      7  N   UNL     1       0.701   8.487  21.934  0.00  0.00    +0.000 N 
ATOM      8  N   UNL     1       2.707   4.722  20.059  0.00  0.00    +0.000 NA
ATOM      9  C   UNL     1       3.391   4.237  18.940  0.00  0.00    +0.000 A 
ATOM     10  C   UNL     1       3.585   2.766  18.810  0.00  0.00    +0.000 C 
ATOM     11  H   UNL     1       1.533   6.181  21.709  0.00  0.00    +0.000 HD
ATOM     12  H   UNL     1       0.983   8.131  22.837  0.00  0.00    +0.000 HD
ENDROOT
BRANCH   1  14
ATOM     13  C   UNL     1       5.163   4.731  15.801  0.00  0.00    +0.000 C 
ATOM     14  C   UNL     1       4.560   4.964  16.820  0.00  0.00    +0.000 C 
BRANCH  13  17
ATOM     15  C   UNL     1       5.989   3.440  12.382  0.00  0.00    +0.000 A 
ATOM     16  C   UNL     1       5.297   3.611  13.582  0.00  0.00    +0.000 A 
ATOM     17  C   UNL     1       5.834   4.470  14.552  0.00  0.00    +0.000 A 
ATOM     18  C   UNL     1       7.052   5.094  14.274  0.00  0.00    +0.000 A 
ATOM     19  C   UNL     1       7.670   4.847  13.056  0.00  0.00    +0.000 A 
ATOM     20  N   UNL     1       7.162   4.039  12.104  0.00  0.00    +0.000 NA
BRANCH  15  22
ATOM     21  C   UNL     1       4.063   2.924  11.138  0.00  0.00    +0.000 C 
ATOM     22  O   UNL     1       5.420   2.602  11.438  0.00  0.00    +0.000 OA
ENDBRANCH  15  22
ENDBRANCH  13  17
ENDBRANCH   1  14
BRANCH   7  23
ATOM     23  C   UNL     1       0.234   9.874  21.902  0.00  0.00    +0.000 C 
BRANCH  23  24
ATOM     24  C   UNL     1      -0.608  10.350  23.095  0.00  0.00    +0.000 C 
BRANCH  24  25
ATOM     25  O   UNL     1      -0.739  11.777  23.116  0.00  0.00    +0.000 OA
BRANCH  25  26
ATOM     26  C   UNL     1      -0.306  12.351  21.873  0.00  0.00    +0.000 C 
BRANCH  26  27
ATOM     27  C   UNL     1      -1.430  13.132  21.264  0.00  0.00    +0.000 C 
ATOM     28  C   UNL     1      -1.365  14.642  21.252  0.00  0.00    +0.000 C 
ATOM     29  C   UNL     1      -1.264  13.878  19.963  0.00  0.00    +0.000 C 
ENDBRANCH  26  27
ENDBRANCH  25  26
ENDBRANCH  24  25
ENDBRANCH  23  24
ENDBRANCH   7  23
TORSDOF 8
ENDMDL
MODEL 5
REMARK VINA RESULT:      -6.7      2.201     11.710
REMARK  Name = 
REMARK  10 active torsions:
REMARK  status: ('A' for Active; 'I' for Inactive)
REMARK    1  A    between atoms: C_1  and  O_2
REMARK    2  A    between atoms: O_2  and  C_3
REMARK    3  A    between atoms: C_5  and  C_6
REMARK    4  A    between atoms: C_7  and  C_8
REMARK    5  A    between atoms: N_14  and  C_15
REMARK    6  A    between atoms: C_15  and  C_16
REMARK    7  A    between atoms: C_16  and  O_17
REMARK    8  A    between atoms: O_17  and  C_18
REMARK    9  A    between atoms: C_18  and  C_19
REMARK   10  A    between atoms: C_23  and  C_24
REMARK                            x       y       z     vdW  Elec       q    Type
REMARK                         _______ _______ _______ _____ _____    ______ ____
ROOT
ATOM      1  C   UNL     1       4.022   5.531  17.877  0.00  0.00    +0.000 A 
ATOM      2  S   UNL     1       3.266   7.055  18.157  0.00  0.00    +0.000 S 
ATOM      3  C   UNL     1       2.724   6.540  19.700  0.00  0.00    +0.000 A 
ATOM      4  N   UNL     1       1.981   7.336  20.561  0.00  0.00    +0.000 N 
ATOM      5  C   UNL     1       1.276   8.458  20.210  0.00  0.00    +0.000 C 
ATOM      6  O   UNL     1       1.194   8.931  19.079  0.00  0.00    +0.000 OA
ATOM      7  N   UNL     1       0.572   9.037  21.269  0.00  0.00    +0.000 N 
ATOM      8  N   UNL     1       3.106   5.325  20.036  0.00  0.00    +0.000 NA
ATOM      9  C   UNL     1       3.809   4.727  18.986  0.00  0.00    +0.000 A 
ATOM     10  C   UNL     1       4.247   3.312  19.141  0.00  0.00    +0.000 C 
ATOM     11  H   UNL     1       1.777   6.898  21.447  0.00  0.00    +0.000 HD
ATOM     12  H   UNL     1       0.954   8.931  22.199  0.00  0.00    +0.000 HD
ENDROOT
BRANCH   1  14
ATOM     13  C   UNL     1       5.293   4.844  15.652  0.00  0.00    +0.000 C 
ATOM     14  C   UNL     1       4.733   5.160  16.674  0.00  0.00    +0.000 C 
BRANCH  13  17
ATOM     15  C   UNL     1       6.177   3.279  12.365  0.00  0.00    +0.000 A 
ATOM     16  C   UNL     1       5.503   3.502  13.567  0.00  0.00    +0.000 A 
ATOM     17  C   UNL     1       5.955   4.525  14.413  0.00  0.00    +0.000 A 
ATOM     18  C   UNL     1       7.077   5.256  14.016  0.00  0.00    +0.000 A 
ATOM     19  C   UNL     1       7.687   4.948  12.808  0.00  0.00    +0.000 A 
ATOM     20  N   UNL     1       7.258   3.980  11.973  0.00  0.00    +0.000 NA
BRANCH  15  22
ATOM     21  C   UNL     1       6.714   1.444  10.998  0.00  0.00    +0.000 C 
ATOM     22  O   UNL     1       5.691   2.275  11.544  0.00  0.00    +0.000 OA
ENDBRANCH  15  22
ENDBRANCH  13  17
ENDBRANCH   1  14
BRANCH   7  23
ATOM     23  C   UNL     1      -0.127  10.293  20.995  0.00  0.00    +0.000 C 
BRANCH  23  24
ATOM     24  C   UNL     1       0.082  11.436  21.999  0.00  0.00    +0.000 C 
BRANCH  24  25
ATOM     25  O   UNL     1      -0.657  11.222  23.208  0.00  0.00    +0.000 OA
BRANCH  25  26
ATOM     26  C   UNL     1      -1.965  11.806  23.121  0.00  0.00    +0.000 C 
BRANCH  26  27
ATOM     27  C   UNL     1      -1.843  13.258  22.775  0.00  0.00    +0.000 C 
ATOM     28  C   UNL     1      -2.741  14.264  23.456  0.00  0.00    +0.000 C 
ATOM     29  C   UNL     1      -1.267  14.260  23.746  0.00  0.00    +0.000 C 
ENDBRANCH  26  27
ENDBRANCH  25  26
ENDBRANCH  24  25
ENDBRANCH  23  24
ENDBRANCH   7  23
TORSDOF 8
ENDMDL
MODEL 6
REMARK VINA RESULT:      -6.7      4.001      6.176
REMARK  Name = 
REMARK  10 active torsions:
REMARK  status: ('A' for Active; 'I' for Inactive)
REMARK    1  A    between atoms: C_1  and  O_2
REMARK    2  A    between atoms: O_2  and  C_3
REMARK    3  A    between atoms: C_5  and  C_6
REMARK    4  A    between atoms: C_7  and  C_8
REMARK    5  A    between atoms: N_14  and  C_15
REMARK    6  A    between atoms: C_15  and  C_16
REMARK    7  A    between atoms: C_16  and  O_17
REMARK    8  A    between atoms: O_17  and  C_18
REMARK    9  A    between atoms: C_18  and  C_19
REMARK   10  A    between atoms: C_23  and  C_24
REMARK                            x       y       z     vdW  Elec       q    Type
REMARK                         _______ _______ _______ _____ _____    ______ ____
ROOT
ATOM      1  C   UNL     1      -0.068  10.469  20.096  0.00  0.00    +0.000 A 
ATOM      2  S   UNL     1       1.104   9.229  20.350  0.00  0.00    +0.000 S 
ATOM      3  C   UNL     1       1.269   8.993  18.659  0.00  0.00    +0.000 A 
ATOM      4  N   UNL     1       2.126   8.060  18.091  0.00  0.00    +0.000 N 
ATOM      5  C   UNL     1       2.674   6.979  18.733  0.00  0.00    +0.000 C 
ATOM      6  O   UNL     1       2.491   6.672  19.908  0.00  0.00    +0.000 OA
ATOM      7  N   UNL     1       3.459   6.172  17.906  0.00  0.00    +0.000 N 
ATOM      8  N   UNL     1       0.543   9.806  17.921  0.00  0.00    +0.000 NA
ATOM      9  C   UNL     1      -0.254  10.621  18.731  0.00  0.00    +0.000 A 
ATOM     10  C   UNL     1      -1.217  11.549  18.075  0.00  0.00    +0.000 C 
ATOM     11  H   UNL     1       2.135   8.077  17.083  0.00  0.00    +0.000 HD
ATOM     12  H   UNL     1       3.935   6.615  17.132  0.00  0.00    +0.000 HD
ENDROOT
BRANCH   1  14
ATOM     13  C   UNL     1      -1.289  11.839  22.011  0.00  0.00    +0.000 C 
ATOM     14  C   UNL     1      -0.749  11.201  21.140  0.00  0.00    +0.000 C 
BRANCH  13  17
ATOM     15  C   UNL     1      -2.157  14.563  24.432  0.00  0.00    +0.000 A 
ATOM     16  C   UNL     1      -1.425  13.831  23.496  0.00  0.00    +0.000 A 
ATOM     17  C   UNL     1      -1.964  12.633  23.006  0.00  0.00    +0.000 A 
ATOM     18  C   UNL     1      -3.203  12.221  23.501  0.00  0.00    +0.000 A 
ATOM     19  C   UNL     1      -3.847  13.012  24.443  0.00  0.00    +0.000 A 
ATOM     20  N   UNL     1      -3.354  14.175  24.914  0.00  0.00    +0.000 NA
BRANCH  15  22
ATOM     21  C   UNL     1      -0.465  16.165  24.127  0.00  0.00    +0.000 C 
ATOM     22  O   UNL     1      -1.605  15.752  24.879  0.00  0.00    +0.000 OA
ENDBRANCH  15  22
ENDBRANCH  13  17
ENDBRANCH   1  14
BRANCH   7  23
ATOM     23  C   UNL     1       4.157   5.051  18.539  0.00  0.00    +0.000 C 
BRANCH  23  24
ATOM     24  C   UNL     1       4.313   3.772  17.705  0.00  0.00    +0.000 C 
BRANCH  24  25
ATOM     25  O   UNL     1       3.926   2.606  18.445  0.00  0.00    +0.000 OA
BRANCH  25  26
ATOM     26  C   UNL     1       3.538   2.952  19.783  0.00  0.00    +0.000 C 
BRANCH  26  27
ATOM     27  C   UNL     1       2.143   2.470  20.039  0.00  0.00    +0.000 C 
ATOM     28  C   UNL     1       1.380   3.002  21.230  0.00  0.00    +0.000 C 
ATOM     29  C   UNL     1       0.945   3.366  19.839  0.00  0.00    +0.000 C 
ENDBRANCH  26  27
ENDBRANCH  25  26
ENDBRANCH  24  25
ENDBRANCH  23  24
ENDBRANCH   7  23
TORSDOF 8
ENDMDL
MODEL 7
REMARK VINA RESULT:      -6.6      2.167     10.861
REMARK  Name = 
REMARK  10 active torsions:
REMARK  status: ('A' for Active; 'I' for Inactive)
REMARK    1  A    between atoms: C_1  and  O_2
REMARK    2  A    between atoms: O_2  and  C_3
REMARK    3  A    between atoms: C_5  and  C_6
REMARK    4  A    between atoms: C_7  and  C_8
REMARK    5  A    between atoms: N_14  and  C_15
REMARK    6  A    between atoms: C_15  and  C_16
REMARK    7  A    between atoms: C_16  and  O_17
REMARK    8  A    between atoms: O_17  and  C_18
REMARK    9  A    between atoms: C_18  and  C_19
REMARK   10  A    between atoms: C_23  and  C_24
REMARK                            x       y       z     vdW  Elec       q    Type
REMARK                         _______ _______ _______ _____ _____    ______ ____
ROOT
ATOM      1  C   UNL     1       3.904   5.552  17.914  0.00  0.00    +0.000 A 
ATOM      2  S   UNL     1       3.167   7.075  18.246  0.00  0.00    +0.000 S 
ATOM      3  C   UNL     1       2.615   6.514  19.769  0.00  0.00    +0.000 A 
ATOM      4  N   UNL     1       1.880   7.288  20.657  0.00  0.00    +0.000 N 
ATOM      5  C   UNL     1       1.191   8.432  20.343  0.00  0.00    +0.000 C 
ATOM      6  O   UNL     1       1.118   8.944  19.229  0.00  0.00    +0.000 OA
ATOM      7  N   UNL     1       0.492   8.982  21.420  0.00  0.00    +0.000 N 
ATOM      8  N   UNL     1       2.981   5.283  20.063  0.00  0.00    +0.000 NA
ATOM      9  C   UNL     1       3.679   4.713  18.994  0.00  0.00    +0.000 A 
ATOM     10  C   UNL     1       4.098   3.288  19.100  0.00  0.00    +0.000 C 
ATOM     11  H   UNL     1       1.669   6.823  21.526  0.00  0.00    +0.000 HD
ATOM     12  H   UNL     1       0.870   8.839  22.347  0.00  0.00    +0.000 HD
ENDROOT
BRANCH   1  14
ATOM     13  C   UNL     1       5.193   4.896  15.691  0.00  0.00    +0.000 C 
ATOM     14  C   UNL     1       4.613   5.215  16.700  0.00  0.00    +0.000 C 
BRANCH  13  17
ATOM     15  C   UNL     1       5.893   3.388  12.333  0.00  0.00    +0.000 A 
ATOM     16  C   UNL     1       5.225   3.668  13.526  0.00  0.00    +0.000 A 
ATOM     17  C   UNL     1       5.833   4.527  14.453  0.00  0.00    +0.000 A 
ATOM     18  C   UNL     1       7.093   5.041  14.142  0.00  0.00    +0.000 A 
ATOM     19  C   UNL     1       7.682   4.691  12.935  0.00  0.00    +0.000 A 
ATOM     20  N   UNL     1       7.107   3.881  12.023  0.00  0.00    +0.000 NA
BRANCH  15  22
ATOM     21  C   UNL     1       3.960   3.016  11.049  0.00  0.00    +0.000 C 
ATOM     22  O   UNL     1       5.254   2.554  11.431  0.00  0.00    +0.000 OA
ENDBRANCH  15  22
ENDBRANCH  13  17
ENDBRANCH   1  14
BRANCH   7  23
ATOM     23  C   UNL     1      -0.191  10.256  21.189  0.00  0.00    +0.000 C 
BRANCH  23  24
ATOM     24  C   UNL     1      -0.267  11.227  22.376  0.00  0.00    +0.000 C 
BRANCH  24  25
ATOM     25  O   UNL     1       0.094  12.561  21.995  0.00  0.00    +0.000 OA
BRANCH  25  26
ATOM     26  C   UNL     1       1.012  12.548  20.891  0.00  0.00    +0.000 C 
BRANCH  26  27
ATOM     27  C   UNL     1       0.578  13.555  19.869  0.00  0.00    +0.000 C 
ATOM     28  C   UNL     1      -0.008  13.080  18.560  0.00  0.00    +0.000 C 
ATOM     29  C   UNL     1      -0.879  13.791  19.556  0.00  0.00    +0.000 C 
ENDBRANCH  26  27
ENDBRANCH  25  26
ENDBRANCH  24  25
ENDBRANCH  23  24
ENDBRANCH   7  23
TORSDOF 8
ENDMDL
MODEL 8
REMARK VINA RESULT:      -6.6      2.616     10.619
REMARK  Name = 
REMARK  10 active torsions:
REMARK  status: ('A' for Active; 'I' for Inactive)
REMARK    1  A    between atoms: C_1  and  O_2
REMARK    2  A    between atoms: O_2  and  C_3
REMARK    3  A    between atoms: C_5  and  C_6
REMARK    4  A    between atoms: C_7  and  C_8
REMARK    5  A    between atoms: N_14  and  C_15
REMARK    6  A    between atoms: C_15  and  C_16
REMARK    7  A    between atoms: C_16  and  O_17
REMARK    8  A    between atoms: O_17  and  C_18
REMARK    9  A    between atoms: C_18  and  C_19
REMARK   10  A    between atoms: C_23  and  C_24
REMARK                            x       y       z     vdW  Elec       q    Type
REMARK                         _______ _______ _______ _____ _____    ______ ____
ROOT
ATOM      1  C   UNL     1       3.934   5.719  17.919  0.00  0.00    +0.000 A 
ATOM      2  S   UNL     1       3.173   7.247  18.160  0.00  0.00    +0.000 S 
ATOM      3  C   UNL     1       2.639   6.773  19.719  0.00  0.00    +0.000 A 
ATOM      4  N   UNL     1       1.897   7.589  20.562  0.00  0.00    +0.000 N 
ATOM      5  C   UNL     1       1.186   8.699  20.182  0.00  0.00    +0.000 C 
ATOM      6  O   UNL     1       1.098   9.140  19.039  0.00  0.00    +0.000 OA
ATOM      7  N   UNL     1       0.484   9.303  21.228  0.00  0.00    +0.000 N 
ATOM      8  N   UNL     1       3.028   5.569  20.087  0.00  0.00    +0.000 NA
ATOM      9  C   UNL     1       3.729   4.945  19.051  0.00  0.00    +0.000 A 
ATOM     10  C   UNL     1       4.174   3.537  19.243  0.00  0.00    +0.000 C 
ATOM     11  H   UNL     1       1.699   7.175  21.460  0.00  0.00    +0.000 HD
ATOM     12  H   UNL     1       0.870   9.225  22.159  0.00  0.00    +0.000 HD
ENDROOT
BRANCH   1  14
ATOM     13  C   UNL     1       5.201   4.963  15.715  0.00  0.00    +0.000 C 
ATOM     14  C   UNL     1       4.642   5.318  16.724  0.00  0.00    +0.000 C 
BRANCH  13  17
ATOM     15  C   UNL     1       5.923   3.413  12.381  0.00  0.00    +0.000 A 
ATOM     16  C   UNL     1       5.254   3.698  13.573  0.00  0.00    +0.000 A 
ATOM     17  C   UNL     1       5.844   4.588  14.481  0.00  0.00    +0.000 A 
ATOM     18  C   UNL     1       7.090   5.129  14.154  0.00  0.00    +0.000 A 
ATOM     19  C   UNL     1       7.681   4.773  12.950  0.00  0.00    +0.000 A 
ATOM     20  N   UNL     1       7.123   3.932  12.056  0.00  0.00    +0.000 NA
BRANCH  15  22
ATOM     21  C   UNL     1       4.017   2.995  11.073  0.00  0.00    +0.000 C 
ATOM     22  O   UNL     1       5.302   2.547  11.498  0.00  0.00    +0.000 OA
ENDBRANCH  15  22
ENDBRANCH  13  17
ENDBRANCH   1  14
BRANCH   7  23
ATOM     23  C   UNL     1      -0.222  10.549  20.922  0.00  0.00    +0.000 C 
BRANCH  23  24
ATOM     24  C   UNL     1       0.576  11.852  21.072  0.00  0.00    +0.000 C 
BRANCH  24  25
ATOM     25  O   UNL     1       0.808  12.480  19.804  0.00  0.00    +0.000 OA
BRANCH  25  26
ATOM     26  C   UNL     1       2.133  13.028  19.737  0.00  0.00    +0.000 C 
BRANCH  26  27
ATOM     27  C   UNL     1       2.294  13.796  18.461  0.00  0.00    +0.000 C 
ATOM     28  C   UNL     1       2.332  15.306  18.503  0.00  0.00    +0.000 C 
ATOM     29  C   UNL     1       3.568  14.536  18.135  0.00  0.00    +0.000 C 
ENDBRANCH  26  27
ENDBRANCH  25  26
ENDBRANCH  24  25
ENDBRANCH  23  24
ENDBRANCH   7  23
TORSDOF 8
ENDMDL
MODEL 9
REMARK VINA RESULT:      -6.5      4.373      6.331
REMARK  Name = 
REMARK  10 active torsions:
REMARK  status: ('A' for Active; 'I' for Inactive)
REMARK    1  A    between atoms: C_1  and  O_2
REMARK    2  A    between atoms: O_2  and  C_3
REMARK    3  A    between atoms: C_5  and  C_6
REMARK    4  A    between atoms: C_7  and  C_8
REMARK    5  A    between atoms: N_14  and  C_15
REMARK    6  A    between atoms: C_15  and  C_16
REMARK    7  A    between atoms: C_16  and  O_17
REMARK    8  A    between atoms: O_17  and  C_18
REMARK    9  A    between atoms: C_18  and  C_19
REMARK   10  A    between atoms: C_23  and  C_24
REMARK                            x       y       z     vdW  Elec       q    Type
REMARK                         _______ _______ _______ _____ _____    ______ ____
ROOT
ATOM      1  C   UNL     1      -0.332  10.689  19.854  0.00  0.00    +0.000 A 
ATOM      2  S   UNL     1       0.956   9.583  20.156  0.00  0.00    +0.000 S 
ATOM      3  C   UNL     1       1.070   9.208  18.487  0.00  0.00    +0.000 A 
ATOM      4  N   UNL     1       1.982   8.304  17.960  0.00  0.00    +0.000 N 
ATOM      5  C   UNL     1       2.653   7.338  18.665  0.00  0.00    +0.000 C 
ATOM      6  O   UNL     1       2.549   7.126  19.870  0.00  0.00    +0.000 OA
ATOM      7  N   UNL     1       3.471   6.528  17.874  0.00  0.00    +0.000 N 
ATOM      8  N   UNL     1       0.242   9.884  17.717  0.00  0.00    +0.000 NA
ATOM      9  C   UNL     1      -0.590  10.698  18.492  0.00  0.00    +0.000 A 
ATOM     10  C   UNL     1      -1.660  11.475  17.807  0.00  0.00    +0.000 C 
ATOM     11  H   UNL     1       1.947   8.228  16.954  0.00  0.00    +0.000 HD
ATOM     12  H   UNL     1       3.872   6.938  17.041  0.00  0.00    +0.000 HD
ENDROOT
BRANCH   1  14
ATOM     13  C   UNL     1      -1.585  12.083  21.731  0.00  0.00    +0.000 C 
ATOM     14  C   UNL     1      -1.031  11.452  20.863  0.00  0.00    +0.000 C 
BRANCH  13  17
ATOM     15  C   UNL     1      -4.116  13.587  24.048  0.00  0.00    +0.000 A 
ATOM     16  C   UNL     1      -3.588  12.804  23.020  0.00  0.00    +0.000 A 
ATOM     17  C   UNL     1      -2.215  12.885  22.749  0.00  0.00    +0.000 A 
ATOM     18  C   UNL     1      -1.447  13.769  23.511  0.00  0.00    +0.000 A 
ATOM     19  C   UNL     1      -2.069  14.516  24.502  0.00  0.00    +0.000 A 
ATOM     20  N   UNL     1      -3.384  14.440  24.789  0.00  0.00    +0.000 NA
BRANCH  15  22
ATOM     21  C   UNL     1      -6.212  12.944  23.201  0.00  0.00    +0.000 C 
ATOM     22  O   UNL     1      -5.472  13.465  24.303  0.00  0.00    +0.000 OA
ENDBRANCH  15  22
ENDBRANCH  13  17
ENDBRANCH   1  14
BRANCH   7  23
ATOM     23  C   UNL     1       4.295   5.536  18.566  0.00  0.00    +0.000 C 
BRANCH  23  24
ATOM     24  C   UNL     1       3.899   4.063  18.391  0.00  0.00    +0.000 C 
BRANCH  24  25
ATOM     25  O   UNL     1       2.505   3.920  18.087  0.00  0.00    +0.000 OA
BRANCH  25  26
ATOM     26  C   UNL     1       2.010   2.649  18.533  0.00  0.00    +0.000 C 
BRANCH  26  27
ATOM     27  C   UNL     1       0.953   2.860  19.573  0.00  0.00    +0.000 C 
ATOM     28  C   UNL     1       1.314   2.738  21.036  0.00  0.00    +0.000 C 
ATOM     29  C   UNL     1       0.949   4.078  20.464  0.00  0.00    +0.000 C 
ENDBRANCH  26  27
ENDBRANCH  25  26
ENDBRANCH  24  25
ENDBRANCH  23  24
ENDBRANCH   7  23
TORSDOF 8
ENDMDL
