MODEL 1
REMARK VINA RESULT:      -7.4      0.000      0.000
REMARK  Name = 
REMARK  0 active torsions:
REMARK  status: ('A' for Active; 'I' for Inactive)
REMARK                            x       y       z     vdW  Elec       q    Type
REMARK                         _______ _______ _______ _____ _____    ______ ____
ROOT
ATOM      1  O   UNL     1       7.815   6.756  16.360  0.00  0.00    +0.000 OA
ATOM      2  C   UNL     1       6.869   6.005  16.558  0.00  0.00    +0.000 A 
ATOM      3  C   UNL     1       6.577   4.891  15.644  0.00  0.00    +0.000 A 
ATOM      4  C   UNL     1       5.544   4.075  15.865  0.00  0.00    +0.000 A 
ATOM      5  C   UNL     1       4.630   4.231  17.034  0.00  0.00    +0.000 A 
ATOM      6  N   UNL     1       3.667   3.368  17.132  0.00  0.00    +0.000 NA
ATOM      7  C   UNL     1       2.745   3.417  18.192  0.00  0.00    +0.000 A 
ATOM      8  C   UNL     1       1.741   2.438  18.206  0.00  0.00    +0.000 A 
ATOM      9  C   UNL     1       0.776   2.399  19.218  0.00  0.00    +0.000 A 
ATOM     10  C   UNL     1       0.803   3.345  20.236  0.00  0.00    +0.000 A 
ATOM     11  C   UNL     1       1.794   4.323  20.235  0.00  0.00    +0.000 A 
ATOM     12  C   UNL     1       2.764   4.366  19.222  0.00  0.00    +0.000 A 
ATOM     13  S   UNL     1       3.970   5.661  19.335  0.00  0.00    +0.000 S 
ATOM     14  C   UNL     1       4.946   5.371  17.951  0.00  0.00    +0.000 A 
ATOM     15  C   UNL     1       5.985   6.180  17.715  0.00  0.00    +0.000 A 
ENDROOT
TORSDOF 0
ENDMDL
MODEL 2
REMARK VINA RESULT:      -7.3      1.389      2.250
REMARK  Name = 
REMARK  0 active torsions:
REMARK  status: ('A' for Active; 'I' for Inactive)
REMARK                            x       y       z     vdW  Elec       q    Type
REMARK                         _______ _______ _______ _____ _____    ______ ____
ROOT
ATOM      1  O   UNL     1       7.621   5.292  14.916  0.00  0.00    +0.000 OA
ATOM      2  C   UNL     1       6.880   5.278  15.889  0.00  0.00    +0.000 A 
ATOM      3  C   UNL     1       7.168   6.093  17.078  0.00  0.00    +0.000 A 
ATOM      4  C   UNL     1       6.355   6.074  18.137  0.00  0.00    +0.000 A 
ATOM      5  C   UNL     1       5.119   5.241  18.188  0.00  0.00    +0.000 A 
ATOM      6  N   UNL     1       4.417   5.317  19.275  0.00  0.00    +0.000 NA
ATOM      7  C   UNL     1       3.233   4.577  19.436  0.00  0.00    +0.000 A 
ATOM      8  C   UNL     1       2.548   4.730  20.650  0.00  0.00    +0.000 A 
ATOM      9  C   UNL     1       1.359   4.040  20.908  0.00  0.00    +0.000 A 
ATOM     10  C   UNL     1       0.836   3.180  19.948  0.00  0.00    +0.000 A 
ATOM     11  C   UNL     1       1.506   3.018  18.738  0.00  0.00    +0.000 A 
ATOM     12  C   UNL     1       2.699   3.709  18.475  0.00  0.00    +0.000 A 
ATOM     13  S   UNL     1       3.453   3.414  16.898  0.00  0.00    +0.000 S 
ATOM     14  C   UNL     1       4.845   4.419  16.967  0.00  0.00    +0.000 A 
ATOM     15  C   UNL     1       5.670   4.449  15.914  0.00  0.00    +0.000 A 
ENDROOT
TORSDOF 0
ENDMDL
MODEL 3
REMARK VINA RESULT:      -7.2      2.890      5.591
REMARK  Name = 
REMARK  0 active torsions:
REMARK  status: ('A' for Active; 'I' for Inactive)
REMARK                            x       y       z     vdW  Elec       q    Type
REMARK                         _______ _______ _______ _____ _____    ______ ____
ROOT
ATOM      1  O   UNL     1       0.381   2.423  18.463  0.00  0.00    +0.000 OA
ATOM      2  C   UNL     1       1.518   2.832  18.658  0.00  0.00    +0.000 A 
ATOM      3  C   UNL     1       2.411   2.170  19.620  0.00  0.00    +0.000 A 
ATOM      4  C   UNL     1       3.650   2.621  19.828  0.00  0.00    +0.000 A 
ATOM      5  C   UNL     1       4.207   3.805  19.112  0.00  0.00    +0.000 A 
ATOM      6  N   UNL     1       5.426   4.136  19.406  0.00  0.00    +0.000 NA
ATOM      7  C   UNL     1       6.055   5.235  18.794  0.00  0.00    +0.000 A 
ATOM      8  C   UNL     1       7.374   5.508  19.182  0.00  0.00    +0.000 A 
ATOM      9  C   UNL     1       8.088   6.578  18.632  0.00  0.00    +0.000 A 
ATOM     10  C   UNL     1       7.488   7.393  17.679  0.00  0.00    +0.000 A 
ATOM     11  C   UNL     1       6.178   7.133  17.284  0.00  0.00    +0.000 A 
ATOM     12  C   UNL     1       5.458   6.061  17.834  0.00  0.00    +0.000 A 
ATOM     13  S   UNL     1       3.800   5.838  17.248  0.00  0.00    +0.000 S 
ATOM     14  C   UNL     1       3.281   4.463  18.137  0.00  0.00    +0.000 A 
ATOM     15  C   UNL     1       2.042   3.999  17.941  0.00  0.00    +0.000 A 
ENDROOT
TORSDOF 0
ENDMDL
MODEL 4
REMARK VINA RESULT:      -7.1      1.750      2.129
REMARK  Name = 
REMARK  0 active torsions:
REMARK  status: ('A' for Active; 'I' for Inactive)
REMARK                            x       y       z     vdW  Elec       q    Type
REMARK                         _______ _______ _______ _____ _____    ______ ____
ROOT
ATOM      1  O   UNL     1       7.817   7.992  17.028  0.00  0.00    +0.000 OA
ATOM      2  C   UNL     1       7.183   7.122  17.610  0.00  0.00    +0.000 A 
ATOM      3  C   UNL     1       7.818   6.265  18.622  0.00  0.00    +0.000 A 
ATOM      4  C   UNL     1       7.121   5.318  19.255  0.00  0.00    +0.000 A 
ATOM      5  C   UNL     1       5.676   5.067  18.985  0.00  0.00    +0.000 A 
ATOM      6  N   UNL     1       5.119   4.118  19.670  0.00  0.00    +0.000 NA
ATOM      7  C   UNL     1       3.761   3.792  19.501  0.00  0.00    +0.000 A 
ATOM      8  C   UNL     1       3.255   2.750  20.291  0.00  0.00    +0.000 A 
ATOM      9  C   UNL     1       1.918   2.349  20.199  0.00  0.00    +0.000 A 
ATOM     10  C   UNL     1       1.064   2.991  19.310  0.00  0.00    +0.000 A 
ATOM     11  C   UNL     1       1.553   4.028  18.519  0.00  0.00    +0.000 A 
ATOM     12  C   UNL     1       2.894   4.433  18.608  0.00  0.00    +0.000 A 
ATOM     13  S   UNL     1       3.391   5.763  17.547  0.00  0.00    +0.000 S 
ATOM     14  C   UNL     1       5.050   5.950  17.951  0.00  0.00    +0.000 A 
ATOM     15  C   UNL     1       5.763   6.895  17.327  0.00  0.00    +0.000 A 
ENDROOT
TORSDOF 0
ENDMDL
MODEL 5
REMARK VINA RESULT:      -6.8      2.567      5.426
REMARK  Name = 
REMARK  0 active torsions:
REMARK  status: ('A' for Active; 'I' for Inactive)
REMARK                            x       y       z     vdW  Elec       q    Type
REMARK                         _______ _______ _______ _____ _____    ______ ____
ROOT
ATOM      1  O   UNL     1       1.089   2.872  21.632  0.00  0.00    +0.000 OA
ATOM      2  C   UNL     1       1.667   3.032  20.565  0.00  0.00    +0.000 A 
ATOM      3  C   UNL     1       1.085   2.552  19.303  0.00  0.00    +0.000 A 
ATOM      4  C   UNL     1       1.719   2.731  18.143  0.00  0.00    +0.000 A 
ATOM      5  C   UNL     1       3.039   3.419  18.044  0.00  0.00    +0.000 A 
ATOM      6  N   UNL     1       3.545   3.527  16.856  0.00  0.00    +0.000 NA
ATOM      7  C   UNL     1       4.784   4.157  16.642  0.00  0.00    +0.000 A 
ATOM      8  C   UNL     1       5.243   4.223  15.318  0.00  0.00    +0.000 A 
ATOM      9  C   UNL     1       6.463   4.829  14.999  0.00  0.00    +0.000 A 
ATOM     10  C   UNL     1       7.245   5.381  16.007  0.00  0.00    +0.000 A 
ATOM     11  C   UNL     1       6.801   5.323  17.326  0.00  0.00    +0.000 A 
ATOM     12  C   UNL     1       5.579   4.715  17.650  0.00  0.00    +0.000 A 
ATOM     13  S   UNL     1       5.130   4.706  19.365  0.00  0.00    +0.000 S 
ATOM     14  C   UNL     1       3.614   3.899  19.341  0.00  0.00    +0.000 A 
ATOM     15  C   UNL     1       2.965   3.712  20.495  0.00  0.00    +0.000 A 
ENDROOT
TORSDOF 0
ENDMDL
MODEL 6
REMARK VINA RESULT:      -6.7      2.964      5.668
REMARK  Name = 
REMARK  0 active torsions:
REMARK  status: ('A' for Active; 'I' for Inactive)
REMARK                            x       y       z     vdW  Elec       q    Type
REMARK                         _______ _______ _______ _____ _____    ______ ____
ROOT
ATOM      1  O   UNL     1       1.411   2.490  22.023  0.00  0.00    +0.000 OA
ATOM      2  C   UNL     1       1.913   3.215  21.175  0.00  0.00    +0.000 A 
ATOM      3  C   UNL     1       1.782   4.677  21.247  0.00  0.00    +0.000 A 
ATOM      4  C   UNL     1       2.332   5.463  20.320  0.00  0.00    +0.000 A 
ATOM      5  C   UNL     1       3.107   4.924  19.165  0.00  0.00    +0.000 A 
ATOM      6  N   UNL     1       3.591   5.796  18.337  0.00  0.00    +0.000 NA
ATOM      7  C   UNL     1       4.338   5.404  17.213  0.00  0.00    +0.000 A 
ATOM      8  C   UNL     1       4.816   6.426  16.380  0.00  0.00    +0.000 A 
ATOM      9  C   UNL     1       5.571   6.142  15.237  0.00  0.00    +0.000 A 
ATOM     10  C   UNL     1       5.859   4.821  14.910  0.00  0.00    +0.000 A 
ATOM     11  C   UNL     1       5.391   3.796  15.728  0.00  0.00    +0.000 A 
ATOM     12  C   UNL     1       4.633   4.078  16.876  0.00  0.00    +0.000 A 
ATOM     13  S   UNL     1       4.096   2.684  17.830  0.00  0.00    +0.000 S 
ATOM     14  C   UNL     1       3.229   3.432  19.111  0.00  0.00    +0.000 A 
ATOM     15  C   UNL     1       2.671   2.659  20.049  0.00  0.00    +0.000 A 
ENDROOT
TORSDOF 0
ENDMDL
MODEL 7
REMARK VINA RESULT:      -6.5      1.610      1.936
REMARK  Name = 
REMARK  0 active torsions:
REMARK  status: ('A' for Active; 'I' for Inactive)
REMARK                            x       y       z     vdW  Elec       q    Type
REMARK                         _______ _______ _______ _____ _____    ______ ____
ROOT
ATOM      1  O   UNL     1       6.631   6.033  15.028  0.00  0.00    +0.000 OA
ATOM      2  C   UNL     1       6.199   5.487  16.035  0.00  0.00    +0.000 A 
ATOM      3  C   UNL     1       7.104   4.863  17.011  0.00  0.00    +0.000 A 
ATOM      4  C   UNL     1       6.626   4.269  18.107  0.00  0.00    +0.000 A 
ATOM      5  C   UNL     1       5.169   4.199  18.415  0.00  0.00    +0.000 A 
ATOM      6  N   UNL     1       4.840   3.595  19.514  0.00  0.00    +0.000 NA
ATOM      7  C   UNL     1       3.496   3.469  19.907  0.00  0.00    +0.000 A 
ATOM      8  C   UNL     1       3.247   2.799  21.113  0.00  0.00    +0.000 A 
ATOM      9  C   UNL     1       1.945   2.621  21.593  0.00  0.00    +0.000 A 
ATOM     10  C   UNL     1       0.867   3.115  20.867  0.00  0.00    +0.000 A 
ATOM     11  C   UNL     1       1.100   3.783  19.667  0.00  0.00    +0.000 A 
ATOM     12  C   UNL     1       2.404   3.964  19.182  0.00  0.00    +0.000 A 
ATOM     13  S   UNL     1       2.564   4.829  17.644  0.00  0.00    +0.000 S 
ATOM     14  C   UNL     1       4.266   4.841  17.408  0.00  0.00    +0.000 A 
ATOM     15  C   UNL     1       4.761   5.432  16.314  0.00  0.00    +0.000 A 
ENDROOT
TORSDOF 0
ENDMDL
MODEL 8
REMARK VINA RESULT:      -6.4      1.581      1.943
REMARK  Name = 
REMARK  0 active torsions:
REMARK  status: ('A' for Active; 'I' for Inactive)
REMARK                            x       y       z     vdW  Elec       q    Type
REMARK                         _______ _______ _______ _____ _____    ______ ____
ROOT
ATOM      1  O   UNL     1       7.618   6.159  16.014  0.00  0.00    +0.000 OA
ATOM      2  C   UNL     1       6.547   5.975  16.576  0.00  0.00    +0.000 A 
ATOM      3  C   UNL     1       5.383   6.827  16.295  0.00  0.00    +0.000 A 
ATOM      4  C   UNL     1       4.216   6.622  16.910  0.00  0.00    +0.000 A 
ATOM      5  C   UNL     1       4.014   5.532  17.909  0.00  0.00    +0.000 A 
ATOM      6  N   UNL     1       2.832   5.441  18.431  0.00  0.00    +0.000 NA
ATOM      7  C   UNL     1       2.526   4.452  19.383  0.00  0.00    +0.000 A 
ATOM      8  C   UNL     1       1.217   4.439  19.887  0.00  0.00    +0.000 A 
ATOM      9  C   UNL     1       0.811   3.496  20.836  0.00  0.00    +0.000 A 
ATOM     10  C   UNL     1       1.715   2.546  21.297  0.00  0.00    +0.000 A 
ATOM     11  C   UNL     1       3.018   2.547  20.806  0.00  0.00    +0.000 A 
ATOM     12  C   UNL     1       3.430   3.492  19.853  0.00  0.00    +0.000 A 
ATOM     13  S   UNL     1       5.114   3.387  19.311  0.00  0.00    +0.000 S 
ATOM     14  C   UNL     1       5.213   4.677  18.180  0.00  0.00    +0.000 A 
ATOM     15  C   UNL     1       6.375   4.896  17.554  0.00  0.00    +0.000 A 
ENDROOT
TORSDOF 0
ENDMDL
MODEL 9
REMARK VINA RESULT:      -6.4      2.710      5.347
REMARK  Name = 
REMARK  0 active torsions:
REMARK  status: ('A' for Active; 'I' for Inactive)
REMARK                            x       y       z     vdW  Elec       q    Type
REMARK                         _______ _______ _______ _____ _____    ______ ____
ROOT
ATOM      1  O   UNL     1       1.128   2.768  22.225  0.00  0.00    +0.000 OA
ATOM      2  C   UNL     1       1.720   2.902  21.163  0.00  0.00    +0.000 A 
ATOM      3  C   UNL     1       1.892   1.772  20.239  0.00  0.00    +0.000 A 
ATOM      4  C   UNL     1       2.539   1.923  19.081  0.00  0.00    +0.000 A 
ATOM      5  C   UNL     1       3.122   3.227  18.650  0.00  0.00    +0.000 A 
ATOM      6  N   UNL     1       3.724   3.238  17.501  0.00  0.00    +0.000 NA
ATOM      7  C   UNL     1       4.311   4.409  16.993  0.00  0.00    +0.000 A 
ATOM      8  C   UNL     1       4.936   4.315  15.741  0.00  0.00    +0.000 A 
ATOM      9  C   UNL     1       5.549   5.423  15.147  0.00  0.00    +0.000 A 
ATOM     10  C   UNL     1       5.544   6.649  15.802  0.00  0.00    +0.000 A 
ATOM     11  C   UNL     1       4.926   6.758  17.046  0.00  0.00    +0.000 A 
ATOM     12  C   UNL     1       4.310   5.648  17.645  0.00  0.00    +0.000 A 
ATOM     13  S   UNL     1       3.562   5.919  19.229  0.00  0.00    +0.000 S 
ATOM     14  C   UNL     1       2.936   4.364  19.606  0.00  0.00    +0.000 A 
ATOM     15  C   UNL     1       2.285   4.194  20.762  0.00  0.00    +0.000 A 
ENDROOT
TORSDOF 0
ENDMDL
