MODEL 1
REMARK VINA RESULT:      -8.5      0.000      0.000
REMARK  Name = 
REMARK  7 active torsions:
REMARK  status: ('A' for Active; 'I' for Inactive)
REMARK    1  A    between atoms: C_1  and  C_2
REMARK    2  A    between atoms: C_2  and  C_3
REMARK    3  A    between atoms: C_7  and  O_8
REMARK    4  A    between atoms: O_8  and  C_9
REMARK    5  A    between atoms: C_15  and  C_16
REMARK    6  A    between atoms: C_19  and  S_20
REMARK    7  A    between atoms: S_20  and  C_21
REMARK                            x       y       z     vdW  Elec       q    Type
REMARK                         _______ _______ _______ _____ _____    ______ ____
ROOT
ATOM      1  C   UNL     1       0.904   3.618  20.725  0.00  0.00    +0.000 C 
ATOM      2  C   UNL     1       1.886   3.667  19.553  0.00  0.00    +0.000 C 
ATOM      3  C   UNL     1       1.151   3.496  18.221  0.00  0.00    +0.000 C 
ATOM      4  O   UNL     1       2.772   2.543  19.701  0.00  0.00    +0.000 OA
ATOM      5  C   UNL     1       4.068   2.973  19.797  0.00  0.00    +0.000 C 
ATOM      6  O   UNL     1       5.027   2.221  19.824  0.00  0.00    +0.000 OA
ATOM      7  C   UNL     1       4.074   4.450  19.757  0.00  0.00    +0.000 C 
ATOM      8  C   UNL     1       2.808   4.839  19.579  0.00  0.00    +0.000 C 
ENDROOT
BRANCH   8   9
ATOM      9  C   UNL     1       2.364   6.223  19.410  0.00  0.00    +0.000 A 
ATOM     10  C   UNL     1       2.427   6.842  18.153  0.00  0.00    +0.000 A 
ATOM     11  C   UNL     1       2.021   8.169  17.993  0.00  0.00    +0.000 A 
ATOM     12  C   UNL     1       1.533   8.877  19.093  0.00  0.00    +0.000 A 
ATOM     13  C   UNL     1       1.487   8.285  20.357  0.00  0.00    +0.000 A 
ATOM     14  C   UNL     1       1.903   6.958  20.510  0.00  0.00    +0.000 A 
BRANCH  12  15
ATOM     15  S   UNL     1       0.991  10.558  18.887  0.00  0.00    +0.000 S 
ATOM     16  C   UNL     1       0.816  11.131  20.558  0.00  0.00    +0.000 C 
ATOM     17  O   UNL     1       2.075  11.295  18.266  0.00  0.00    +0.000 OA
ATOM     18  O   UNL     1      -0.328  10.525  18.285  0.00  0.00    +0.000 OA
ENDBRANCH  12  15
ENDBRANCH   8   9
BRANCH   7  19
ATOM     19  O   UNL     1       5.182   5.263  19.757  0.00  0.00    +0.000 OA
BRANCH  19  20
ATOM     20  C   UNL     1       5.931   5.325  18.593  0.00  0.00    +0.000 A 
ATOM     21  C   UNL     1       5.572   6.279  17.650  0.00  0.00    +0.000 A 
ATOM     22  C   UNL     1       6.304   6.343  16.468  0.00  0.00    +0.000 A 
ATOM     23  C   UNL     1       7.361   5.459  16.278  0.00  0.00    +0.000 A 
ATOM     24  C   UNL     1       7.665   4.566  17.294  0.00  0.00    +0.000 A 
ATOM     25  N   UNL     1       6.995   4.498  18.468  0.00  0.00    +0.000 NA
ENDBRANCH  19  20
ENDBRANCH   7  19
TORSDOF 4
ENDMDL
MODEL 2
REMARK VINA RESULT:      -8.4      0.353      1.031
REMARK  Name = 
REMARK  7 active torsions:
REMARK  status: ('A' for Active; 'I' for Inactive)
REMARK    1  A    between atoms: C_1  and  C_2
REMARK    2  A    between atoms: C_2  and  C_3
REMARK    3  A    between atoms: C_7  and  O_8
REMARK    4  A    between atoms: O_8  and  C_9
REMARK    5  A    between atoms: C_15  and  C_16
REMARK    6  A    between atoms: C_19  and  S_20
REMARK    7  A    between atoms: S_20  and  C_21
REMARK                            x       y       z     vdW  Elec       q    Type
REMARK                         _______ _______ _______ _____ _____    ______ ____
ROOT
ATOM      1  C   UNL     1       1.129   3.728  21.015  0.00  0.00    +0.000 C 
ATOM      2  C   UNL     1       1.938   3.719  19.716  0.00  0.00    +0.000 C 
ATOM      3  C   UNL     1       1.022   3.511  18.507  0.00  0.00    +0.000 C 
ATOM      4  O   UNL     1       2.825   2.589  19.782  0.00  0.00    +0.000 OA
ATOM      5  C   UNL     1       4.126   3.003  19.680  0.00  0.00    +0.000 C 
ATOM      6  O   UNL     1       5.071   2.238  19.600  0.00  0.00    +0.000 OA
ATOM      7  C   UNL     1       4.140   4.477  19.582  0.00  0.00    +0.000 C 
ATOM      8  C   UNL     1       2.865   4.878  19.568  0.00  0.00    +0.000 C 
ENDROOT
BRANCH   8   9
ATOM      9  C   UNL     1       2.416   6.262  19.410  0.00  0.00    +0.000 A 
ATOM     10  C   UNL     1       1.903   6.972  20.506  0.00  0.00    +0.000 A 
ATOM     11  C   UNL     1       1.455   8.287  20.353  0.00  0.00    +0.000 A 
ATOM     12  C   UNL     1       1.538   8.902  19.101  0.00  0.00    +0.000 A 
ATOM     13  C   UNL     1       2.022   8.200  17.995  0.00  0.00    +0.000 A 
ATOM     14  C   UNL     1       2.460   6.881  18.155  0.00  0.00    +0.000 A 
BRANCH  12  15
ATOM     15  S   UNL     1       0.993  10.583  18.910  0.00  0.00    +0.000 S 
ATOM     16  C   UNL     1       0.819  11.142  20.586  0.00  0.00    +0.000 C 
ATOM     17  O   UNL     1       2.074  11.327  18.294  0.00  0.00    +0.000 OA
ATOM     18  O   UNL     1      -0.327  10.553  18.309  0.00  0.00    +0.000 OA
ENDBRANCH  12  15
ENDBRANCH   8   9
BRANCH   7  19
ATOM     19  O   UNL     1       5.245   5.273  19.397  0.00  0.00    +0.000 OA
BRANCH  19  20
ATOM     20  C   UNL     1       5.893   5.194  18.174  0.00  0.00    +0.000 A 
ATOM     21  C   UNL     1       5.282   5.801  17.086  0.00  0.00    +0.000 A 
ATOM     22  C   UNL     1       5.912   5.716  15.847  0.00  0.00    +0.000 A 
ATOM     23  C   UNL     1       7.121   5.036  15.748  0.00  0.00    +0.000 A 
ATOM     24  C   UNL     1       7.669   4.494  16.901  0.00  0.00    +0.000 A 
ATOM     25  N   UNL     1       7.101   4.585  18.125  0.00  0.00    +0.000 NA
ENDBRANCH  19  20
ENDBRANCH   7  19
TORSDOF 4
ENDMDL
MODEL 3
REMARK VINA RESULT:      -8.2      1.045      1.514
REMARK  Name = 
REMARK  7 active torsions:
REMARK  status: ('A' for Active; 'I' for Inactive)
REMARK    1  A    between atoms: C_1  and  C_2
REMARK    2  A    between atoms: C_2  and  C_3
REMARK    3  A    between atoms: C_7  and  O_8
REMARK    4  A    between atoms: O_8  and  C_9
REMARK    5  A    between atoms: C_15  and  C_16
REMARK    6  A    between atoms: C_19  and  S_20
REMARK    7  A    between atoms: S_20  and  C_21
REMARK                            x       y       z     vdW  Elec       q    Type
REMARK                         _______ _______ _______ _____ _____    ______ ____
ROOT
ATOM      1  C   UNL     1       1.091   3.385  21.023  0.00  0.00    +0.000 C 
ATOM      2  C   UNL     1       1.997   3.361  19.791  0.00  0.00    +0.000 C 
ATOM      3  C   UNL     1       1.173   3.164  18.516  0.00  0.00    +0.000 C 
ATOM      4  O   UNL     1       2.859   2.217  19.925  0.00  0.00    +0.000 OA
ATOM      5  C   UNL     1       4.169   2.610  19.922  0.00  0.00    +0.000 C 
ATOM      6  O   UNL     1       5.106   1.830  19.916  0.00  0.00    +0.000 OA
ATOM      7  C   UNL     1       4.214   4.084  19.825  0.00  0.00    +0.000 C 
ATOM      8  C   UNL     1       2.951   4.504  19.713  0.00  0.00    +0.000 C 
ENDROOT
BRANCH   8   9
ATOM      9  C   UNL     1       2.536   5.895  19.520  0.00  0.00    +0.000 A 
ATOM     10  C   UNL     1       1.986   6.626  20.582  0.00  0.00    +0.000 A 
ATOM     11  C   UNL     1       1.572   7.948  20.395  0.00  0.00    +0.000 A 
ATOM     12  C   UNL     1       1.726   8.547  19.143  0.00  0.00    +0.000 A 
ATOM     13  C   UNL     1       2.248   7.824  18.068  0.00  0.00    +0.000 A 
ATOM     14  C   UNL     1       2.652   6.499  18.262  0.00  0.00    +0.000 A 
BRANCH  12  15
ATOM     15  S   UNL     1       1.224  10.237  18.909  0.00  0.00    +0.000 S 
ATOM     16  C   UNL     1      -0.344  10.080  18.092  0.00  0.00    +0.000 C 
ATOM     17  O   UNL     1       0.997  10.813  20.220  0.00  0.00    +0.000 OA
ATOM     18  O   UNL     1       2.154  10.847  17.978  0.00  0.00    +0.000 OA
ENDBRANCH  12  15
ENDBRANCH   8   9
BRANCH   7  19
ATOM     19  O   UNL     1       5.343   4.861  19.724  0.00  0.00    +0.000 OA
BRANCH  19  20
ATOM     20  C   UNL     1       5.861   5.077  18.457  0.00  0.00    +0.000 A 
ATOM     21  C   UNL     1       6.799   6.089  18.312  0.00  0.00    +0.000 A 
ATOM     22  C   UNL     1       7.317   6.329  17.042  0.00  0.00    +0.000 A 
ATOM     23  C   UNL     1       6.881   5.549  15.976  0.00  0.00    +0.000 A 
ATOM     24  C   UNL     1       5.967   4.538  16.229  0.00  0.00    +0.000 A 
ATOM     25  N   UNL     1       5.468   4.257  17.454  0.00  0.00    +0.000 NA
ENDBRANCH  19  20
ENDBRANCH   7  19
TORSDOF 4
ENDMDL
MODEL 4
REMARK VINA RESULT:      -8.2      1.068      1.548
REMARK  Name = 
REMARK  7 active torsions:
REMARK  status: ('A' for Active; 'I' for Inactive)
REMARK    1  A    between atoms: C_1  and  C_2
REMARK    2  A    between atoms: C_2  and  C_3
REMARK    3  A    between atoms: C_7  and  O_8
REMARK    4  A    between atoms: O_8  and  C_9
REMARK    5  A    between atoms: C_15  and  C_16
REMARK    6  A    between atoms: C_19  and  S_20
REMARK    7  A    between atoms: S_20  and  C_21
REMARK                            x       y       z     vdW  Elec       q    Type
REMARK                         _______ _______ _______ _____ _____    ______ ____
ROOT
ATOM      1  C   UNL     1       1.249   3.477  21.288  0.00  0.00    +0.000 C 
ATOM      2  C   UNL     1       1.941   3.395  19.926  0.00  0.00    +0.000 C 
ATOM      3  C   UNL     1       0.917   3.184  18.808  0.00  0.00    +0.000 C 
ATOM      4  O   UNL     1       2.789   2.233  19.955  0.00  0.00    +0.000 OA
ATOM      5  C   UNL     1       4.090   2.592  19.728  0.00  0.00    +0.000 C 
ATOM      6  O   UNL     1       4.997   1.789  19.595  0.00  0.00    +0.000 OA
ATOM      7  C   UNL     1       4.149   4.061  19.578  0.00  0.00    +0.000 C 
ATOM      8  C   UNL     1       2.894   4.511  19.659  0.00  0.00    +0.000 C 
ENDROOT
BRANCH   8   9
ATOM      9  C   UNL     1       2.482   5.906  19.492  0.00  0.00    +0.000 A 
ATOM     10  C   UNL     1       1.989   6.637  20.582  0.00  0.00    +0.000 A 
ATOM     11  C   UNL     1       1.578   7.963  20.420  0.00  0.00    +0.000 A 
ATOM     12  C   UNL     1       1.678   8.566  19.164  0.00  0.00    +0.000 A 
ATOM     13  C   UNL     1       2.143   7.845  18.063  0.00  0.00    +0.000 A 
ATOM     14  C   UNL     1       2.545   6.515  18.232  0.00  0.00    +0.000 A 
BRANCH  12  15
ATOM     15  S   UNL     1       1.180  10.261  18.962  0.00  0.00    +0.000 S 
ATOM     16  C   UNL     1      -0.398  10.123  18.162  0.00  0.00    +0.000 C 
ATOM     17  O   UNL     1       0.972  10.819  20.284  0.00  0.00    +0.000 OA
ATOM     18  O   UNL     1       2.102  10.882  18.029  0.00  0.00    +0.000 OA
ENDBRANCH  12  15
ENDBRANCH   8   9
BRANCH   7  19
ATOM     19  O   UNL     1       5.262   4.806  19.272  0.00  0.00    +0.000 OA
BRANCH  19  20
ATOM     20  C   UNL     1       5.777   4.691  17.990  0.00  0.00    +0.000 A 
ATOM     21  C   UNL     1       4.873   4.535  16.948  0.00  0.00    +0.000 A 
ATOM     22  C   UNL     1       5.376   4.401  15.657  0.00  0.00    +0.000 A 
ATOM     23  C   UNL     1       6.752   4.432  15.459  0.00  0.00    +0.000 A 
ATOM     24  C   UNL     1       7.572   4.629  16.560  0.00  0.00    +0.000 A 
ATOM     25  N   UNL     1       7.116   4.794  17.824  0.00  0.00    +0.000 NA
ENDBRANCH  19  20
ENDBRANCH   7  19
TORSDOF 4
ENDMDL
MODEL 5
REMARK VINA RESULT:      -7.9      1.009      1.211
REMARK  Name = 
REMARK  7 active torsions:
REMARK  status: ('A' for Active; 'I' for Inactive)
REMARK    1  A    between atoms: C_1  and  C_2
REMARK    2  A    between atoms: C_2  and  C_3
REMARK    3  A    between atoms: C_7  and  O_8
REMARK    4  A    between atoms: O_8  and  C_9
REMARK    5  A    between atoms: C_15  and  C_16
REMARK    6  A    between atoms: C_19  and  S_20
REMARK    7  A    between atoms: S_20  and  C_21
REMARK                            x       y       z     vdW  Elec       q    Type
REMARK                         _______ _______ _______ _____ _____    ______ ____
ROOT
ATOM      1  C   UNL     1       1.147   3.385  21.033  0.00  0.00    +0.000 C 
ATOM      2  C   UNL     1       2.027   3.407  19.783  0.00  0.00    +0.000 C 
ATOM      3  C   UNL     1       1.186   3.192  18.522  0.00  0.00    +0.000 C 
ATOM      4  O   UNL     1       2.934   2.296  19.888  0.00  0.00    +0.000 OA
ATOM      5  C   UNL     1       4.229   2.738  19.863  0.00  0.00    +0.000 C 
ATOM      6  O   UNL     1       5.194   1.995  19.830  0.00  0.00    +0.000 OA
ATOM      7  C   UNL     1       4.216   4.214  19.780  0.00  0.00    +0.000 C 
ATOM      8  C   UNL     1       2.935   4.587  19.698  0.00  0.00    +0.000 C 
ENDROOT
BRANCH   8   9
ATOM      9  C   UNL     1       2.465   5.962  19.528  0.00  0.00    +0.000 A 
ATOM     10  C   UNL     1       2.536   6.588  18.275  0.00  0.00    +0.000 A 
ATOM     11  C   UNL     1       2.104   7.908  18.114  0.00  0.00    +0.000 A 
ATOM     12  C   UNL     1       1.582   8.599  19.210  0.00  0.00    +0.000 A 
ATOM     13  C   UNL     1       1.527   8.000  20.469  0.00  0.00    +0.000 A 
ATOM     14  C   UNL     1       1.969   6.681  20.623  0.00  0.00    +0.000 A 
BRANCH  12  15
ATOM     15  S   UNL     1       1.008  10.269  19.002  0.00  0.00    +0.000 S 
ATOM     16  C   UNL     1       2.255  10.997  17.970  0.00  0.00    +0.000 C 
ATOM     17  O   UNL     1      -0.230  10.218  18.250  0.00  0.00    +0.000 OA
ATOM     18  O   UNL     1       1.065  10.918  20.299  0.00  0.00    +0.000 OA
ENDBRANCH  12  15
ENDBRANCH   8   9
BRANCH   7  19
ATOM     19  O   UNL     1       5.312   5.035  19.665  0.00  0.00    +0.000 OA
BRANCH  19  20
ATOM     20  C   UNL     1       5.850   5.211  18.400  0.00  0.00    +0.000 A 
ATOM     21  C   UNL     1       5.353   4.417  17.376  0.00  0.00    +0.000 A 
ATOM     22  C   UNL     1       5.895   4.571  16.103  0.00  0.00    +0.000 A 
ATOM     23  C   UNL     1       6.903   5.508  15.905  0.00  0.00    +0.000 A 
ATOM     24  C   UNL     1       7.308   6.279  16.985  0.00  0.00    +0.000 A 
ATOM     25  N   UNL     1       6.781   6.178  18.227  0.00  0.00    +0.000 NA
ENDBRANCH  19  20
ENDBRANCH   7  19
TORSDOF 4
ENDMDL
MODEL 6
REMARK VINA RESULT:      -7.8      1.174      1.750
REMARK  Name = 
REMARK  7 active torsions:
REMARK  status: ('A' for Active; 'I' for Inactive)
REMARK    1  A    between atoms: C_1  and  C_2
REMARK    2  A    between atoms: C_2  and  C_3
REMARK    3  A    between atoms: C_7  and  O_8
REMARK    4  A    between atoms: O_8  and  C_9
REMARK    5  A    between atoms: C_15  and  C_16
REMARK    6  A    between atoms: C_19  and  S_20
REMARK    7  A    between atoms: S_20  and  C_21
REMARK                            x       y       z     vdW  Elec       q    Type
REMARK                         _______ _______ _______ _____ _____    ______ ____
ROOT
ATOM      1  C   UNL     1       1.450   3.523  21.523  0.00  0.00    +0.000 C 
ATOM      2  C   UNL     1       2.042   3.448  20.115  0.00  0.00    +0.000 C 
ATOM      3  C   UNL     1       0.947   3.184  19.078  0.00  0.00    +0.000 C 
ATOM      4  O   UNL     1       2.933   2.319  20.094  0.00  0.00    +0.000 OA
ATOM      5  C   UNL     1       4.199   2.722  19.767  0.00  0.00    +0.000 C 
ATOM      6  O   UNL     1       5.124   1.951  19.576  0.00  0.00    +0.000 OA
ATOM      7  C   UNL     1       4.192   4.190  19.597  0.00  0.00    +0.000 C 
ATOM      8  C   UNL     1       2.929   4.595  19.766  0.00  0.00    +0.000 C 
ENDROOT
BRANCH   8   9
ATOM      9  C   UNL     1       2.454   5.970  19.614  0.00  0.00    +0.000 A 
ATOM     10  C   UNL     1       1.888   6.651  20.701  0.00  0.00    +0.000 A 
ATOM     11  C   UNL     1       1.417   7.959  20.554  0.00  0.00    +0.000 A 
ATOM     12  C   UNL     1       1.529   8.595  19.315  0.00  0.00    +0.000 A 
ATOM     13  C   UNL     1       2.066   7.922  18.216  0.00  0.00    +0.000 A 
ATOM     14  C   UNL     1       2.528   6.611  18.370  0.00  0.00    +0.000 A 
BRANCH  12  15
ATOM     15  S   UNL     1       0.953  10.267  19.132  0.00  0.00    +0.000 S 
ATOM     16  C   UNL     1       2.172  10.996  18.067  0.00  0.00    +0.000 C 
ATOM     17  O   UNL     1      -0.306  10.222  18.415  0.00  0.00    +0.000 OA
ATOM     18  O   UNL     1       1.049  10.911  20.428  0.00  0.00    +0.000 OA
ENDBRANCH  12  15
ENDBRANCH   8   9
BRANCH   7  19
ATOM     19  O   UNL     1       5.250   4.972  19.200  0.00  0.00    +0.000 OA
BRANCH  19  20
ATOM     20  C   UNL     1       5.729   4.795  17.911  0.00  0.00    +0.000 A 
ATOM     21  C   UNL     1       7.106   4.763  17.738  0.00  0.00    +0.000 A 
ATOM     22  C   UNL     1       7.602   4.603  16.448  0.00  0.00    +0.000 A 
ATOM     23  C   UNL     1       6.708   4.480  15.389  0.00  0.00    +0.000 A 
ATOM     24  C   UNL     1       5.350   4.489  15.668  0.00  0.00    +0.000 A 
ATOM     25  N   UNL     1       4.834   4.610  16.913  0.00  0.00    +0.000 NA
ENDBRANCH  19  20
ENDBRANCH   7  19
TORSDOF 4
ENDMDL
MODEL 7
REMARK VINA RESULT:      -7.7      1.424      1.821
REMARK  Name = 
REMARK  7 active torsions:
REMARK  status: ('A' for Active; 'I' for Inactive)
REMARK    1  A    between atoms: C_1  and  C_2
REMARK    2  A    between atoms: C_2  and  C_3
REMARK    3  A    between atoms: C_7  and  O_8
REMARK    4  A    between atoms: O_8  and  C_9
REMARK    5  A    between atoms: C_15  and  C_16
REMARK    6  A    between atoms: C_19  and  S_20
REMARK    7  A    between atoms: S_20  and  C_21
REMARK                            x       y       z     vdW  Elec       q    Type
REMARK                         _______ _______ _______ _____ _____    ______ ____
ROOT
ATOM      1  C   UNL     1       2.360   3.704  21.438  0.00  0.00    +0.000 C 
ATOM      2  C   UNL     1       2.097   3.692  19.931  0.00  0.00    +0.000 C 
ATOM      3  C   UNL     1       0.606   3.502  19.641  0.00  0.00    +0.000 C 
ATOM      4  O   UNL     1       2.788   2.551  19.393  0.00  0.00    +0.000 OA
ATOM      5  C   UNL     1       3.694   2.948  18.448  0.00  0.00    +0.000 C 
ATOM      6  O   UNL     1       4.336   2.172  17.762  0.00  0.00    +0.000 OA
ATOM      7  C   UNL     1       3.659   4.423  18.360  0.00  0.00    +0.000 C 
ATOM      8  C   UNL     1       2.705   4.840  19.197  0.00  0.00    +0.000 C 
ENDROOT
BRANCH   8   9
ATOM      9  C   UNL     1       2.283   6.230  19.373  0.00  0.00    +0.000 A 
ATOM     10  C   UNL     1       1.844   6.687  20.625  0.00  0.00    +0.000 A 
ATOM     11  C   UNL     1       1.423   8.009  20.791  0.00  0.00    +0.000 A 
ATOM     12  C   UNL     1       1.456   8.884  19.703  0.00  0.00    +0.000 A 
ATOM     13  C   UNL     1       1.865   8.439  18.444  0.00  0.00    +0.000 A 
ATOM     14  C   UNL     1       2.278   7.111  18.284  0.00  0.00    +0.000 A 
BRANCH  12  15
ATOM     15  S   UNL     1       0.945  10.574  19.917  0.00  0.00    +0.000 S 
ATOM     16  C   UNL     1      -0.799  10.509  19.591  0.00  0.00    +0.000 C 
ATOM     17  O   UNL     1       1.133  10.915  21.314  0.00  0.00    +0.000 OA
ATOM     18  O   UNL     1       1.568  11.358  18.868  0.00  0.00    +0.000 OA
ENDBRANCH  12  15
ENDBRANCH   8   9
BRANCH   7  19
ATOM     19  O   UNL     1       4.370   5.206  17.482  0.00  0.00    +0.000 OA
BRANCH  19  20
ATOM     20  C   UNL     1       5.603   5.680  17.900  0.00  0.00    +0.000 A 
ATOM     21  C   UNL     1       6.159   6.735  17.189  0.00  0.00    +0.000 A 
ATOM     22  C   UNL     1       7.405   7.211  17.587  0.00  0.00    +0.000 A 
ATOM     23  C   UNL     1       8.040   6.620  18.673  0.00  0.00    +0.000 A 
ATOM     24  C   UNL     1       7.388   5.595  19.341  0.00  0.00    +0.000 A 
ATOM     25  N   UNL     1       6.164   5.129  19.002  0.00  0.00    +0.000 NA
ENDBRANCH  19  20
ENDBRANCH   7  19
TORSDOF 4
ENDMDL
MODEL 8
REMARK VINA RESULT:      -7.7      1.477      1.664
REMARK  Name = 
REMARK  7 active torsions:
REMARK  status: ('A' for Active; 'I' for Inactive)
REMARK    1  A    between atoms: C_1  and  C_2
REMARK    2  A    between atoms: C_2  and  C_3
REMARK    3  A    between atoms: C_7  and  O_8
REMARK    4  A    between atoms: O_8  and  C_9
REMARK    5  A    between atoms: C_15  and  C_16
REMARK    6  A    between atoms: C_19  and  S_20
REMARK    7  A    between atoms: S_20  and  C_21
REMARK                            x       y       z     vdW  Elec       q    Type
REMARK                         _______ _______ _______ _____ _____    ______ ____
ROOT
ATOM      1  C   UNL     1       2.453   3.882  21.439  0.00  0.00    +0.000 C 
ATOM      2  C   UNL     1       2.178   3.865  19.935  0.00  0.00    +0.000 C 
ATOM      3  C   UNL     1       0.694   3.614  19.656  0.00  0.00    +0.000 C 
ATOM      4  O   UNL     1       2.911   2.756  19.386  0.00  0.00    +0.000 OA
ATOM      5  C   UNL     1       3.792   3.196  18.436  0.00  0.00    +0.000 C 
ATOM      6  O   UNL     1       4.460   2.451  17.740  0.00  0.00    +0.000 OA
ATOM      7  C   UNL     1       3.694   4.668  18.354  0.00  0.00    +0.000 C 
ATOM      8  C   UNL     1       2.731   5.041  19.202  0.00  0.00    +0.000 C 
ENDROOT
BRANCH   8   9
ATOM      9  C   UNL     1       2.252   6.411  19.388  0.00  0.00    +0.000 A 
ATOM     10  C   UNL     1       2.223   7.307  18.309  0.00  0.00    +0.000 A 
ATOM     11  C   UNL     1       1.783   8.621  18.489  0.00  0.00    +0.000 A 
ATOM     12  C   UNL     1       1.353   9.037  19.751  0.00  0.00    +0.000 A 
ATOM     13  C   UNL     1       1.400   8.166  20.841  0.00  0.00    +0.000 A 
ATOM     14  C   UNL     1       1.849   6.854  20.654  0.00  0.00    +0.000 A 
BRANCH  12  15
ATOM     15  S   UNL     1       0.769  10.701  19.977  0.00  0.00    +0.000 S 
ATOM     16  C   UNL     1       1.659  11.610  18.738  0.00  0.00    +0.000 C 
ATOM     17  O   UNL     1      -0.639  10.723  19.632  0.00  0.00    +0.000 OA
ATOM     18  O   UNL     1       1.225  11.155  21.277  0.00  0.00    +0.000 OA
ENDBRANCH  12  15
ENDBRANCH   8   9
BRANCH   7  19
ATOM     19  O   UNL     1       4.364   5.484  17.474  0.00  0.00    +0.000 OA
BRANCH  19  20
ATOM     20  C   UNL     1       5.617   5.941  17.851  0.00  0.00    +0.000 A 
ATOM     21  C   UNL     1       6.148   7.010  17.144  0.00  0.00    +0.000 A 
ATOM     22  C   UNL     1       7.413   7.470  17.499  0.00  0.00    +0.000 A 
ATOM     23  C   UNL     1       8.091   6.848  18.542  0.00  0.00    +0.000 A 
ATOM     24  C   UNL     1       7.461   5.809  19.211  0.00  0.00    +0.000 A 
ATOM     25  N   UNL     1       6.221   5.358  18.913  0.00  0.00    +0.000 NA
ENDBRANCH  19  20
ENDBRANCH   7  19
TORSDOF 4
ENDMDL
MODEL 9
REMARK VINA RESULT:      -7.7      1.107      1.211
REMARK  Name = 
REMARK  7 active torsions:
REMARK  status: ('A' for Active; 'I' for Inactive)
REMARK    1  A    between atoms: C_1  and  C_2
REMARK    2  A    between atoms: C_2  and  C_3
REMARK    3  A    between atoms: C_7  and  O_8
REMARK    4  A    between atoms: O_8  and  C_9
REMARK    5  A    between atoms: C_15  and  C_16
REMARK    6  A    between atoms: C_19  and  S_20
REMARK    7  A    between atoms: S_20  and  C_21
REMARK                            x       y       z     vdW  Elec       q    Type
REMARK                         _______ _______ _______ _____ _____    ______ ____
ROOT
ATOM      1  C   UNL     1       2.256   3.906  21.527  0.00  0.00    +0.000 C 
ATOM      2  C   UNL     1       2.067   3.686  20.025  0.00  0.00    +0.000 C 
ATOM      3  C   UNL     1       0.589   3.471  19.689  0.00  0.00    +0.000 C 
ATOM      4  O   UNL     1       2.765   2.475  19.686  0.00  0.00    +0.000 OA
ATOM      5  C   UNL     1       3.722   2.729  18.742  0.00  0.00    +0.000 C 
ATOM      6  O   UNL     1       4.384   1.859  18.204  0.00  0.00    +0.000 OA
ATOM      7  C   UNL     1       3.715   4.177  18.449  0.00  0.00    +0.000 C 
ATOM      8  C   UNL     1       2.728   4.716  19.171  0.00  0.00    +0.000 C 
ENDROOT
BRANCH   8   9
ATOM      9  C   UNL     1       2.319   6.120  19.131  0.00  0.00    +0.000 A 
ATOM     10  C   UNL     1       2.308   6.823  17.917  0.00  0.00    +0.000 A 
ATOM     11  C   UNL     1       1.935   8.170  17.879  0.00  0.00    +0.000 A 
ATOM     12  C   UNL     1       1.556   8.812  19.060  0.00  0.00    +0.000 A 
ATOM     13  C   UNL     1       1.588   8.135  20.281  0.00  0.00    +0.000 A 
ATOM     14  C   UNL     1       1.969   6.789  20.311  0.00  0.00    +0.000 A 
BRANCH  12  15
ATOM     15  S   UNL     1       1.058  10.518  19.011  0.00  0.00    +0.000 S 
ATOM     16  C   UNL     1       1.005  10.970  20.727  0.00  0.00    +0.000 C 
ATOM     17  O   UNL     1       2.125  11.269  18.377  0.00  0.00    +0.000 OA
ATOM     18  O   UNL     1      -0.296  10.566  18.493  0.00  0.00    +0.000 OA
ENDBRANCH  12  15
ENDBRANCH   8   9
BRANCH   7  19
ATOM     19  O   UNL     1       4.480   4.824  17.507  0.00  0.00    +0.000 OA
BRANCH  19  20
ATOM     20  C   UNL     1       5.661   5.410  17.934  0.00  0.00    +0.000 A 
ATOM     21  C   UNL     1       6.180   6.440  17.162  0.00  0.00    +0.000 A 
ATOM     22  C   UNL     1       7.374   7.028  17.569  0.00  0.00    +0.000 A 
ATOM     23  C   UNL     1       7.996   6.568  18.725  0.00  0.00    +0.000 A 
ATOM     24  C   UNL     1       7.380   5.558  19.448  0.00  0.00    +0.000 A 
ATOM     25  N   UNL     1       6.204   4.987  19.100  0.00  0.00    +0.000 NA
ENDBRANCH  19  20
ENDBRANCH   7  19
TORSDOF 4
ENDMDL
