MODEL 1
REMARK VINA RESULT:      -7.4      0.000      0.000
REMARK  Name = 
REMARK  4 active torsions:
REMARK  status: ('A' for Active; 'I' for Inactive)
REMARK    1  A    between atoms: C_2  and  C_3
REMARK    2  A    between atoms: C_3  and  C_4
REMARK    3  A    between atoms: C_16  and  C_17
REMARK    4  A    between atoms: C_17  and  N_18
REMARK                            x       y       z     vdW  Elec       q    Type
REMARK                         _______ _______ _______ _____ _____    ______ ____
ROOT
ATOM      1  O   UNL     1       8.353   5.518  13.998  0.00  0.00    +0.000 OA
ATOM      2  C   UNL     1       7.204   5.062  14.136  0.00  0.00    +0.000 C 
ATOM      3  N   UNL     1       6.787   4.577  15.371  0.00  0.00    +0.000 N 
ATOM      4  C   UNL     1       7.568   4.634  16.642  0.00  0.00    +0.000 C 
ATOM      5  C   UNL     1       6.958   5.625  17.629  0.00  0.00    +0.000 C 
ATOM      6  N   UNL     1       5.539   5.370  17.704  0.00  0.00    +0.000 N 
ATOM      7  C   UNL     1       4.681   5.818  18.654  0.00  0.00    +0.000 A 
ATOM      8  C   UNL     1       3.468   5.268  18.302  0.00  0.00    +0.000 A 
ATOM      9  N   UNL     1       3.590   4.490  17.168  0.00  0.00    +0.000 NA
ATOM     10  C   UNL     1       4.840   4.606  16.794  0.00  0.00    +0.000 A 
ATOM     11  C   UNL     1       5.475   3.982  15.596  0.00  0.00    +0.000 C 
ENDROOT
BRANCH   2  12
ATOM     12  C   UNL     1       6.341   5.003  12.894  0.00  0.00    +0.000 C 
BRANCH  12  13
ATOM     13  C   UNL     1       6.244   3.648  12.238  0.00  0.00    +0.000 A 
ATOM     14  C   UNL     1       5.006   3.051  11.936  0.00  0.00    +0.000 A 
ATOM     15  C   UNL     1       4.959   1.785  11.344  0.00  0.00    +0.000 A 
ATOM     16  C   UNL     1       6.143   1.127  11.038  0.00  0.00    +0.000 A 
ATOM     17  F   UNL     1       6.102  -0.096  10.495  0.00  0.00    +0.000 F 
ATOM     18  C   UNL     1       7.373   1.723  11.283  0.00  0.00    +0.000 A 
ATOM     19  C   UNL     1       7.423   2.985  11.872  0.00  0.00    +0.000 A 
ENDBRANCH  12  13
ENDBRANCH   2  12
BRANCH   8  20
ATOM     20  C   UNL     1       2.138   5.464  18.921  0.00  0.00    +0.000 C 
BRANCH  20  21
ATOM     21  N   UNL     1       1.914   4.418  19.906  0.00  0.00    +0.000 N 
ATOM     22  C   UNL     1       1.079   3.339  19.785  0.00  0.00    +0.000 A 
ATOM     23  C   UNL     1       1.142   2.671  20.983  0.00  0.00    +0.000 A 
ATOM     24  C   UNL     1       2.056   3.410  21.754  0.00  0.00    +0.000 A 
ATOM     25  N   UNL     1       2.541   4.470  21.103  0.00  0.00    +0.000 NA
ENDBRANCH  20  21
ENDBRANCH   8  20
TORSDOF 4
ENDMDL
MODEL 2
REMARK VINA RESULT:      -7.2      5.953      9.461
REMARK  Name = 
REMARK  4 active torsions:
REMARK  status: ('A' for Active; 'I' for Inactive)
REMARK    1  A    between atoms: C_2  and  C_3
REMARK    2  A    between atoms: C_3  and  C_4
REMARK    3  A    between atoms: C_16  and  C_17
REMARK    4  A    between atoms: C_17  and  N_18
REMARK                            x       y       z     vdW  Elec       q    Type
REMARK                         _______ _______ _______ _____ _____    ______ ____
ROOT
ATOM      1  O   UNL     1      -0.503   9.806  20.561  0.00  0.00    +0.000 OA
ATOM      2  C   UNL     1       0.290   9.584  19.629  0.00  0.00    +0.000 C 
ATOM      3  N   UNL     1       1.383   8.747  19.824  0.00  0.00    +0.000 N 
ATOM      4  C   UNL     1       1.675   7.964  21.061  0.00  0.00    +0.000 C 
ATOM      5  C   UNL     1       1.476   6.468  20.837  0.00  0.00    +0.000 C 
ATOM      6  N   UNL     1       2.154   6.103  19.615  0.00  0.00    +0.000 N 
ATOM      7  C   UNL     1       2.470   4.849  19.203  0.00  0.00    +0.000 A 
ATOM      8  C   UNL     1       3.138   5.042  18.014  0.00  0.00    +0.000 A 
ATOM      9  N   UNL     1       3.239   6.386  17.717  0.00  0.00    +0.000 NA
ATOM     10  C   UNL     1       2.593   7.008  18.672  0.00  0.00    +0.000 A 
ATOM     11  C   UNL     1       2.381   8.480  18.795  0.00  0.00    +0.000 C 
ENDROOT
BRANCH   2  12
ATOM     12  C   UNL     1       0.037  10.319  18.330  0.00  0.00    +0.000 C 
BRANCH  12  13
ATOM     13  C   UNL     1      -1.415  10.564  17.998  0.00  0.00    +0.000 A 
ATOM     14  C   UNL     1      -2.164  11.577  18.624  0.00  0.00    +0.000 A 
ATOM     15  C   UNL     1      -3.512  11.760  18.301  0.00  0.00    +0.000 A 
ATOM     16  C   UNL     1      -4.104  10.945  17.344  0.00  0.00    +0.000 A 
ATOM     17  F   UNL     1      -5.402  11.100  17.052  0.00  0.00    +0.000 F 
ATOM     18  C   UNL     1      -3.367   9.974  16.681  0.00  0.00    +0.000 A 
ATOM     19  C   UNL     1      -2.023   9.790  17.000  0.00  0.00    +0.000 A 
ENDBRANCH  12  13
ENDBRANCH   2  12
BRANCH   8  20
ATOM     20  C   UNL     1       3.658   4.035  17.061  0.00  0.00    +0.000 C 
BRANCH  20  21
ATOM     21  N   UNL     1       5.049   4.336  16.765  0.00  0.00    +0.000 N 
ATOM     22  C   UNL     1       5.594   4.577  15.531  0.00  0.00    +0.000 A 
ATOM     23  C   UNL     1       6.942   4.741  15.733  0.00  0.00    +0.000 A 
ATOM     24  C   UNL     1       7.111   4.603  17.122  0.00  0.00    +0.000 A 
ATOM     25  N   UNL     1       5.962   4.369  17.760  0.00  0.00    +0.000 NA
ENDBRANCH  20  21
ENDBRANCH   8  20
TORSDOF 4
ENDMDL
MODEL 3
REMARK VINA RESULT:      -7.1      3.819      5.853
REMARK  Name = 
REMARK  4 active torsions:
REMARK  status: ('A' for Active; 'I' for Inactive)
REMARK    1  A    between atoms: C_2  and  C_3
REMARK    2  A    between atoms: C_3  and  C_4
REMARK    3  A    between atoms: C_16  and  C_17
REMARK    4  A    between atoms: C_17  and  N_18
REMARK                            x       y       z     vdW  Elec       q    Type
REMARK                         _______ _______ _______ _____ _____    ______ ____
ROOT
ATOM      1  O   UNL     1       4.378   2.690  19.284  0.00  0.00    +0.000 OA
ATOM      2  C   UNL     1       4.354   3.895  18.974  0.00  0.00    +0.000 C 
ATOM      3  N   UNL     1       3.149   4.588  18.954  0.00  0.00    +0.000 N 
ATOM      4  C   UNL     1       1.823   4.051  19.380  0.00  0.00    +0.000 C 
ATOM      5  C   UNL     1       1.349   4.695  20.680  0.00  0.00    +0.000 C 
ATOM      6  N   UNL     1       1.504   6.125  20.554  0.00  0.00    +0.000 N 
ATOM      7  C   UNL     1       0.947   7.076  21.346  0.00  0.00    +0.000 A 
ATOM      8  C   UNL     1       1.361   8.266  20.788  0.00  0.00    +0.000 A 
ATOM      9  N   UNL     1       2.142   8.042  19.672  0.00  0.00    +0.000 NA
ATOM     10  C   UNL     1       2.257   6.741  19.577  0.00  0.00    +0.000 A 
ATOM     11  C   UNL     1       3.036   5.985  18.552  0.00  0.00    +0.000 C 
ENDROOT
BRANCH   2  12
ATOM     12  C   UNL     1       5.670   4.518  18.562  0.00  0.00    +0.000 C 
BRANCH  12  13
ATOM     13  C   UNL     1       5.957   4.502  17.080  0.00  0.00    +0.000 A 
ATOM     14  C   UNL     1       4.995   4.094  16.138  0.00  0.00    +0.000 A 
ATOM     15  C   UNL     1       5.307   4.076  14.774  0.00  0.00    +0.000 A 
ATOM     16  C   UNL     1       6.567   4.482  14.354  0.00  0.00    +0.000 A 
ATOM     17  F   UNL     1       6.878   4.441  13.052  0.00  0.00    +0.000 F 
ATOM     18  C   UNL     1       7.511   4.936  15.267  0.00  0.00    +0.000 A 
ATOM     19  C   UNL     1       7.203   4.955  16.625  0.00  0.00    +0.000 A 
ENDBRANCH  12  13
ENDBRANCH   2  12
BRANCH   8  20
ATOM     20  C   UNL     1       1.134   9.649  21.263  0.00  0.00    +0.000 C 
BRANCH  20  21
ATOM     21  N   UNL     1       0.508  10.419  20.200  0.00  0.00    +0.000 N 
ATOM     22  C   UNL     1       1.003  11.547  19.600  0.00  0.00    +0.000 A 
ATOM     23  C   UNL     1       0.042  11.960  18.711  0.00  0.00    +0.000 A 
ATOM     24  C   UNL     1      -0.984  11.007  18.829  0.00  0.00    +0.000 A 
ATOM     25  N   UNL     1      -0.704  10.057  19.725  0.00  0.00    +0.000 NA
ENDBRANCH  20  21
ENDBRANCH   8  20
TORSDOF 4
ENDMDL
MODEL 4
REMARK VINA RESULT:      -7.1      4.746      6.813
REMARK  Name = 
REMARK  4 active torsions:
REMARK  status: ('A' for Active; 'I' for Inactive)
REMARK    1  A    between atoms: C_2  and  C_3
REMARK    2  A    between atoms: C_3  and  C_4
REMARK    3  A    between atoms: C_16  and  C_17
REMARK    4  A    between atoms: C_17  and  N_18
REMARK                            x       y       z     vdW  Elec       q    Type
REMARK                         _______ _______ _______ _____ _____    ______ ____
ROOT
ATOM      1  O   UNL     1       5.121   3.237  19.672  0.00  0.00    +0.000 OA
ATOM      2  C   UNL     1       4.834   4.062  18.786  0.00  0.00    +0.000 C 
ATOM      3  N   UNL     1       3.575   4.652  18.760  0.00  0.00    +0.000 N 
ATOM      4  C   UNL     1       2.504   4.474  19.784  0.00  0.00    +0.000 C 
ATOM      5  C   UNL     1       2.295   5.745  20.602  0.00  0.00    +0.000 C 
ATOM      6  N   UNL     1       2.193   6.857  19.686  0.00  0.00    +0.000 N 
ATOM      7  C   UNL     1       1.726   8.100  19.964  0.00  0.00    +0.000 A 
ATOM      8  C   UNL     1       1.795   8.764  18.759  0.00  0.00    +0.000 A 
ATOM      9  N   UNL     1       2.281   7.938  17.767  0.00  0.00    +0.000 NA
ATOM     10  C   UNL     1       2.563   6.804  18.359  0.00  0.00    +0.000 A 
ATOM     11  C   UNL     1       3.151   5.587  17.725  0.00  0.00    +0.000 C 
ENDROOT
BRANCH   2  12
ATOM     12  C   UNL     1       5.887   4.319  17.729  0.00  0.00    +0.000 C 
BRANCH  12  13
ATOM     13  C   UNL     1       6.636   5.622  17.866  0.00  0.00    +0.000 A 
ATOM     14  C   UNL     1       6.371   6.727  17.035  0.00  0.00    +0.000 A 
ATOM     15  C   UNL     1       7.100   7.911  17.183  0.00  0.00    +0.000 A 
ATOM     16  C   UNL     1       8.076   7.997  18.167  0.00  0.00    +0.000 A 
ATOM     17  F   UNL     1       8.795   9.120  18.293  0.00  0.00    +0.000 F 
ATOM     18  C   UNL     1       8.316   6.934  19.028  0.00  0.00    +0.000 A 
ATOM     19  C   UNL     1       7.590   5.753  18.884  0.00  0.00    +0.000 A 
ENDBRANCH  12  13
ENDBRANCH   2  12
BRANCH   8  20
ATOM     20  C   UNL     1       1.493  10.181  18.456  0.00  0.00    +0.000 C 
BRANCH  20  21
ATOM     21  N   UNL     1       0.723  10.747  19.553  0.00  0.00    +0.000 N 
ATOM     22  C   UNL     1       1.071  11.816  20.336  0.00  0.00    +0.000 A 
ATOM     23  C   UNL     1       0.078  11.939  21.277  0.00  0.00    +0.000 A 
ATOM     24  C   UNL     1      -0.834  10.916  20.966  0.00  0.00    +0.000 A 
ATOM     25  N   UNL     1      -0.456  10.192  19.910  0.00  0.00    +0.000 NA
ENDBRANCH  20  21
ENDBRANCH   8  20
TORSDOF 4
ENDMDL
MODEL 5
REMARK VINA RESULT:      -7.1      4.122      6.023
REMARK  Name = 
REMARK  4 active torsions:
REMARK  status: ('A' for Active; 'I' for Inactive)
REMARK    1  A    between atoms: C_2  and  C_3
REMARK    2  A    between atoms: C_3  and  C_4
REMARK    3  A    between atoms: C_16  and  C_17
REMARK    4  A    between atoms: C_17  and  N_18
REMARK                            x       y       z     vdW  Elec       q    Type
REMARK                         _______ _______ _______ _____ _____    ______ ____
ROOT
ATOM      1  O   UNL     1       4.696   3.654  19.498  0.00  0.00    +0.000 OA
ATOM      2  C   UNL     1       4.510   4.765  18.970  0.00  0.00    +0.000 C 
ATOM      3  N   UNL     1       3.239   5.330  18.958  0.00  0.00    +0.000 N 
ATOM      4  C   UNL     1       2.028   4.773  19.629  0.00  0.00    +0.000 C 
ATOM      5  C   UNL     1       1.613   5.620  20.829  0.00  0.00    +0.000 C 
ATOM      6  N   UNL     1       1.597   7.004  20.417  0.00  0.00    +0.000 N 
ATOM      7  C   UNL     1       1.017   8.041  21.073  0.00  0.00    +0.000 A 
ATOM      8  C   UNL     1       1.243   9.126  20.256  0.00  0.00    +0.000 A 
ATOM      9  N   UNL     1       1.932   8.755  19.120  0.00  0.00    +0.000 NA
ATOM     10  C   UNL     1       2.180   7.476  19.261  0.00  0.00    +0.000 A 
ATOM     11  C   UNL     1       2.935   6.603  18.314  0.00  0.00    +0.000 C 
ENDROOT
BRANCH   2  12
ATOM     12  C   UNL     1       5.703   5.408  18.297  0.00  0.00    +0.000 C 
BRANCH  12  13
ATOM     13  C   UNL     1       5.932   5.003  16.861  0.00  0.00    +0.000 A 
ATOM     14  C   UNL     1       7.133   5.292  16.186  0.00  0.00    +0.000 A 
ATOM     15  C   UNL     1       7.298   4.915  14.849  0.00  0.00    +0.000 A 
ATOM     16  C   UNL     1       6.276   4.237  14.197  0.00  0.00    +0.000 A 
ATOM     17  F   UNL     1       6.421   3.898  12.909  0.00  0.00    +0.000 F 
ATOM     18  C   UNL     1       5.106   3.900  14.863  0.00  0.00    +0.000 A 
ATOM     19  C   UNL     1       4.938   4.273  16.195  0.00  0.00    +0.000 A 
ENDBRANCH  12  13
ENDBRANCH   2  12
BRANCH   8  20
ATOM     20  C   UNL     1       0.911  10.551  20.483  0.00  0.00    +0.000 C 
BRANCH  20  21
ATOM     21  N   UNL     1      -0.134  10.949  19.553  0.00  0.00    +0.000 N 
ATOM     22  C   UNL     1      -1.208  10.199  19.153  0.00  0.00    +0.000 A 
ATOM     23  C   UNL     1      -1.877  10.955  18.222  0.00  0.00    +0.000 A 
ATOM     24  C   UNL     1      -1.144  12.151  18.144  0.00  0.00    +0.000 A 
ATOM     25  N   UNL     1      -0.087  12.162  18.960  0.00  0.00    +0.000 NA
ENDBRANCH  20  21
ENDBRANCH   8  20
TORSDOF 4
ENDMDL
MODEL 6
REMARK VINA RESULT:      -7.1      4.557      6.903
REMARK  Name = 
REMARK  4 active torsions:
REMARK  status: ('A' for Active; 'I' for Inactive)
REMARK    1  A    between atoms: C_2  and  C_3
REMARK    2  A    between atoms: C_3  and  C_4
REMARK    3  A    between atoms: C_16  and  C_17
REMARK    4  A    between atoms: C_17  and  N_18
REMARK                            x       y       z     vdW  Elec       q    Type
REMARK                         _______ _______ _______ _____ _____    ______ ____
ROOT
ATOM      1  O   UNL     1       4.164   2.980  18.606  0.00  0.00    +0.000 OA
ATOM      2  C   UNL     1       3.911   4.081  18.085  0.00  0.00    +0.000 C 
ATOM      3  N   UNL     1       2.753   4.769  18.430  0.00  0.00    +0.000 N 
ATOM      4  C   UNL     1       1.775   4.363  19.482  0.00  0.00    +0.000 C 
ATOM      5  C   UNL     1       1.831   5.297  20.688  0.00  0.00    +0.000 C 
ATOM      6  N   UNL     1       1.798   6.657  20.205  0.00  0.00    +0.000 N 
ATOM      7  C   UNL     1       1.542   7.773  20.934  0.00  0.00    +0.000 A 
ATOM      8  C   UNL     1       1.584   8.795  20.011  0.00  0.00    +0.000 A 
ATOM      9  N   UNL     1       1.846   8.310  18.747  0.00  0.00    +0.000 NA
ATOM     10  C   UNL     1       2.022   7.020  18.894  0.00  0.00    +0.000 A 
ATOM     11  C   UNL     1       2.365   6.037  17.824  0.00  0.00    +0.000 C 
ENDROOT
BRANCH   2  12
ATOM     12  C   UNL     1       4.878   4.573  17.030  0.00  0.00    +0.000 C 
BRANCH  12  13
ATOM     13  C   UNL     1       5.971   5.486  17.531  0.00  0.00    +0.000 A 
ATOM     14  C   UNL     1       6.847   5.105  18.564  0.00  0.00    +0.000 A 
ATOM     15  C   UNL     1       7.835   5.988  19.012  0.00  0.00    +0.000 A 
ATOM     16  C   UNL     1       7.960   7.237  18.416  0.00  0.00    +0.000 A 
ATOM     17  F   UNL     1       8.888   8.094  18.860  0.00  0.00    +0.000 F 
ATOM     18  C   UNL     1       7.137   7.608  17.362  0.00  0.00    +0.000 A 
ATOM     19  C   UNL     1       6.151   6.731  16.913  0.00  0.00    +0.000 A 
ENDBRANCH  12  13
ENDBRANCH   2  12
BRANCH   8  20
ATOM     20  C   UNL     1       1.458  10.254  20.229  0.00  0.00    +0.000 C 
BRANCH  20  21
ATOM     21  N   UNL     1       0.280  10.739  19.527  0.00  0.00    +0.000 N 
ATOM     22  C   UNL     1      -0.915  10.086  19.379  0.00  0.00    +0.000 A 
ATOM     23  C   UNL     1      -1.696  10.893  18.589  0.00  0.00    +0.000 A 
ATOM     24  C   UNL     1      -0.895  12.018  18.330  0.00  0.00    +0.000 A 
ATOM     25  N   UNL     1       0.307  11.939  18.907  0.00  0.00    +0.000 NA
ENDBRANCH  20  21
ENDBRANCH   8  20
TORSDOF 4
ENDMDL
MODEL 7
REMARK VINA RESULT:      -7.1      4.531      8.191
REMARK  Name = 
REMARK  4 active torsions:
REMARK  status: ('A' for Active; 'I' for Inactive)
REMARK    1  A    between atoms: C_2  and  C_3
REMARK    2  A    between atoms: C_3  and  C_4
REMARK    3  A    between atoms: C_16  and  C_17
REMARK    4  A    between atoms: C_17  and  N_18
REMARK                            x       y       z     vdW  Elec       q    Type
REMARK                         _______ _______ _______ _____ _____    ______ ____
ROOT
ATOM      1  O   UNL     1       0.302   3.551  20.035  0.00  0.00    +0.000 OA
ATOM      2  C   UNL     1       1.464   3.943  20.242  0.00  0.00    +0.000 C 
ATOM      3  N   UNL     1       2.541   3.271  19.672  0.00  0.00    +0.000 N 
ATOM      4  C   UNL     1       2.452   2.132  18.711  0.00  0.00    +0.000 C 
ATOM      5  C   UNL     1       2.891   2.547  17.310  0.00  0.00    +0.000 C 
ATOM      6  N   UNL     1       4.144   3.256  17.423  0.00  0.00    +0.000 N 
ATOM      7  C   UNL     1       5.011   3.539  16.419  0.00  0.00    +0.000 A 
ATOM      8  C   UNL     1       6.057   4.180  17.047  0.00  0.00    +0.000 A 
ATOM      9  N   UNL     1       5.835   4.272  18.406  0.00  0.00    +0.000 NA
ATOM     10  C   UNL     1       4.650   3.751  18.606  0.00  0.00    +0.000 A 
ATOM     11  C   UNL     1       3.931   3.640  19.909  0.00  0.00    +0.000 C 
ENDROOT
BRANCH   2  12
ATOM     12  C   UNL     1       1.630   5.117  21.182  0.00  0.00    +0.000 C 
BRANCH  12  13
ATOM     13  C   UNL     1       1.637   6.475  20.525  0.00  0.00    +0.000 A 
ATOM     14  C   UNL     1       1.066   7.605  21.140  0.00  0.00    +0.000 A 
ATOM     15  C   UNL     1       1.077   8.843  20.489  0.00  0.00    +0.000 A 
ATOM     16  C   UNL     1       1.671   8.955  19.239  0.00  0.00    +0.000 A 
ATOM     17  F   UNL     1       1.660  10.133  18.601  0.00  0.00    +0.000 F 
ATOM     18  C   UNL     1       2.283   7.862  18.640  0.00  0.00    +0.000 A 
ATOM     19  C   UNL     1       2.274   6.627  19.286  0.00  0.00    +0.000 A 
ENDBRANCH  12  13
ENDBRANCH   2  12
BRANCH   8  20
ATOM     20  C   UNL     1       7.265   4.797  16.455  0.00  0.00    +0.000 C 
BRANCH  20  21
ATOM     21  N   UNL     1       7.582   6.015  17.183  0.00  0.00    +0.000 N 
ATOM     22  C   UNL     1       8.114   6.105  18.442  0.00  0.00    +0.000 A 
ATOM     23  C   UNL     1       8.172   7.445  18.738  0.00  0.00    +0.000 A 
ATOM     24  C   UNL     1       7.674   8.083  17.588  0.00  0.00    +0.000 A 
ATOM     25  N   UNL     1       7.323   7.221  16.631  0.00  0.00    +0.000 NA
ENDBRANCH  20  21
ENDBRANCH   8  20
TORSDOF 4
ENDMDL
MODEL 8
REMARK VINA RESULT:      -7.1      4.642      8.901
REMARK  Name = 
REMARK  4 active torsions:
REMARK  status: ('A' for Active; 'I' for Inactive)
REMARK    1  A    between atoms: C_2  and  C_3
REMARK    2  A    between atoms: C_3  and  C_4
REMARK    3  A    between atoms: C_16  and  C_17
REMARK    4  A    between atoms: C_17  and  N_18
REMARK                            x       y       z     vdW  Elec       q    Type
REMARK                         _______ _______ _______ _____ _____    ______ ____
ROOT
ATOM      1  O   UNL     1       2.114   6.225  19.288  0.00  0.00    +0.000 OA
ATOM      2  C   UNL     1       2.900   6.737  18.470  0.00  0.00    +0.000 C 
ATOM      3  N   UNL     1       4.125   6.134  18.205  0.00  0.00    +0.000 N 
ATOM      4  C   UNL     1       4.588   4.821  18.743  0.00  0.00    +0.000 C 
ATOM      5  C   UNL     1       4.637   3.755  17.652  0.00  0.00    +0.000 C 
ATOM      6  N   UNL     1       5.324   4.312  16.511  0.00  0.00    +0.000 N 
ATOM      7  C   UNL     1       5.832   3.629  15.454  0.00  0.00    +0.000 A 
ATOM      8  C   UNL     1       6.416   4.601  14.673  0.00  0.00    +0.000 A 
ATOM      9  N   UNL     1       6.278   5.847  15.249  0.00  0.00    +0.000 NA
ATOM     10  C   UNL     1       5.571   5.657  16.335  0.00  0.00    +0.000 A 
ATOM     11  C   UNL     1       5.117   6.701  17.300  0.00  0.00    +0.000 C 
ENDROOT
BRANCH   2  12
ATOM     12  C   UNL     1       2.481   8.055  17.858  0.00  0.00    +0.000 C 
BRANCH  12  13
ATOM     13  C   UNL     1       1.492   8.859  18.666  0.00  0.00    +0.000 A 
ATOM     14  C   UNL     1       0.494   9.644  18.059  0.00  0.00    +0.000 A 
ATOM     15  C   UNL     1      -0.392  10.389  18.845  0.00  0.00    +0.000 A 
ATOM     16  C   UNL     1      -0.292  10.334  20.229  0.00  0.00    +0.000 A 
ATOM     17  F   UNL     1      -1.122  11.067  20.983  0.00  0.00    +0.000 F 
ATOM     18  C   UNL     1       0.654   9.526  20.844  0.00  0.00    +0.000 A 
ATOM     19  C   UNL     1       1.538   8.782  20.065  0.00  0.00    +0.000 A 
ENDBRANCH  12  13
ENDBRANCH   2  12
BRANCH   8  20
ATOM     20  C   UNL     1       7.064   4.469  13.348  0.00  0.00    +0.000 C 
BRANCH  20  21
ATOM     21  N   UNL     1       6.228   3.644  12.491  0.00  0.00    +0.000 N 
ATOM     22  C   UNL     1       4.917   3.867  12.160  0.00  0.00    +0.000 A 
ATOM     23  C   UNL     1       4.529   2.796  11.393  0.00  0.00    +0.000 A 
ATOM     24  C   UNL     1       5.679   1.993  11.298  0.00  0.00    +0.000 A 
ATOM     25  N   UNL     1       6.722   2.507  11.953  0.00  0.00    +0.000 NA
ENDBRANCH  20  21
ENDBRANCH   8  20
TORSDOF 4
ENDMDL
MODEL 9
REMARK VINA RESULT:      -7.0      5.963      9.485
REMARK  Name = 
REMARK  4 active torsions:
REMARK  status: ('A' for Active; 'I' for Inactive)
REMARK    1  A    between atoms: C_2  and  C_3
REMARK    2  A    between atoms: C_3  and  C_4
REMARK    3  A    between atoms: C_16  and  C_17
REMARK    4  A    between atoms: C_17  and  N_18
REMARK                            x       y       z     vdW  Elec       q    Type
REMARK                         _______ _______ _______ _____ _____    ______ ____
ROOT
ATOM      1  O   UNL     1      -0.538   9.838  20.608  0.00  0.00    +0.000 OA
ATOM      2  C   UNL     1       0.270   9.634  19.684  0.00  0.00    +0.000 C 
ATOM      3  N   UNL     1       1.359   8.792  19.880  0.00  0.00    +0.000 N 
ATOM      4  C   UNL     1       1.630   7.983  21.106  0.00  0.00    +0.000 C 
ATOM      5  C   UNL     1       1.434   6.492  20.847  0.00  0.00    +0.000 C 
ATOM      6  N   UNL     1       2.132   6.152  19.630  0.00  0.00    +0.000 N 
ATOM      7  C   UNL     1       2.454   4.907  19.197  0.00  0.00    +0.000 A 
ATOM      8  C   UNL     1       3.142   5.124  18.024  0.00  0.00    +0.000 A 
ATOM      9  N   UNL     1       3.249   6.473  17.756  0.00  0.00    +0.000 NA
ATOM     10  C   UNL     1       2.588   7.076  18.714  0.00  0.00    +0.000 A 
ATOM     11  C   UNL     1       2.374   8.546  18.863  0.00  0.00    +0.000 C 
ENDROOT
BRANCH   2  12
ATOM     12  C   UNL     1       0.040  10.396  18.397  0.00  0.00    +0.000 C 
BRANCH  12  13
ATOM     13  C   UNL     1      -1.405  10.563  17.994  0.00  0.00    +0.000 A 
ATOM     14  C   UNL     1      -1.992   9.785  16.979  0.00  0.00    +0.000 A 
ATOM     15  C   UNL     1      -3.329   9.983  16.623  0.00  0.00    +0.000 A 
ATOM     16  C   UNL     1      -4.082  10.941  17.290  0.00  0.00    +0.000 A 
ATOM     17  F   UNL     1      -5.355  11.152  16.934  0.00  0.00    +0.000 F 
ATOM     18  C   UNL     1      -3.533  11.682  18.328  0.00  0.00    +0.000 A 
ATOM     19  C   UNL     1      -2.200  11.487  18.686  0.00  0.00    +0.000 A 
ENDBRANCH  12  13
ENDBRANCH   2  12
BRANCH   8  20
ATOM     20  C   UNL     1       3.677   4.137  17.059  0.00  0.00    +0.000 C 
BRANCH  20  21
ATOM     21  N   UNL     1       5.107   4.352  16.903  0.00  0.00    +0.000 N 
ATOM     22  C   UNL     1       6.047   4.383  17.899  0.00  0.00    +0.000 A 
ATOM     23  C   UNL     1       7.240   4.684  17.289  0.00  0.00    +0.000 A 
ATOM     24  C   UNL     1       6.922   4.794  15.924  0.00  0.00    +0.000 A 
ATOM     25  N   UNL     1       5.627   4.582  15.677  0.00  0.00    +0.000 NA
ENDBRANCH  20  21
ENDBRANCH   8  20
TORSDOF 4
ENDMDL
