MODEL 1
REMARK VINA RESULT:      -7.8      0.000      0.000
REMARK  Name = 
REMARK  4 active torsions:
REMARK  status: ('A' for Active; 'I' for Inactive)
REMARK    1  A    between atoms: C_1  and  N_2
REMARK    2  A    between atoms: C_4  and  C_5
REMARK    3  A    between atoms: C_8  and  C_9
REMARK    4  A    between atoms: C_13  and  C_14
REMARK                            x       y       z     vdW  Elec       q    Type
REMARK                         _______ _______ _______ _____ _____    ______ ____
ROOT
ATOM      1  C   UNL     1       1.574   8.953  19.248  0.00  0.00    +0.000 A 
ATOM      2  N   UNL     1       1.813   9.521  18.055  0.00  0.00    +0.000 NA
ATOM      3  O   UNL     1       2.515   8.541  17.365  0.00  0.00    +0.000 OA
ATOM      4  C   UNL     1       2.622   7.467  18.203  0.00  0.00    +0.000 A 
ATOM      5  N   UNL     1       2.062   7.671  19.371  0.00  0.00    +0.000 NA
ENDROOT
BRANCH   1   9
ATOM      6  C   UNL     1      -0.075  12.914  21.604  0.00  0.00    +0.000 C 
ATOM      7  N   UNL     1       0.051  11.470  21.528  0.00  0.00    +0.000 N 
ATOM      8  C   UNL     1       0.733  10.888  20.472  0.00  0.00    +0.000 A 
ATOM      9  C   UNL     1       0.876   9.552  20.352  0.00  0.00    +0.000 A 
ATOM     10  C   UNL     1       0.294   8.718  21.397  0.00  0.00    +0.000 A 
ATOM     11  C   UNL     1      -0.373   9.247  22.431  0.00  0.00    +0.000 A 
ATOM     12  C   UNL     1      -0.537  10.717  22.541  0.00  0.00    +0.000 A 
ATOM     13  O   UNL     1      -1.162  11.187  23.490  0.00  0.00    +0.000 OA
ENDBRANCH   1   9
BRANCH   4  14
ATOM     14  C   UNL     1       3.284   6.286  17.674  0.00  0.00    +0.000 A 
ATOM     15  C   UNL     1       2.728   5.013  17.857  0.00  0.00    +0.000 A 
ATOM     16  C   UNL     1       3.381   3.873  17.391  0.00  0.00    +0.000 A 
ATOM     17  C   UNL     1       4.611   3.994  16.747  0.00  0.00    +0.000 A 
ATOM     18  C   UNL     1       5.184   5.256  16.555  0.00  0.00    +0.000 A 
ATOM     19  C   UNL     1       4.513   6.401  17.004  0.00  0.00    +0.000 A 
BRANCH  18  20
ATOM     20  C   UNL     1       6.470   5.373  15.932  0.00  0.00    +0.000 C 
ATOM     21  N   UNL     1       7.513   5.447  15.426  0.00  0.00    +0.000 NA
ENDBRANCH  18  20
ENDBRANCH   4  14
TORSDOF 3
ENDMDL
MODEL 2
REMARK VINA RESULT:      -7.6      1.507      2.036
REMARK  Name = 
REMARK  4 active torsions:
REMARK  status: ('A' for Active; 'I' for Inactive)
REMARK    1  A    between atoms: C_1  and  N_2
REMARK    2  A    between atoms: C_4  and  C_5
REMARK    3  A    between atoms: C_8  and  C_9
REMARK    4  A    between atoms: C_13  and  C_14
REMARK                            x       y       z     vdW  Elec       q    Type
REMARK                         _______ _______ _______ _____ _____    ______ ____
ROOT
ATOM      1  C   UNL     1       1.551   8.936  19.174  0.00  0.00    +0.000 A 
ATOM      2  N   UNL     1       1.649   9.469  17.946  0.00  0.00    +0.000 NA
ATOM      3  O   UNL     1       2.452   8.564  17.264  0.00  0.00    +0.000 OA
ATOM      4  C   UNL     1       2.752   7.562  18.143  0.00  0.00    +0.000 A 
ATOM      5  N   UNL     1       2.225   7.745  19.329  0.00  0.00    +0.000 NA
ENDROOT
BRANCH   1   9
ATOM      6  C   UNL     1      -1.570  12.224  21.020  0.00  0.00    +0.000 C 
ATOM      7  N   UNL     1      -0.700  11.079  21.221  0.00  0.00    +0.000 N 
ATOM      8  C   UNL     1       0.009  10.551  20.155  0.00  0.00    +0.000 A 
ATOM      9  C   UNL     1       0.827   9.487  20.286  0.00  0.00    +0.000 A 
ATOM     10  C   UNL     1       0.960   8.904  21.616  0.00  0.00    +0.000 A 
ATOM     11  C   UNL     1       0.288   9.388  22.669  0.00  0.00    +0.000 A 
ATOM     12  C   UNL     1      -0.621  10.548  22.506  0.00  0.00    +0.000 A 
ATOM     13  O   UNL     1      -1.239  10.973  23.480  0.00  0.00    +0.000 OA
ENDBRANCH   1   9
BRANCH   4  14
ATOM     14  C   UNL     1       3.552   6.460  17.632  0.00  0.00    +0.000 A 
ATOM     15  C   UNL     1       4.587   6.693  16.716  0.00  0.00    +0.000 A 
ATOM     16  C   UNL     1       5.326   5.635  16.189  0.00  0.00    +0.000 A 
ATOM     17  C   UNL     1       5.028   4.326  16.563  0.00  0.00    +0.000 A 
ATOM     18  C   UNL     1       3.998   4.072  17.474  0.00  0.00    +0.000 A 
ATOM     19  C   UNL     1       3.272   5.139  18.020  0.00  0.00    +0.000 A 
BRANCH  18  20
ATOM     20  C   UNL     1       3.664   2.722  17.822  0.00  0.00    +0.000 C 
ATOM     21  N   UNL     1       3.413   1.623  18.103  0.00  0.00    +0.000 NA
ENDBRANCH  18  20
ENDBRANCH   4  14
TORSDOF 3
ENDMDL
MODEL 3
REMARK VINA RESULT:      -7.5      4.579      6.460
REMARK  Name = 
REMARK  4 active torsions:
REMARK  status: ('A' for Active; 'I' for Inactive)
REMARK    1  A    between atoms: C_1  and  N_2
REMARK    2  A    between atoms: C_4  and  C_5
REMARK    3  A    between atoms: C_8  and  C_9
REMARK    4  A    between atoms: C_13  and  C_14
REMARK                            x       y       z     vdW  Elec       q    Type
REMARK                         _______ _______ _______ _____ _____    ______ ____
ROOT
ATOM      1  C   UNL     1       5.354   4.105  18.165  0.00  0.00    +0.000 A 
ATOM      2  N   UNL     1       6.614   4.539  18.325  0.00  0.00    +0.000 NA
ATOM      3  O   UNL     1       7.102   4.599  17.026  0.00  0.00    +0.000 OA
ATOM      4  C   UNL     1       6.084   4.208  16.203  0.00  0.00    +0.000 A 
ATOM      5  N   UNL     1       4.991   3.892  16.854  0.00  0.00    +0.000 NA
ENDROOT
BRANCH   1   9
ATOM      6  C   UNL     1       1.578   5.564  20.917  0.00  0.00    +0.000 C 
ATOM      7  N   UNL     1       2.549   4.542  20.572  0.00  0.00    +0.000 N 
ATOM      8  C   UNL     1       3.479   4.777  19.573  0.00  0.00    +0.000 A 
ATOM      9  C   UNL     1       4.400   3.861  19.211  0.00  0.00    +0.000 A 
ATOM     10  C   UNL     1       4.400   2.591  19.930  0.00  0.00    +0.000 A 
ATOM     11  C   UNL     1       3.515   2.330  20.900  0.00  0.00    +0.000 A 
ATOM     12  C   UNL     1       2.497   3.341  21.275  0.00  0.00    +0.000 A 
ATOM     13  O   UNL     1       1.684   3.081  22.160  0.00  0.00    +0.000 OA
ENDBRANCH   1   9
BRANCH   4  14
ATOM     14  C   UNL     1       6.348   4.240  14.773  0.00  0.00    +0.000 A 
ATOM     15  C   UNL     1       7.495   4.869  14.272  0.00  0.00    +0.000 A 
ATOM     16  C   UNL     1       7.729   4.941  12.900  0.00  0.00    +0.000 A 
ATOM     17  C   UNL     1       6.806   4.396  12.009  0.00  0.00    +0.000 A 
ATOM     18  C   UNL     1       5.654   3.765  12.489  0.00  0.00    +0.000 A 
ATOM     19  C   UNL     1       5.433   3.674  13.869  0.00  0.00    +0.000 A 
BRANCH  18  20
ATOM     20  C   UNL     1       4.684   3.245  11.570  0.00  0.00    +0.000 C 
ATOM     21  N   UNL     1       3.912   2.826  10.809  0.00  0.00    +0.000 NA
ENDBRANCH  18  20
ENDBRANCH   4  14
TORSDOF 3
ENDMDL
MODEL 4
REMARK VINA RESULT:      -7.4      0.910      1.556
REMARK  Name = 
REMARK  4 active torsions:
REMARK  status: ('A' for Active; 'I' for Inactive)
REMARK    1  A    between atoms: C_1  and  N_2
REMARK    2  A    between atoms: C_4  and  C_5
REMARK    3  A    between atoms: C_8  and  C_9
REMARK    4  A    between atoms: C_13  and  C_14
REMARK                            x       y       z     vdW  Elec       q    Type
REMARK                         _______ _______ _______ _____ _____    ______ ____
ROOT
ATOM      1  C   UNL     1       1.684   9.084  18.893  0.00  0.00    +0.000 A 
ATOM      2  N   UNL     1       2.000   9.446  17.640  0.00  0.00    +0.000 NA
ATOM      3  O   UNL     1       2.650   8.328  17.134  0.00  0.00    +0.000 OA
ATOM      4  C   UNL     1       2.652   7.389  18.127  0.00  0.00    +0.000 A 
ATOM      5  N   UNL     1       2.073   7.806  19.227  0.00  0.00    +0.000 NA
ENDROOT
BRANCH   1   9
ATOM      6  C   UNL     1      -0.312   9.640  23.328  0.00  0.00    +0.000 C 
ATOM      7  N   UNL     1       0.016  10.198  22.029  0.00  0.00    +0.000 N 
ATOM      8  C   UNL     1       0.667   9.421  21.084  0.00  0.00    +0.000 A 
ATOM      9  C   UNL     1       0.998   9.890  19.865  0.00  0.00    +0.000 A 
ATOM     10  C   UNL     1       0.629  11.267  19.554  0.00  0.00    +0.000 A 
ATOM     11  C   UNL     1       0.000  12.046  20.442  0.00  0.00    +0.000 A 
ATOM     12  C   UNL     1      -0.341  11.521  21.787  0.00  0.00    +0.000 A 
ATOM     13  O   UNL     1      -0.908  12.253  22.596  0.00  0.00    +0.000 OA
ENDBRANCH   1   9
BRANCH   4  14
ATOM     14  C   UNL     1       3.242   6.099  17.809  0.00  0.00    +0.000 A 
ATOM     15  C   UNL     1       2.466   4.932  17.835  0.00  0.00    +0.000 A 
ATOM     16  C   UNL     1       3.037   3.688  17.575  0.00  0.00    +0.000 A 
ATOM     17  C   UNL     1       4.400   3.594  17.299  0.00  0.00    +0.000 A 
ATOM     18  C   UNL     1       5.192   4.747  17.269  0.00  0.00    +0.000 A 
ATOM     19  C   UNL     1       4.611   5.998  17.508  0.00  0.00    +0.000 A 
BRANCH  18  20
ATOM     20  C   UNL     1       6.602   4.642  17.029  0.00  0.00    +0.000 C 
ATOM     21  N   UNL     1       7.742   4.537  16.832  0.00  0.00    +0.000 NA
ENDBRANCH  18  20
ENDBRANCH   4  14
TORSDOF 3
ENDMDL
MODEL 5
REMARK VINA RESULT:      -7.3      2.345      2.735
REMARK  Name = 
REMARK  4 active torsions:
REMARK  status: ('A' for Active; 'I' for Inactive)
REMARK    1  A    between atoms: C_1  and  N_2
REMARK    2  A    between atoms: C_4  and  C_5
REMARK    3  A    between atoms: C_8  and  C_9
REMARK    4  A    between atoms: C_13  and  C_14
REMARK                            x       y       z     vdW  Elec       q    Type
REMARK                         _______ _______ _______ _____ _____    ______ ____
ROOT
ATOM      1  C   UNL     1       1.765   7.914  19.733  0.00  0.00    +0.000 A 
ATOM      2  N   UNL     1       2.333   8.192  18.549  0.00  0.00    +0.000 NA
ATOM      3  O   UNL     1       2.810   6.959  18.122  0.00  0.00    +0.000 OA
ATOM      4  C   UNL     1       2.472   6.050  19.085  0.00  0.00    +0.000 A 
ATOM      5  N   UNL     1       1.832   6.587  20.095  0.00  0.00    +0.000 NA
ENDROOT
BRANCH   1   9
ATOM      6  C   UNL     1      -0.808  12.019  20.433  0.00  0.00    +0.000 C 
ATOM      7  N   UNL     1      -0.142  10.854  20.987  0.00  0.00    +0.000 N 
ATOM      8  C   UNL     1       0.491   9.953  20.148  0.00  0.00    +0.000 A 
ATOM      9  C   UNL     1       1.121   8.853  20.609  0.00  0.00    +0.000 A 
ATOM     10  C   UNL     1       1.131   8.644  22.053  0.00  0.00    +0.000 A 
ATOM     11  C   UNL     1       0.529   9.494  22.894  0.00  0.00    +0.000 A 
ATOM     12  C   UNL     1      -0.175  10.690  22.369  0.00  0.00    +0.000 A 
ATOM     13  O   UNL     1      -0.733  11.455  23.153  0.00  0.00    +0.000 OA
ENDBRANCH   1   9
BRANCH   4  14
ATOM     14  C   UNL     1       2.828   4.663  18.830  0.00  0.00    +0.000 A 
ATOM     15  C   UNL     1       2.309   3.985  17.719  0.00  0.00    +0.000 A 
ATOM     16  C   UNL     1       2.611   2.643  17.496  0.00  0.00    +0.000 A 
ATOM     17  C   UNL     1       3.427   1.957  18.394  0.00  0.00    +0.000 A 
ATOM     18  C   UNL     1       3.954   2.616  19.510  0.00  0.00    +0.000 A 
ATOM     19  C   UNL     1       3.668   3.971  19.718  0.00  0.00    +0.000 A 
BRANCH  18  20
ATOM     20  C   UNL     1       4.757   1.896  20.455  0.00  0.00    +0.000 C 
ATOM     21  N   UNL     1       5.389   1.306  21.231  0.00  0.00    +0.000 NA
ENDBRANCH  18  20
ENDBRANCH   4  14
TORSDOF 3
ENDMDL
MODEL 6
REMARK VINA RESULT:      -7.3      1.948      8.139
REMARK  Name = 
REMARK  4 active torsions:
REMARK  status: ('A' for Active; 'I' for Inactive)
REMARK    1  A    between atoms: C_1  and  N_2
REMARK    2  A    between atoms: C_4  and  C_5
REMARK    3  A    between atoms: C_8  and  C_9
REMARK    4  A    between atoms: C_13  and  C_14
REMARK                            x       y       z     vdW  Elec       q    Type
REMARK                         _______ _______ _______ _____ _____    ______ ____
ROOT
ATOM      1  C   UNL     1       2.477   7.860  18.270  0.00  0.00    +0.000 A 
ATOM      2  N   UNL     1       2.151   8.980  17.606  0.00  0.00    +0.000 NA
ATOM      3  O   UNL     1       1.404   9.698  18.532  0.00  0.00    +0.000 OA
ATOM      4  C   UNL     1       1.363   8.948  19.673  0.00  0.00    +0.000 A 
ATOM      5  N   UNL     1       2.004   7.810  19.562  0.00  0.00    +0.000 NA
ENDROOT
BRANCH   1   9
ATOM      6  C   UNL     1       3.156   3.054  17.634  0.00  0.00    +0.000 C 
ATOM      7  N   UNL     1       3.610   4.417  17.425  0.00  0.00    +0.000 N 
ATOM      8  C   UNL     1       2.875   5.478  17.927  0.00  0.00    +0.000 A 
ATOM      9  C   UNL     1       3.250   6.762  17.758  0.00  0.00    +0.000 A 
ATOM     10  C   UNL     1       4.489   7.008  17.029  0.00  0.00    +0.000 A 
ATOM     11  C   UNL     1       5.224   6.007  16.529  0.00  0.00    +0.000 A 
ATOM     12  C   UNL     1       4.790   4.600  16.707  0.00  0.00    +0.000 A 
ATOM     13  O   UNL     1       5.470   3.692  16.233  0.00  0.00    +0.000 OA
ENDBRANCH   1   9
BRANCH   4  14
ATOM     14  C   UNL     1       0.669   9.526  20.813  0.00  0.00    +0.000 A 
ATOM     15  C   UNL     1       0.801   8.965  22.090  0.00  0.00    +0.000 A 
ATOM     16  C   UNL     1       0.102   9.488  23.176  0.00  0.00    +0.000 A 
ATOM     17  C   UNL     1      -0.752  10.575  22.994  0.00  0.00    +0.000 A 
ATOM     18  C   UNL     1      -0.898  11.149  21.727  0.00  0.00    +0.000 A 
ATOM     19  C   UNL     1      -0.177  10.635  20.642  0.00  0.00    +0.000 A 
BRANCH  18  20
ATOM     20  C   UNL     1      -1.811  12.237  21.534  0.00  0.00    +0.000 C 
ATOM     21  N   UNL     1      -2.563  13.107  21.366  0.00  0.00    +0.000 NA
ENDBRANCH  18  20
ENDBRANCH   4  14
TORSDOF 3
ENDMDL
MODEL 7
REMARK VINA RESULT:      -7.2      1.645      2.453
REMARK  Name = 
REMARK  4 active torsions:
REMARK  status: ('A' for Active; 'I' for Inactive)
REMARK    1  A    between atoms: C_1  and  N_2
REMARK    2  A    between atoms: C_4  and  C_5
REMARK    3  A    between atoms: C_8  and  C_9
REMARK    4  A    between atoms: C_13  and  C_14
REMARK                            x       y       z     vdW  Elec       q    Type
REMARK                         _______ _______ _______ _____ _____    ______ ____
ROOT
ATOM      1  C   UNL     1       1.574   9.144  18.847  0.00  0.00    +0.000 A 
ATOM      2  N   UNL     1       1.858   9.641  17.634  0.00  0.00    +0.000 NA
ATOM      3  O   UNL     1       2.680   8.672  17.072  0.00  0.00    +0.000 OA
ATOM      4  C   UNL     1       2.803   7.674  17.997  0.00  0.00    +0.000 A 
ATOM      5  N   UNL     1       2.145   7.918  19.105  0.00  0.00    +0.000 NA
ENDROOT
BRANCH   1   9
ATOM      6  C   UNL     1       0.014   9.475  23.475  0.00  0.00    +0.000 C 
ATOM      7  N   UNL     1      -0.027   9.958  22.107  0.00  0.00    +0.000 N 
ATOM      8  C   UNL     1       0.752   9.354  21.135  0.00  0.00    +0.000 A 
ATOM      9  C   UNL     1       0.754   9.766  19.851  0.00  0.00    +0.000 A 
ATOM     10  C   UNL     1      -0.121  10.880  19.502  0.00  0.00    +0.000 A 
ATOM     11  C   UNL     1      -0.887  11.487  20.417  0.00  0.00    +0.000 A 
ATOM     12  C   UNL     1      -0.865  11.035  21.829  0.00  0.00    +0.000 A 
ATOM     13  O   UNL     1      -1.566  11.610  22.660  0.00  0.00    +0.000 OA
ENDBRANCH   1   9
BRANCH   4  14
ATOM     14  C   UNL     1       3.588   6.513  17.609  0.00  0.00    +0.000 A 
ATOM     15  C   UNL     1       4.714   6.654  16.788  0.00  0.00    +0.000 A 
ATOM     16  C   UNL     1       5.442   5.540  16.375  0.00  0.00    +0.000 A 
ATOM     17  C   UNL     1       5.042   4.264  16.770  0.00  0.00    +0.000 A 
ATOM     18  C   UNL     1       3.919   4.102  17.588  0.00  0.00    +0.000 A 
ATOM     19  C   UNL     1       3.203   5.226  18.020  0.00  0.00    +0.000 A 
BRANCH  18  20
ATOM     20  C   UNL     1       3.483   2.786  17.955  0.00  0.00    +0.000 C 
ATOM     21  N   UNL     1       3.143   1.712  18.239  0.00  0.00    +0.000 NA
ENDBRANCH  18  20
ENDBRANCH   4  14
TORSDOF 3
ENDMDL
MODEL 8
REMARK VINA RESULT:      -7.1      2.262      2.541
REMARK  Name = 
REMARK  4 active torsions:
REMARK  status: ('A' for Active; 'I' for Inactive)
REMARK    1  A    between atoms: C_1  and  N_2
REMARK    2  A    between atoms: C_4  and  C_5
REMARK    3  A    between atoms: C_8  and  C_9
REMARK    4  A    between atoms: C_13  and  C_14
REMARK                            x       y       z     vdW  Elec       q    Type
REMARK                         _______ _______ _______ _____ _____    ______ ____
ROOT
ATOM      1  C   UNL     1       1.607   8.883  18.985  0.00  0.00    +0.000 A 
ATOM      2  N   UNL     1       1.692   8.175  20.123  0.00  0.00    +0.000 NA
ATOM      3  O   UNL     1       2.309   6.996  19.725  0.00  0.00    +0.000 OA
ATOM      4  C   UNL     1       2.550   7.110  18.385  0.00  0.00    +0.000 A 
ATOM      5  N   UNL     1       2.135   8.248  17.884  0.00  0.00    +0.000 NA
ENDROOT
BRANCH   1   9
ATOM      6  C   UNL     1       2.114  13.713  18.375  0.00  0.00    +0.000 C 
ATOM      7  N   UNL     1       1.247  12.560  18.536  0.00  0.00    +0.000 N 
ATOM      8  C   UNL     1       1.794  11.297  18.690  0.00  0.00    +0.000 A 
ATOM      9  C   UNL     1       1.034  10.193  18.838  0.00  0.00    +0.000 A 
ATOM     10  C   UNL     1      -0.413  10.371  18.849  0.00  0.00    +0.000 A 
ATOM     11  C   UNL     1      -0.976  11.578  18.703  0.00  0.00    +0.000 A 
ATOM     12  C   UNL     1      -0.128  12.781  18.522  0.00  0.00    +0.000 A 
ATOM     13  O   UNL     1      -0.660  13.880  18.377  0.00  0.00    +0.000 OA
ENDBRANCH   1   9
BRANCH   4  14
ATOM     14  C   UNL     1       3.244   6.002  17.748  0.00  0.00    +0.000 A 
ATOM     15  C   UNL     1       2.721   4.703  17.805  0.00  0.00    +0.000 A 
ATOM     16  C   UNL     1       3.406   3.631  17.236  0.00  0.00    +0.000 A 
ATOM     17  C   UNL     1       4.634   3.844  16.613  0.00  0.00    +0.000 A 
ATOM     18  C   UNL     1       5.174   5.133  16.546  0.00  0.00    +0.000 A 
ATOM     19  C   UNL     1       4.473   6.212  17.099  0.00  0.00    +0.000 A 
BRANCH  18  20
ATOM     20  C   UNL     1       6.458   5.342  15.944  0.00  0.00    +0.000 C 
ATOM     21  N   UNL     1       7.508   5.499  15.471  0.00  0.00    +0.000 NA
ENDBRANCH  18  20
ENDBRANCH   4  14
TORSDOF 3
ENDMDL
MODEL 9
REMARK VINA RESULT:      -7.1      2.160      2.635
REMARK  Name = 
REMARK  4 active torsions:
REMARK  status: ('A' for Active; 'I' for Inactive)
REMARK    1  A    between atoms: C_1  and  N_2
REMARK    2  A    between atoms: C_4  and  C_5
REMARK    3  A    between atoms: C_8  and  C_9
REMARK    4  A    between atoms: C_13  and  C_14
REMARK                            x       y       z     vdW  Elec       q    Type
REMARK                         _______ _______ _______ _____ _____    ______ ____
ROOT
ATOM      1  C   UNL     1       1.546   9.094  19.071  0.00  0.00    +0.000 A 
ATOM      2  N   UNL     1       1.565   8.361  20.195  0.00  0.00    +0.000 NA
ATOM      3  O   UNL     1       2.169   7.175  19.798  0.00  0.00    +0.000 OA
ATOM      4  C   UNL     1       2.470   7.310  18.472  0.00  0.00    +0.000 A 
ATOM      5  N   UNL     1       2.105   8.469  17.979  0.00  0.00    +0.000 NA
ENDROOT
BRANCH   1   9
ATOM      6  C   UNL     1      -2.219  12.217  19.235  0.00  0.00    +0.000 C 
ATOM      7  N   UNL     1      -0.806  11.977  19.005  0.00  0.00    +0.000 N 
ATOM      8  C   UNL     1      -0.291  10.698  19.128  0.00  0.00    +0.000 A 
ATOM      9  C   UNL     1       1.014  10.421  18.929  0.00  0.00    +0.000 A 
ATOM     10  C   UNL     1       1.885  11.530  18.556  0.00  0.00    +0.000 A 
ATOM     11  C   UNL     1       1.421  12.779  18.428  0.00  0.00    +0.000 A 
ATOM     12  C   UNL     1      -0.014  13.071  18.667  0.00  0.00    +0.000 A 
ATOM     13  O   UNL     1      -0.422  14.226  18.557  0.00  0.00    +0.000 OA
ENDBRANCH   1   9
BRANCH   4  14
ATOM     14  C   UNL     1       3.163   6.198  17.840  0.00  0.00    +0.000 A 
ATOM     15  C   UNL     1       2.622   4.906  17.876  0.00  0.00    +0.000 A 
ATOM     16  C   UNL     1       3.304   3.830  17.312  0.00  0.00    +0.000 A 
ATOM     17  C   UNL     1       4.547   4.032  16.716  0.00  0.00    +0.000 A 
ATOM     18  C   UNL     1       5.105   5.314  16.670  0.00  0.00    +0.000 A 
ATOM     19  C   UNL     1       4.407   6.397  17.218  0.00  0.00    +0.000 A 
BRANCH  18  20
ATOM     20  C   UNL     1       6.404   5.511  16.097  0.00  0.00    +0.000 C 
ATOM     21  N   UNL     1       7.449   5.665  15.613  0.00  0.00    +0.000 NA
ENDBRANCH  18  20
ENDBRANCH   4  14
TORSDOF 3
ENDMDL
