MODEL 1
REMARK VINA RESULT:      -7.0      0.000      0.000
REMARK  Name = 
REMARK  5 active torsions:
REMARK  status: ('A' for Active; 'I' for Inactive)
REMARK    1  A    between atoms: C_1  and  O_2
REMARK    2  A    between atoms: O_2  and  C_3
REMARK    3  A    between atoms: C_6  and  N_7
REMARK    4  A    between atoms: C_9  and  C_10
REMARK    5  A    between atoms: N_15  and  C_16
REMARK                            x       y       z     vdW  Elec       q    Type
REMARK                         _______ _______ _______ _____ _____    ______ ____
ROOT
ATOM      1  N   UNL     1       2.639   5.683  19.821  0.00  0.00    +0.000 N 
ATOM      2  C   UNL     1       4.044   5.368  19.698  0.00  0.00    +0.000 C 
ATOM      3  C   UNL     1       4.125   3.854  19.590  0.00  0.00    +0.000 C 
ATOM      4  C   UNL     1       2.856   3.381  20.294  0.00  0.00    +0.000 C 
ATOM      5  C   UNL     1       1.900   4.545  20.175  0.00  0.00    +0.000 C 
ATOM      6  O   UNL     1       0.715   4.446  20.444  0.00  0.00    +0.000 OA
ENDROOT
BRANCH   3   7
ATOM      7  C   UNL     1       4.194   3.362  18.141  0.00  0.00    +0.000 C 
ATOM      8  O   UNL     1       3.717   2.271  17.824  0.00  0.00    +0.000 OA
ATOM      9  N   UNL     1       4.812   4.175  17.187  0.00  0.00    +0.000 N 
ATOM     10  C   UNL     1       4.898   3.617  15.829  0.00  0.00    +0.000 C 
ATOM     11  C   UNL     1       5.205   4.670  14.747  0.00  0.00    +0.000 C 
ATOM     12  N   UNL     1       6.333   5.571  15.055  0.00  0.00    +0.000 NA
ATOM     13  C   UNL     1       7.621   4.892  14.938  0.00  0.00    +0.000 C 
ATOM     14  C   UNL     1       6.132   6.158  16.392  0.00  0.00    +0.000 C 
ATOM     15  C   UNL     1       5.862   5.143  17.523  0.00  0.00    +0.000 C 
ENDBRANCH   3   7
BRANCH   1  19
ATOM     16  C   UNL     1       1.080   9.634  19.408  0.00  0.00    +0.000 A 
ATOM     17  C   UNL     1       0.992   8.963  20.623  0.00  0.00    +0.000 A 
ATOM     18  C   UNL     1       1.517   7.672  20.768  0.00  0.00    +0.000 A 
ATOM     19  C   UNL     1       2.128   7.008  19.696  0.00  0.00    +0.000 A 
ATOM     20  C   UNL     1       2.208   7.699  18.479  0.00  0.00    +0.000 A 
ATOM     21  C   UNL     1       1.684   8.993  18.328  0.00  0.00    +0.000 A 
BRANCH  16  23
ATOM     22  C   UNL     1      -0.881  10.922  19.684  0.00  0.00    +0.000 C 
ATOM     23  O   UNL     1       0.508  10.874  19.374  0.00  0.00    +0.000 OA
ENDBRANCH  16  23
ENDBRANCH   1  19
TORSDOF 3
ENDMDL
MODEL 2
REMARK VINA RESULT:      -6.9      0.428      1.086
REMARK  Name = 
REMARK  5 active torsions:
REMARK  status: ('A' for Active; 'I' for Inactive)
REMARK    1  A    between atoms: C_1  and  O_2
REMARK    2  A    between atoms: O_2  and  C_3
REMARK    3  A    between atoms: C_6  and  N_7
REMARK    4  A    between atoms: C_9  and  C_10
REMARK    5  A    between atoms: N_15  and  C_16
REMARK                            x       y       z     vdW  Elec       q    Type
REMARK                         _______ _______ _______ _____ _____    ______ ____
ROOT
ATOM      1  N   UNL     1       2.684   5.739  19.781  0.00  0.00    +0.000 N 
ATOM      2  C   UNL     1       4.093   5.445  19.650  0.00  0.00    +0.000 C 
ATOM      3  C   UNL     1       4.199   3.931  19.578  0.00  0.00    +0.000 C 
ATOM      4  C   UNL     1       2.946   3.454  20.309  0.00  0.00    +0.000 C 
ATOM      5  C   UNL     1       1.969   4.598  20.171  0.00  0.00    +0.000 C 
ATOM      6  O   UNL     1       0.789   4.485  20.456  0.00  0.00    +0.000 OA
ENDROOT
BRANCH   3   7
ATOM      7  C   UNL     1       4.261   3.405  18.141  0.00  0.00    +0.000 C 
ATOM      8  O   UNL     1       3.806   2.295  17.859  0.00  0.00    +0.000 OA
ATOM      9  N   UNL     1       4.847   4.207  17.160  0.00  0.00    +0.000 N 
ATOM     10  C   UNL     1       4.929   3.618  15.815  0.00  0.00    +0.000 C 
ATOM     11  C   UNL     1       5.197   4.649  14.703  0.00  0.00    +0.000 C 
ATOM     12  N   UNL     1       6.308   5.584  14.973  0.00  0.00    +0.000 NA
ATOM     13  C   UNL     1       7.610   4.932  14.855  0.00  0.00    +0.000 C 
ATOM     14  C   UNL     1       6.110   6.199  16.298  0.00  0.00    +0.000 C 
ATOM     15  C   UNL     1       5.879   5.207  17.457  0.00  0.00    +0.000 C 
ENDBRANCH   3   7
BRANCH   1  19
ATOM     16  C   UNL     1       1.114   9.686  19.367  0.00  0.00    +0.000 A 
ATOM     17  C   UNL     1       1.698   9.041  18.283  0.00  0.00    +0.000 A 
ATOM     18  C   UNL     1       2.200   7.739  18.409  0.00  0.00    +0.000 A 
ATOM     19  C   UNL     1       2.149   7.052  19.630  0.00  0.00    +0.000 A 
ATOM     20  C   UNL     1       1.557   7.717  20.713  0.00  0.00    +0.000 A 
ATOM     21  C   UNL     1       1.051   9.021  20.591  0.00  0.00    +0.000 A 
BRANCH  16  23
ATOM     22  C   UNL     1       0.789  11.856  20.240  0.00  0.00    +0.000 C 
ATOM     23  O   UNL     1       0.686  10.963  19.137  0.00  0.00    +0.000 OA
ENDBRANCH  16  23
ENDBRANCH   1  19
TORSDOF 3
ENDMDL
MODEL 3
REMARK VINA RESULT:      -6.7      3.142      7.585
REMARK  Name = 
REMARK  5 active torsions:
REMARK  status: ('A' for Active; 'I' for Inactive)
REMARK    1  A    between atoms: C_1  and  O_2
REMARK    2  A    between atoms: O_2  and  C_3
REMARK    3  A    between atoms: C_6  and  N_7
REMARK    4  A    between atoms: C_9  and  C_10
REMARK    5  A    between atoms: N_15  and  C_16
REMARK                            x       y       z     vdW  Elec       q    Type
REMARK                         _______ _______ _______ _____ _____    ______ ____
ROOT
ATOM      1  N   UNL     1       6.669   5.102  16.625  0.00  0.00    +0.000 N 
ATOM      2  C   UNL     1       6.250   4.172  17.649  0.00  0.00    +0.000 C 
ATOM      3  C   UNL     1       6.023   5.005  18.901  0.00  0.00    +0.000 C 
ATOM      4  C   UNL     1       6.930   6.214  18.689  0.00  0.00    +0.000 C 
ATOM      5  C   UNL     1       7.083   6.316  17.190  0.00  0.00    +0.000 C 
ATOM      6  O   UNL     1       7.573   7.293  16.649  0.00  0.00    +0.000 OA
ENDROOT
BRANCH   3   7
ATOM      7  C   UNL     1       4.559   5.412  19.089  0.00  0.00    +0.000 C 
ATOM      8  O   UNL     1       4.224   6.596  19.033  0.00  0.00    +0.000 OA
ATOM      9  N   UNL     1       3.612   4.413  19.331  0.00  0.00    +0.000 N 
ATOM     10  C   UNL     1       2.236   4.877  19.563  0.00  0.00    +0.000 C 
ATOM     11  C   UNL     1       1.178   3.767  19.422  0.00  0.00    +0.000 C 
ATOM     12  N   UNL     1       1.479   2.520  20.154  0.00  0.00    +0.000 NA
ATOM     13  C   UNL     1       1.304   2.678  21.596  0.00  0.00    +0.000 C 
ATOM     14  C   UNL     1       2.839   2.071  19.804  0.00  0.00    +0.000 C 
ATOM     15  C   UNL     1       3.946   3.133  19.967  0.00  0.00    +0.000 C 
ENDBRANCH   3   7
BRANCH   1  19
ATOM     16  C   UNL     1       6.932   4.042  12.499  0.00  0.00    +0.000 A 
ATOM     17  C   UNL     1       5.968   3.464  13.317  0.00  0.00    +0.000 A 
ATOM     18  C   UNL     1       5.866   3.821  14.668  0.00  0.00    +0.000 A 
ATOM     19  C   UNL     1       6.740   4.752  15.244  0.00  0.00    +0.000 A 
ATOM     20  C   UNL     1       7.707   5.325  14.406  0.00  0.00    +0.000 A 
ATOM     21  C   UNL     1       7.812   4.972  13.051  0.00  0.00    +0.000 A 
BRANCH  16  23
ATOM     22  C   UNL     1       7.249   2.214  11.037  0.00  0.00    +0.000 C 
ATOM     23  O   UNL     1       6.957   3.597  11.208  0.00  0.00    +0.000 OA
ENDBRANCH  16  23
ENDBRANCH   1  19
TORSDOF 3
ENDMDL
MODEL 4
REMARK VINA RESULT:      -6.7      4.262      9.617
REMARK  Name = 
REMARK  5 active torsions:
REMARK  status: ('A' for Active; 'I' for Inactive)
REMARK    1  A    between atoms: C_1  and  O_2
REMARK    2  A    between atoms: O_2  and  C_3
REMARK    3  A    between atoms: C_6  and  N_7
REMARK    4  A    between atoms: C_9  and  C_10
REMARK    5  A    between atoms: N_15  and  C_16
REMARK                            x       y       z     vdW  Elec       q    Type
REMARK                         _______ _______ _______ _____ _____    ______ ____
ROOT
ATOM      1  N   UNL     1       0.457  10.433  19.320  0.00  0.00    +0.000 N 
ATOM      2  C   UNL     1      -0.812  10.522  20.006  0.00  0.00    +0.000 C 
ATOM      3  C   UNL     1      -1.407  11.863  19.610  0.00  0.00    +0.000 C 
ATOM      4  C   UNL     1      -0.182  12.703  19.259  0.00  0.00    +0.000 C 
ATOM      5  C   UNL     1       0.870  11.693  18.867  0.00  0.00    +0.000 C 
ATOM      6  O   UNL     1       1.915  12.016  18.326  0.00  0.00    +0.000 OA
ENDROOT
BRANCH   3   7
ATOM      7  C   UNL     1      -2.386  11.758  18.437  0.00  0.00    +0.000 C 
ATOM      8  O   UNL     1      -1.973  11.640  17.283  0.00  0.00    +0.000 OA
ATOM      9  N   UNL     1      -3.756  11.806  18.704  0.00  0.00    +0.000 N 
ATOM     10  C   UNL     1      -4.640  11.762  17.529  0.00  0.00    +0.000 C 
ATOM     11  C   UNL     1      -6.101  11.412  17.866  0.00  0.00    +0.000 C 
ATOM     12  N   UNL     1      -6.688  12.187  18.978  0.00  0.00    +0.000 NA
ATOM     13  C   UNL     1      -6.976  13.566  18.590  0.00  0.00    +0.000 C 
ATOM     14  C   UNL     1      -5.790  12.111  20.145  0.00  0.00    +0.000 C 
ATOM     15  C   UNL     1      -4.320  12.493  19.871  0.00  0.00    +0.000 C 
ENDBRANCH   3   7
BRANCH   1  19
ATOM     16  C   UNL     1       2.662   6.787  19.079  0.00  0.00    +0.000 A 
ATOM     17  C   UNL     1       2.496   7.587  17.955  0.00  0.00    +0.000 A 
ATOM     18  C   UNL     1       1.787   8.794  18.032  0.00  0.00    +0.000 A 
ATOM     19  C   UNL     1       1.208   9.223  19.234  0.00  0.00    +0.000 A 
ATOM     20  C   UNL     1       1.385   8.404  20.358  0.00  0.00    +0.000 A 
ATOM     21  C   UNL     1       2.095   7.195  20.285  0.00  0.00    +0.000 A 
BRANCH  16  23
ATOM     22  C   UNL     1       4.687   5.760  18.430  0.00  0.00    +0.000 C 
ATOM     23  O   UNL     1       3.344   5.620  18.880  0.00  0.00    +0.000 OA
ENDBRANCH  16  23
ENDBRANCH   1  19
TORSDOF 3
ENDMDL
MODEL 5
REMARK VINA RESULT:      -6.6      4.280      9.552
REMARK  Name = 
REMARK  5 active torsions:
REMARK  status: ('A' for Active; 'I' for Inactive)
REMARK    1  A    between atoms: C_1  and  O_2
REMARK    2  A    between atoms: O_2  and  C_3
REMARK    3  A    between atoms: C_6  and  N_7
REMARK    4  A    between atoms: C_9  and  C_10
REMARK    5  A    between atoms: N_15  and  C_16
REMARK                            x       y       z     vdW  Elec       q    Type
REMARK                         _______ _______ _______ _____ _____    ______ ____
ROOT
ATOM      1  N   UNL     1       0.454  10.390  19.284  0.00  0.00    +0.000 N 
ATOM      2  C   UNL     1      -0.822  10.430  19.961  0.00  0.00    +0.000 C 
ATOM      3  C   UNL     1      -1.438  11.775  19.612  0.00  0.00    +0.000 C 
ATOM      4  C   UNL     1      -0.225  12.650  19.305  0.00  0.00    +0.000 C 
ATOM      5  C   UNL     1       0.848  11.675  18.883  0.00  0.00    +0.000 C 
ATOM      6  O   UNL     1       1.891  12.036  18.365  0.00  0.00    +0.000 OA
ENDROOT
BRANCH   3   7
ATOM      7  C   UNL     1      -2.406  11.698  18.427  0.00  0.00    +0.000 C 
ATOM      8  O   UNL     1      -1.981  11.582  17.277  0.00  0.00    +0.000 OA
ATOM      9  N   UNL     1      -3.778  11.768  18.678  0.00  0.00    +0.000 N 
ATOM     10  C   UNL     1      -4.648  11.751  17.493  0.00  0.00    +0.000 C 
ATOM     11  C   UNL     1      -6.119  11.425  17.811  0.00  0.00    +0.000 C 
ATOM     12  N   UNL     1      -6.705  12.200  18.923  0.00  0.00    +0.000 NA
ATOM     13  C   UNL     1      -6.963  13.588  18.545  0.00  0.00    +0.000 C 
ATOM     14  C   UNL     1      -5.822  12.098  20.100  0.00  0.00    +0.000 C 
ATOM     15  C   UNL     1      -4.342  12.455  19.846  0.00  0.00    +0.000 C 
ENDBRANCH   3   7
BRANCH   1  19
ATOM     16  C   UNL     1       2.808   6.852  18.889  0.00  0.00    +0.000 A 
ATOM     17  C   UNL     1       2.203   7.166  20.101  0.00  0.00    +0.000 A 
ATOM     18  C   UNL     1       1.415   8.318  20.232  0.00  0.00    +0.000 A 
ATOM     19  C   UNL     1       1.227   9.198  19.157  0.00  0.00    +0.000 A 
ATOM     20  C   UNL     1       1.844   8.866  17.943  0.00  0.00    +0.000 A 
ATOM     21  C   UNL     1       2.633   7.713  17.807  0.00  0.00    +0.000 A 
BRANCH  16  23
ATOM     22  C   UNL     1       2.918   4.530  18.470  0.00  0.00    +0.000 C 
ATOM     23  O   UNL     1       3.576   5.722  18.887  0.00  0.00    +0.000 OA
ENDBRANCH  16  23
ENDBRANCH   1  19
TORSDOF 3
ENDMDL
MODEL 6
REMARK VINA RESULT:      -6.5      4.477     10.066
REMARK  Name = 
REMARK  5 active torsions:
REMARK  status: ('A' for Active; 'I' for Inactive)
REMARK    1  A    between atoms: C_1  and  O_2
REMARK    2  A    between atoms: O_2  and  C_3
REMARK    3  A    between atoms: C_6  and  N_7
REMARK    4  A    between atoms: C_9  and  C_10
REMARK    5  A    between atoms: N_15  and  C_16
REMARK                            x       y       z     vdW  Elec       q    Type
REMARK                         _______ _______ _______ _____ _____    ______ ____
ROOT
ATOM      1  N   UNL     1       0.181  10.482  19.542  0.00  0.00    +0.000 N 
ATOM      2  C   UNL     1       0.523  11.569  20.432  0.00  0.00    +0.000 C 
ATOM      3  C   UNL     1      -0.771  12.327  20.681  0.00  0.00    +0.000 C 
ATOM      4  C   UNL     1      -1.604  12.022  19.438  0.00  0.00    +0.000 C 
ATOM      5  C   UNL     1      -1.060  10.707  18.931  0.00  0.00    +0.000 C 
ATOM      6  O   UNL     1      -1.627  10.056  18.069  0.00  0.00    +0.000 OA
ENDROOT
BRANCH   3   7
ATOM      7  C   UNL     1      -1.480  11.892  21.967  0.00  0.00    +0.000 C 
ATOM      8  O   UNL     1      -1.182  10.832  22.520  0.00  0.00    +0.000 OA
ATOM      9  N   UNL     1      -2.474  12.718  22.495  0.00  0.00    +0.000 N 
ATOM     10  C   UNL     1      -3.156  12.213  23.696  0.00  0.00    +0.000 C 
ATOM     11  C   UNL     1      -3.934  13.295  24.467  0.00  0.00    +0.000 C 
ATOM     12  N   UNL     1      -4.815  14.142  23.637  0.00  0.00    +0.000 NA
ATOM     13  C   UNL     1      -6.007  13.422  23.197  0.00  0.00    +0.000 C 
ATOM     14  C   UNL     1      -4.040  14.682  22.506  0.00  0.00    +0.000 C 
ATOM     15  C   UNL     1      -3.274  13.633  21.673  0.00  0.00    +0.000 C 
ENDBRANCH   3   7
BRANCH   1  19
ATOM     16  C   UNL     1       2.791   7.204  18.737  0.00  0.00    +0.000 A 
ATOM     17  C   UNL     1       2.546   8.166  17.764  0.00  0.00    +0.000 A 
ATOM     18  C   UNL     1       1.703   9.254  18.029  0.00  0.00    +0.000 A 
ATOM     19  C   UNL     1       1.066   9.398  19.269  0.00  0.00    +0.000 A 
ATOM     20  C   UNL     1       1.325   8.418  20.238  0.00  0.00    +0.000 A 
ATOM     21  C   UNL     1       2.170   7.327  19.978  0.00  0.00    +0.000 A 
BRANCH  16  23
ATOM     22  C   UNL     1       3.929   5.235  19.378  0.00  0.00    +0.000 C 
ATOM     23  O   UNL     1       3.605   6.173  18.358  0.00  0.00    +0.000 OA
ENDBRANCH  16  23
ENDBRANCH   1  19
TORSDOF 3
ENDMDL
MODEL 7
REMARK VINA RESULT:      -6.5      3.495      6.264
REMARK  Name = 
REMARK  5 active torsions:
REMARK  status: ('A' for Active; 'I' for Inactive)
REMARK    1  A    between atoms: C_1  and  O_2
REMARK    2  A    between atoms: O_2  and  C_3
REMARK    3  A    between atoms: C_6  and  N_7
REMARK    4  A    between atoms: C_9  and  C_10
REMARK    5  A    between atoms: N_15  and  C_16
REMARK                            x       y       z     vdW  Elec       q    Type
REMARK                         _______ _______ _______ _____ _____    ______ ____
ROOT
ATOM      1  N   UNL     1       6.111   5.978  16.770  0.00  0.00    +0.000 N 
ATOM      2  C   UNL     1       4.693   5.848  17.018  0.00  0.00    +0.000 C 
ATOM      3  C   UNL     1       4.273   4.541  16.364  0.00  0.00    +0.000 C 
ATOM      4  C   UNL     1       5.313   4.347  15.263  0.00  0.00    +0.000 C 
ATOM      5  C   UNL     1       6.521   5.117  15.743  0.00  0.00    +0.000 C 
ATOM      6  O   UNL     1       7.614   5.013  15.212  0.00  0.00    +0.000 OA
ENDROOT
BRANCH   3   7
ATOM      7  C   UNL     1       4.250   3.364  17.345  0.00  0.00    +0.000 C 
ATOM      8  O   UNL     1       4.706   2.267  17.020  0.00  0.00    +0.000 OA
ATOM      9  N   UNL     1       3.697   3.561  18.612  0.00  0.00    +0.000 N 
ATOM     10  C   UNL     1       3.651   2.376  19.482  0.00  0.00    +0.000 C 
ATOM     11  C   UNL     1       3.421   2.709  20.968  0.00  0.00    +0.000 C 
ATOM     12  N   UNL     1       2.308   3.643  21.235  0.00  0.00    +0.000 NA
ATOM     13  C   UNL     1       1.006   3.007  21.046  0.00  0.00    +0.000 C 
ATOM     14  C   UNL     1       2.471   4.841  20.392  0.00  0.00    +0.000 C 
ATOM     15  C   UNL     1       2.663   4.566  18.886  0.00  0.00    +0.000 C 
ENDBRANCH   3   7
BRANCH   1  19
ATOM     16  C   UNL     1       8.595   8.838  18.736  0.00  0.00    +0.000 A 
ATOM     17  C   UNL     1       7.748   9.229  17.705  0.00  0.00    +0.000 A 
ATOM     18  C   UNL     1       6.917   8.297  17.067  0.00  0.00    +0.000 A 
ATOM     19  C   UNL     1       6.927   6.943  17.431  0.00  0.00    +0.000 A 
ATOM     20  C   UNL     1       7.787   6.567  18.472  0.00  0.00    +0.000 A 
ATOM     21  C   UNL     1       8.620   7.497  19.114  0.00  0.00    +0.000 A 
BRANCH  16  23
ATOM     22  C   UNL     1       9.651  10.924  18.400  0.00  0.00    +0.000 C 
ATOM     23  O   UNL     1       9.379   9.825  19.263  0.00  0.00    +0.000 OA
ENDBRANCH  16  23
ENDBRANCH   1  19
TORSDOF 3
ENDMDL
MODEL 8
REMARK VINA RESULT:      -6.4      4.460      9.988
REMARK  Name = 
REMARK  5 active torsions:
REMARK  status: ('A' for Active; 'I' for Inactive)
REMARK    1  A    between atoms: C_1  and  O_2
REMARK    2  A    between atoms: O_2  and  C_3
REMARK    3  A    between atoms: C_6  and  N_7
REMARK    4  A    between atoms: C_9  and  C_10
REMARK    5  A    between atoms: N_15  and  C_16
REMARK                            x       y       z     vdW  Elec       q    Type
REMARK                         _______ _______ _______ _____ _____    ______ ____
ROOT
ATOM      1  N   UNL     1       0.231  10.446  19.583  0.00  0.00    +0.000 N 
ATOM      2  C   UNL     1       0.592  11.502  20.500  0.00  0.00    +0.000 C 
ATOM      3  C   UNL     1      -0.680  12.298  20.742  0.00  0.00    +0.000 C 
ATOM      4  C   UNL     1      -1.499  12.047  19.479  0.00  0.00    +0.000 C 
ATOM      5  C   UNL     1      -0.991  10.725  18.955  0.00  0.00    +0.000 C 
ATOM      6  O   UNL     1      -1.564  10.110  18.071  0.00  0.00    +0.000 OA
ENDROOT
BRANCH   3   7
ATOM      7  C   UNL     1      -1.425  11.862  22.007  0.00  0.00    +0.000 C 
ATOM      8  O   UNL     1      -1.156  10.793  22.557  0.00  0.00    +0.000 OA
ATOM      9  N   UNL     1      -2.420  12.698  22.520  0.00  0.00    +0.000 N 
ATOM     10  C   UNL     1      -3.138  12.191  23.699  0.00  0.00    +0.000 C 
ATOM     11  C   UNL     1      -3.919  13.278  24.461  0.00  0.00    +0.000 C 
ATOM     12  N   UNL     1      -4.767  14.145  23.619  0.00  0.00    +0.000 NA
ATOM     13  C   UNL     1      -5.958  13.447  23.143  0.00  0.00    +0.000 C 
ATOM     14  C   UNL     1      -3.957  14.684  22.511  0.00  0.00    +0.000 C 
ATOM     15  C   UNL     1      -3.186  13.632  21.687  0.00  0.00    +0.000 C 
ENDBRANCH   3   7
BRANCH   1  19
ATOM     16  C   UNL     1       2.822   7.163  18.732  0.00  0.00    +0.000 A 
ATOM     17  C   UNL     1       2.203   7.271  19.973  0.00  0.00    +0.000 A 
ATOM     18  C   UNL     1       1.338   8.338  20.251  0.00  0.00    +0.000 A 
ATOM     19  C   UNL     1       1.084   9.337  19.303  0.00  0.00    +0.000 A 
ATOM     20  C   UNL     1       1.716   9.213  18.057  0.00  0.00    +0.000 A 
ATOM     21  C   UNL     1       2.582   8.145  17.773  0.00  0.00    +0.000 A 
BRANCH  16  23
ATOM     22  C   UNL     1       3.260   4.895  19.224  0.00  0.00    +0.000 C 
ATOM     23  O   UNL     1       3.666   6.099  18.583  0.00  0.00    +0.000 OA
ENDBRANCH  16  23
ENDBRANCH   1  19
TORSDOF 3
ENDMDL
MODEL 9
REMARK VINA RESULT:      -6.4      2.980      5.718
REMARK  Name = 
REMARK  5 active torsions:
REMARK  status: ('A' for Active; 'I' for Inactive)
REMARK    1  A    between atoms: C_1  and  O_2
REMARK    2  A    between atoms: O_2  and  C_3
REMARK    3  A    between atoms: C_6  and  N_7
REMARK    4  A    between atoms: C_9  and  C_10
REMARK    5  A    between atoms: N_15  and  C_16
REMARK                            x       y       z     vdW  Elec       q    Type
REMARK                         _______ _______ _______ _____ _____    ______ ____
ROOT
ATOM      1  N   UNL     1      -0.250  10.372  18.176  0.00  0.00    +0.000 N 
ATOM      2  C   UNL     1       0.409   9.310  17.451  0.00  0.00    +0.000 C 
ATOM      3  C   UNL     1       1.818   9.231  18.015  0.00  0.00    +0.000 C 
ATOM      4  C   UNL     1       2.064  10.640  18.548  0.00  0.00    +0.000 C 
ATOM      5  C   UNL     1       0.685  11.184  18.834  0.00  0.00    +0.000 C 
ATOM      6  O   UNL     1       0.506  12.211  19.466  0.00  0.00    +0.000 OA
ENDROOT
BRANCH   3   7
ATOM      7  C   UNL     1       1.964   8.170  19.111  0.00  0.00    +0.000 C 
ATOM      8  O   UNL     1       1.509   8.366  20.239  0.00  0.00    +0.000 OA
ATOM      9  N   UNL     1       2.628   6.980  18.805  0.00  0.00    +0.000 N 
ATOM     10  C   UNL     1       2.786   6.031  19.917  0.00  0.00    +0.000 C 
ATOM     11  C   UNL     1       3.145   4.603  19.465  0.00  0.00    +0.000 C 
ATOM     12  N   UNL     1       4.253   4.516  18.492  0.00  0.00    +0.000 NA
ATOM     13  C   UNL     1       5.548   4.779  19.115  0.00  0.00    +0.000 C 
ATOM     14  C   UNL     1       3.980   5.428  17.367  0.00  0.00    +0.000 C 
ATOM     15  C   UNL     1       3.656   6.884  17.762  0.00  0.00    +0.000 C 
ENDBRANCH   3   7
BRANCH   1  19
ATOM     16  C   UNL     1      -4.453  11.086  17.983  0.00  0.00    +0.000 A 
ATOM     17  C   UNL     1      -3.868  10.098  17.200  0.00  0.00    +0.000 A 
ATOM     18  C   UNL     1      -2.491   9.848  17.272  0.00  0.00    +0.000 A 
ATOM     19  C   UNL     1      -1.658  10.594  18.116  0.00  0.00    +0.000 A 
ATOM     20  C   UNL     1      -2.264  11.587  18.898  0.00  0.00    +0.000 A 
ATOM     21  C   UNL     1      -3.644  11.840  18.831  0.00  0.00    +0.000 A 
BRANCH  16  23
ATOM     22  C   UNL     1      -6.199  12.555  17.373  0.00  0.00    +0.000 C 
ATOM     23  O   UNL     1      -5.797  11.261  17.809  0.00  0.00    +0.000 OA
ENDBRANCH  16  23
ENDBRANCH   1  19
TORSDOF 3
ENDMDL
