MODEL 1
REMARK VINA RESULT:      -7.1      0.000      0.000
REMARK  Name = 
REMARK  9 active torsions:
REMARK  status: ('A' for Active; 'I' for Inactive)
REMARK    1  A    between atoms: C_1  and  C_2
REMARK    2  A    between atoms: C_2  and  C_3
REMARK    3  A    between atoms: C_2  and  N_4
REMARK    4  A    between atoms: C_9  and  N_10
REMARK    5  A    between atoms: N_10  and  C_11
REMARK    6  A    between atoms: C_11  and  C_12
REMARK    7  A    between atoms: C_17  and  N_18
REMARK    8  A    between atoms: N_18  and  C_19
REMARK    9  A    between atoms: N_18  and  C_20
REMARK                            x       y       z     vdW  Elec       q    Type
REMARK                         _______ _______ _______ _____ _____    ______ ____
ROOT
ATOM      1  N   UNL     1       2.033   5.298  19.782  0.00  0.00    +0.000 N 
ATOM      2  N   UNL     1       0.952   4.937  20.513  0.00  0.00    +0.000 NA
ATOM      3  C   UNL     1       0.869   3.615  20.339  0.00  0.00    +0.000 A 
ATOM      4  C   UNL     1       1.850   3.122  19.465  0.00  0.00    +0.000 A 
ATOM      5  C   UNL     1       2.593   4.231  19.135  0.00  0.00    +0.000 A 
ATOM      6  C   UNL     1       3.824   4.241  18.316  0.00  0.00    +0.000 C 
ATOM      7  C   UNL     1       3.875   2.963  17.441  0.00  0.00    +0.000 C 
ATOM      8  C   UNL     1       3.400   1.652  18.106  0.00  0.00    +0.000 C 
ATOM      9  C   UNL     1       2.132   1.748  18.980  0.00  0.00    +0.000 C 
ENDROOT
BRANCH   1  11
ATOM     10  C   UNL     1       2.505   7.208  18.306  0.00  0.00    +0.000 C 
ATOM     11  C   UNL     1       2.470   6.690  19.743  0.00  0.00    +0.000 C 
ATOM     12  C   UNL     1       1.641   7.602  20.647  0.00  0.00    +0.000 C 
ENDBRANCH   1  11
BRANCH   6  13
ATOM     13  N   UNL     1       4.979   4.493  19.175  0.00  0.00    +0.000 NA
ATOM     14  H   UNL     1       4.899   5.410  19.603  0.00  0.00    +0.000 HD
BRANCH  13  15
ATOM     15  C   UNL     1       6.293   4.353  18.543  0.00  0.00    +0.000 C 
BRANCH  15  16
ATOM     16  C   UNL     1       6.872   5.703  18.218  0.00  0.00    +0.000 A 
ATOM     17  C   UNL     1       7.798   6.238  19.141  0.00  0.00    +0.000 A 
ATOM     18  C   UNL     1       8.434   7.436  18.883  0.00  0.00    +0.000 A 
ATOM     19  C   UNL     1       8.095   8.088  17.716  0.00  0.00    +0.000 A 
ATOM     20  N   UNL     1       7.208   7.610  16.815  0.00  0.00    +0.000 NA
ATOM     21  C   UNL     1       6.605   6.413  17.033  0.00  0.00    +0.000 A 
BRANCH  21  22
ATOM     22  N   UNL     1       5.847   5.855  15.982  0.00  0.00    +0.000 N 
ATOM     23  C   UNL     1       6.669   5.097  15.034  0.00  0.00    +0.000 C 
ATOM     24  C   UNL     1       4.912   6.746  15.298  0.00  0.00    +0.000 C 
ENDBRANCH  21  22
ENDBRANCH  15  16
ENDBRANCH  13  15
ENDBRANCH   6  13
TORSDOF 5
ENDMDL
MODEL 2
REMARK VINA RESULT:      -7.0      1.926      5.684
REMARK  Name = 
REMARK  9 active torsions:
REMARK  status: ('A' for Active; 'I' for Inactive)
REMARK    1  A    between atoms: C_1  and  C_2
REMARK    2  A    between atoms: C_2  and  C_3
REMARK    3  A    between atoms: C_2  and  N_4
REMARK    4  A    between atoms: C_9  and  N_10
REMARK    5  A    between atoms: N_10  and  C_11
REMARK    6  A    between atoms: C_11  and  C_12
REMARK    7  A    between atoms: C_17  and  N_18
REMARK    8  A    between atoms: N_18  and  C_19
REMARK    9  A    between atoms: N_18  and  C_20
REMARK                            x       y       z     vdW  Elec       q    Type
REMARK                         _______ _______ _______ _____ _____    ______ ____
ROOT
ATOM      1  N   UNL     1       5.801   5.371  17.552  0.00  0.00    +0.000 N 
ATOM      2  N   UNL     1       5.854   5.264  16.204  0.00  0.00    +0.000 NA
ATOM      3  C   UNL     1       4.757   4.567  15.889  0.00  0.00    +0.000 A 
ATOM      4  C   UNL     1       4.021   4.179  17.020  0.00  0.00    +0.000 A 
ATOM      5  C   UNL     1       4.715   4.725  18.075  0.00  0.00    +0.000 A 
ATOM      6  C   UNL     1       4.300   4.700  19.494  0.00  0.00    +0.000 C 
ATOM      7  C   UNL     1       3.294   3.543  19.719  0.00  0.00    +0.000 C 
ATOM      8  C   UNL     1       2.250   3.309  18.606  0.00  0.00    +0.000 C 
ATOM      9  C   UNL     1       2.766   3.400  17.154  0.00  0.00    +0.000 C 
ENDROOT
BRANCH   1  11
ATOM     10  C   UNL     1       7.936   5.161  18.753  0.00  0.00    +0.000 C 
ATOM     11  C   UNL     1       6.833   6.104  18.278  0.00  0.00    +0.000 C 
ATOM     12  C   UNL     1       7.403   7.278  17.482  0.00  0.00    +0.000 C 
ENDBRANCH   1  11
BRANCH   6  13
ATOM     13  N   UNL     1       3.864   6.035  19.898  0.00  0.00    +0.000 NA
ATOM     14  H   UNL     1       4.288   6.284  20.787  0.00  0.00    +0.000 HD
BRANCH  13  15
ATOM     15  C   UNL     1       2.416   6.247  19.961  0.00  0.00    +0.000 C 
BRANCH  15  16
ATOM     16  C   UNL     1       2.058   7.612  19.437  0.00  0.00    +0.000 A 
ATOM     17  C   UNL     1       2.333   7.864  18.075  0.00  0.00    +0.000 A 
ATOM     18  C   UNL     1       1.967   9.061  17.494  0.00  0.00    +0.000 A 
ATOM     19  C   UNL     1       1.363   9.995  18.309  0.00  0.00    +0.000 A 
ATOM     20  N   UNL     1       1.092   9.791  19.618  0.00  0.00    +0.000 NA
ATOM     21  C   UNL     1       1.407   8.603  20.195  0.00  0.00    +0.000 A 
BRANCH  21  22
ATOM     22  N   UNL     1       0.928   8.353  21.498  0.00  0.00    +0.000 N 
ATOM     23  C   UNL     1      -0.536   8.301  21.560  0.00  0.00    +0.000 C 
ATOM     24  C   UNL     1       1.488   9.168  22.574  0.00  0.00    +0.000 C 
ENDBRANCH  21  22
ENDBRANCH  15  16
ENDBRANCH  13  15
ENDBRANCH   6  13
TORSDOF 5
ENDMDL
MODEL 3
REMARK VINA RESULT:      -6.9      2.711      6.056
REMARK  Name = 
REMARK  9 active torsions:
REMARK  status: ('A' for Active; 'I' for Inactive)
REMARK    1  A    between atoms: C_1  and  C_2
REMARK    2  A    between atoms: C_2  and  C_3
REMARK    3  A    between atoms: C_2  and  N_4
REMARK    4  A    between atoms: C_9  and  N_10
REMARK    5  A    between atoms: N_10  and  C_11
REMARK    6  A    between atoms: C_11  and  C_12
REMARK    7  A    between atoms: C_17  and  N_18
REMARK    8  A    between atoms: N_18  and  C_19
REMARK    9  A    between atoms: N_18  and  C_20
REMARK                            x       y       z     vdW  Elec       q    Type
REMARK                         _______ _______ _______ _____ _____    ______ ____
ROOT
ATOM      1  N   UNL     1       2.961   4.088  19.011  0.00  0.00    +0.000 N 
ATOM      2  N   UNL     1       3.733   3.078  19.474  0.00  0.00    +0.000 NA
ATOM      3  C   UNL     1       4.981   3.469  19.199  0.00  0.00    +0.000 A 
ATOM      4  C   UNL     1       5.024   4.696  18.519  0.00  0.00    +0.000 A 
ATOM      5  C   UNL     1       3.705   5.075  18.426  0.00  0.00    +0.000 A 
ATOM      6  C   UNL     1       3.204   6.357  17.886  0.00  0.00    +0.000 C 
ATOM      7  C   UNL     1       4.277   6.982  16.957  0.00  0.00    +0.000 C 
ATOM      8  C   UNL     1       5.745   6.859  17.418  0.00  0.00    +0.000 C 
ATOM      9  C   UNL     1       6.165   5.498  18.012  0.00  0.00    +0.000 C 
ENDROOT
BRANCH   1  11
ATOM     10  C   UNL     1       0.963   2.690  18.697  0.00  0.00    +0.000 C 
ATOM     11  C   UNL     1       1.509   4.039  19.158  0.00  0.00    +0.000 C 
ATOM     12  C   UNL     1       1.041   4.380  20.573  0.00  0.00    +0.000 C 
ENDBRANCH   1  11
BRANCH   6  13
ATOM     13  N   UNL     1       2.720   7.192  18.982  0.00  0.00    +0.000 NA
ATOM     14  H   UNL     1       2.214   6.624  19.654  0.00  0.00    +0.000 HD
BRANCH  13  15
ATOM     15  C   UNL     1       1.909   8.350  18.598  0.00  0.00    +0.000 C 
BRANCH  15  16
ATOM     16  C   UNL     1       1.158   8.888  19.787  0.00  0.00    +0.000 A 
ATOM     17  C   UNL     1       1.514   8.371  21.052  0.00  0.00    +0.000 A 
ATOM     18  C   UNL     1       0.930   8.863  22.202  0.00  0.00    +0.000 A 
ATOM     19  C   UNL     1      -0.029   9.843  22.048  0.00  0.00    +0.000 A 
ATOM     20  N   UNL     1      -0.400  10.355  20.853  0.00  0.00    +0.000 NA
ATOM     21  C   UNL     1       0.195   9.911  19.716  0.00  0.00    +0.000 A 
BRANCH  21  22
ATOM     22  N   UNL     1      -0.069  10.607  18.518  0.00  0.00    +0.000 N 
ATOM     23  C   UNL     1       0.031  12.061  18.677  0.00  0.00    +0.000 C 
ATOM     24  C   UNL     1      -1.272  10.223  17.783  0.00  0.00    +0.000 C 
ENDBRANCH  21  22
ENDBRANCH  15  16
ENDBRANCH  13  15
ENDBRANCH   6  13
TORSDOF 5
ENDMDL
MODEL 4
REMARK VINA RESULT:      -6.8      2.046      5.468
REMARK  Name = 
REMARK  9 active torsions:
REMARK  status: ('A' for Active; 'I' for Inactive)
REMARK    1  A    between atoms: C_1  and  C_2
REMARK    2  A    between atoms: C_2  and  C_3
REMARK    3  A    between atoms: C_2  and  N_4
REMARK    4  A    between atoms: C_9  and  N_10
REMARK    5  A    between atoms: N_10  and  C_11
REMARK    6  A    between atoms: C_11  and  C_12
REMARK    7  A    between atoms: C_17  and  N_18
REMARK    8  A    between atoms: N_18  and  C_19
REMARK    9  A    between atoms: N_18  and  C_20
REMARK                            x       y       z     vdW  Elec       q    Type
REMARK                         _______ _______ _______ _____ _____    ______ ____
ROOT
ATOM      1  N   UNL     1       4.365   4.149  17.835  0.00  0.00    +0.000 N 
ATOM      2  N   UNL     1       3.979   3.740  16.604  0.00  0.00    +0.000 NA
ATOM      3  C   UNL     1       2.778   3.189  16.805  0.00  0.00    +0.000 A 
ATOM      4  C   UNL     1       2.404   3.190  18.158  0.00  0.00    +0.000 A 
ATOM      5  C   UNL     1       3.444   3.829  18.793  0.00  0.00    +0.000 A 
ATOM      6  C   UNL     1       3.498   4.189  20.226  0.00  0.00    +0.000 C 
ATOM      7  C   UNL     1       2.509   3.298  21.021  0.00  0.00    +0.000 C 
ATOM      8  C   UNL     1       1.150   3.006  20.350  0.00  0.00    +0.000 C 
ATOM      9  C   UNL     1       1.187   2.686  18.840  0.00  0.00    +0.000 C 
ENDROOT
BRANCH   1  11
ATOM     10  C   UNL     1       6.731   4.199  17.168  0.00  0.00    +0.000 C 
ATOM     11  C   UNL     1       5.639   4.838  18.022  0.00  0.00    +0.000 C 
ATOM     12  C   UNL     1       5.544   6.344  17.776  0.00  0.00    +0.000 C 
ENDBRANCH   1  11
BRANCH   6  13
ATOM     13  N   UNL     1       3.341   5.634  20.373  0.00  0.00    +0.000 NA
ATOM     14  H   UNL     1       3.875   5.962  21.171  0.00  0.00    +0.000 HD
BRANCH  13  15
ATOM     15  C   UNL     1       1.964   6.125  20.461  0.00  0.00    +0.000 C 
BRANCH  15  16
ATOM     16  C   UNL     1       1.831   7.456  19.769  0.00  0.00    +0.000 A 
ATOM     17  C   UNL     1       2.186   7.502  18.403  0.00  0.00    +0.000 A 
ATOM     18  C   UNL     1       2.022   8.662  17.674  0.00  0.00    +0.000 A 
ATOM     19  C   UNL     1       1.538   9.764  18.347  0.00  0.00    +0.000 A 
ATOM     20  N   UNL     1       1.196   9.758  19.656  0.00  0.00    +0.000 NA
ATOM     21  C   UNL     1       1.311   8.614  20.377  0.00  0.00    +0.000 A 
BRANCH  21  22
ATOM     22  N   UNL     1       0.757   8.592  21.674  0.00  0.00    +0.000 N 
ATOM     23  C   UNL     1      -0.709   8.608  21.662  0.00  0.00    +0.000 C 
ATOM     24  C   UNL     1       1.302   9.544  22.640  0.00  0.00    +0.000 C 
ENDBRANCH  21  22
ENDBRANCH  15  16
ENDBRANCH  13  15
ENDBRANCH   6  13
TORSDOF 5
ENDMDL
MODEL 5
REMARK VINA RESULT:      -6.8      2.379      5.816
REMARK  Name = 
REMARK  9 active torsions:
REMARK  status: ('A' for Active; 'I' for Inactive)
REMARK    1  A    between atoms: C_1  and  C_2
REMARK    2  A    between atoms: C_2  and  C_3
REMARK    3  A    between atoms: C_2  and  N_4
REMARK    4  A    between atoms: C_9  and  N_10
REMARK    5  A    between atoms: N_10  and  C_11
REMARK    6  A    between atoms: C_11  and  C_12
REMARK    7  A    between atoms: C_17  and  N_18
REMARK    8  A    between atoms: N_18  and  C_19
REMARK    9  A    between atoms: N_18  and  C_20
REMARK                            x       y       z     vdW  Elec       q    Type
REMARK                         _______ _______ _______ _____ _____    ______ ____
ROOT
ATOM      1  N   UNL     1       4.219   4.297  18.125  0.00  0.00    +0.000 N 
ATOM      2  N   UNL     1       4.304   3.264  17.256  0.00  0.00    +0.000 NA
ATOM      3  C   UNL     1       3.399   2.387  17.703  0.00  0.00    +0.000 A 
ATOM      4  C   UNL     1       2.766   2.817  18.880  0.00  0.00    +0.000 A 
ATOM      5  C   UNL     1       3.308   4.059  19.117  0.00  0.00    +0.000 A 
ATOM      6  C   UNL     1       2.902   4.995  20.187  0.00  0.00    +0.000 C 
ATOM      7  C   UNL     1       2.188   4.211  21.318  0.00  0.00    +0.000 C 
ATOM      8  C   UNL     1       1.233   3.081  20.878  0.00  0.00    +0.000 C 
ATOM      9  C   UNL     1       1.723   2.182  19.722  0.00  0.00    +0.000 C 
ENDROOT
BRANCH   1  11
ATOM     10  C   UNL     1       6.508   5.181  18.285  0.00  0.00    +0.000 C 
ATOM     11  C   UNL     1       5.050   5.485  17.948  0.00  0.00    +0.000 C 
ATOM     12  C   UNL     1       4.913   6.107  16.559  0.00  0.00    +0.000 C 
ENDBRANCH   1  11
BRANCH   6  13
ATOM     13  N   UNL     1       2.168   6.115  19.602  0.00  0.00    +0.000 NA
ATOM     14  H   UNL     1       2.737   6.573  18.898  0.00  0.00    +0.000 HD
BRANCH  13  15
ATOM     15  C   UNL     1       1.651   7.108  20.547  0.00  0.00    +0.000 C 
BRANCH  15  16
ATOM     16  C   UNL     1       1.534   8.456  19.887  0.00  0.00    +0.000 A 
ATOM     17  C   UNL     1       2.015   8.561  18.563  0.00  0.00    +0.000 A 
ATOM     18  C   UNL     1       1.878   9.739  17.857  0.00  0.00    +0.000 A 
ATOM     19  C   UNL     1       1.290  10.800  18.514  0.00  0.00    +0.000 A 
ATOM     20  N   UNL     1       0.826  10.738  19.782  0.00  0.00    +0.000 NA
ATOM     21  C   UNL     1       0.916   9.574  20.476  0.00  0.00    +0.000 A 
BRANCH  21  22
ATOM     22  N   UNL     1       0.242   9.489  21.713  0.00  0.00    +0.000 N 
ATOM     23  C   UNL     1      -0.735  10.566  21.898  0.00  0.00    +0.000 C 
ATOM     24  C   UNL     1       1.069   9.297  22.902  0.00  0.00    +0.000 C 
ENDBRANCH  21  22
ENDBRANCH  15  16
ENDBRANCH  13  15
ENDBRANCH   6  13
TORSDOF 5
ENDMDL
MODEL 6
REMARK VINA RESULT:      -6.7      1.533      3.989
REMARK  Name = 
REMARK  9 active torsions:
REMARK  status: ('A' for Active; 'I' for Inactive)
REMARK    1  A    between atoms: C_1  and  C_2
REMARK    2  A    between atoms: C_2  and  C_3
REMARK    3  A    between atoms: C_2  and  N_4
REMARK    4  A    between atoms: C_9  and  N_10
REMARK    5  A    between atoms: N_10  and  C_11
REMARK    6  A    between atoms: C_11  and  C_12
REMARK    7  A    between atoms: C_17  and  N_18
REMARK    8  A    between atoms: N_18  and  C_19
REMARK    9  A    between atoms: N_18  and  C_20
REMARK                            x       y       z     vdW  Elec       q    Type
REMARK                         _______ _______ _______ _____ _____    ______ ____
ROOT
ATOM      1  N   UNL     1       2.939   3.204  19.941  0.00  0.00    +0.000 N 
ATOM      2  N   UNL     1       1.958   2.564  20.619  0.00  0.00    +0.000 NA
ATOM      3  C   UNL     1       1.128   3.542  20.992  0.00  0.00    +0.000 A 
ATOM      4  C   UNL     1       1.584   4.813  20.608  0.00  0.00    +0.000 A 
ATOM      5  C   UNL     1       2.748   4.558  19.920  0.00  0.00    +0.000 A 
ATOM      6  C   UNL     1       3.575   5.556  19.208  0.00  0.00    +0.000 C 
ATOM      7  C   UNL     1       3.279   6.969  19.772  0.00  0.00    +0.000 C 
ATOM      8  C   UNL     1       1.806   7.285  20.108  0.00  0.00    +0.000 C 
ATOM      9  C   UNL     1       1.008   6.165  20.809  0.00  0.00    +0.000 C 
ENDROOT
BRANCH   1  11
ATOM     10  C   UNL     1       4.806   1.673  20.407  0.00  0.00    +0.000 C 
ATOM     11  C   UNL     1       4.038   2.452  19.342  0.00  0.00    +0.000 C 
ATOM     12  C   UNL     1       3.586   1.544  18.199  0.00  0.00    +0.000 C 
ENDBRANCH   1  11
BRANCH   6  13
ATOM     13  N   UNL     1       3.417   5.380  17.767  0.00  0.00    +0.000 NA
ATOM     14  H   UNL     1       3.674   4.434  17.502  0.00  0.00    +0.000 HD
BRANCH  13  15
ATOM     15  C   UNL     1       4.127   6.342  16.920  0.00  0.00    +0.000 C 
BRANCH  15  16
ATOM     16  C   UNL     1       5.299   5.686  16.241  0.00  0.00    +0.000 A 
ATOM     17  C   UNL     1       5.051   5.073  14.993  0.00  0.00    +0.000 A 
ATOM     18  C   UNL     1       6.083   4.515  14.267  0.00  0.00    +0.000 A 
ATOM     19  C   UNL     1       7.341   4.555  14.831  0.00  0.00    +0.000 A 
ATOM     20  N   UNL     1       7.614   5.127  16.026  0.00  0.00    +0.000 NA
ATOM     21  C   UNL     1       6.617   5.717  16.734  0.00  0.00    +0.000 A 
BRANCH  21  22
ATOM     22  N   UNL     1       6.973   6.476  17.868  0.00  0.00    +0.000 N 
ATOM     23  C   UNL     1       7.653   7.727  17.520  0.00  0.00    +0.000 C 
ATOM     24  C   UNL     1       7.660   5.766  18.946  0.00  0.00    +0.000 C 
ENDBRANCH  21  22
ENDBRANCH  15  16
ENDBRANCH  13  15
ENDBRANCH   6  13
TORSDOF 5
ENDMDL
MODEL 7
REMARK VINA RESULT:      -6.6      2.612      5.942
REMARK  Name = 
REMARK  9 active torsions:
REMARK  status: ('A' for Active; 'I' for Inactive)
REMARK    1  A    between atoms: C_1  and  C_2
REMARK    2  A    between atoms: C_2  and  C_3
REMARK    3  A    between atoms: C_2  and  N_4
REMARK    4  A    between atoms: C_9  and  N_10
REMARK    5  A    between atoms: N_10  and  C_11
REMARK    6  A    between atoms: C_11  and  C_12
REMARK    7  A    between atoms: C_17  and  N_18
REMARK    8  A    between atoms: N_18  and  C_19
REMARK    9  A    between atoms: N_18  and  C_20
REMARK                            x       y       z     vdW  Elec       q    Type
REMARK                         _______ _______ _______ _____ _____    ______ ____
ROOT
ATOM      1  N   UNL     1       4.106   4.972  17.840  0.00  0.00    +0.000 N 
ATOM      2  N   UNL     1       4.295   3.880  17.064  0.00  0.00    +0.000 NA
ATOM      3  C   UNL     1       3.379   3.009  17.499  0.00  0.00    +0.000 A 
ATOM      4  C   UNL     1       2.633   3.505  18.581  0.00  0.00    +0.000 A 
ATOM      5  C   UNL     1       3.119   4.779  18.766  0.00  0.00    +0.000 A 
ATOM      6  C   UNL     1       2.595   5.778  19.722  0.00  0.00    +0.000 C 
ATOM      7  C   UNL     1       1.807   5.057  20.845  0.00  0.00    +0.000 C 
ATOM      8  C   UNL     1       0.925   3.865  20.414  0.00  0.00    +0.000 C 
ATOM      9  C   UNL     1       1.538   2.900  19.378  0.00  0.00    +0.000 C 
ENDROOT
BRANCH   1  11
ATOM     10  C   UNL     1       6.325   5.970  18.199  0.00  0.00    +0.000 C 
ATOM     11  C   UNL     1       4.917   6.170  17.643  0.00  0.00    +0.000 C 
ATOM     12  C   UNL     1       4.950   6.635  16.187  0.00  0.00    +0.000 C 
ENDBRANCH   1  11
BRANCH   6  13
ATOM     13  N   UNL     1       1.885   6.825  18.991  0.00  0.00    +0.000 NA
ATOM     14  H   UNL     1       1.964   6.666  17.992  0.00  0.00    +0.000 HD
BRANCH  13  15
ATOM     15  C   UNL     1       2.270   8.203  19.307  0.00  0.00    +0.000 C 
BRANCH  15  16
ATOM     16  C   UNL     1       1.272   8.830  20.244  0.00  0.00    +0.000 A 
ATOM     17  C   UNL     1       1.371   8.478  21.608  0.00  0.00    +0.000 A 
ATOM     18  C   UNL     1       0.545   9.064  22.546  0.00  0.00    +0.000 A 
ATOM     19  C   UNL     1      -0.387   9.968  22.084  0.00  0.00    +0.000 A 
ATOM     20  N   UNL     1      -0.515  10.323  20.785  0.00  0.00    +0.000 NA
ATOM     21  C   UNL     1       0.316   9.787  19.855  0.00  0.00    +0.000 A 
BRANCH  21  22
ATOM     22  N   UNL     1       0.289  10.330  18.553  0.00  0.00    +0.000 N 
ATOM     23  C   UNL     1       0.658  11.748  18.525  0.00  0.00    +0.000 C 
ATOM     24  C   UNL     1      -0.905  10.064  17.753  0.00  0.00    +0.000 C 
ENDBRANCH  21  22
ENDBRANCH  15  16
ENDBRANCH  13  15
ENDBRANCH   6  13
TORSDOF 5
ENDMDL
MODEL 8
REMARK VINA RESULT:      -6.6      1.311      2.716
REMARK  Name = 
REMARK  9 active torsions:
REMARK  status: ('A' for Active; 'I' for Inactive)
REMARK    1  A    between atoms: C_1  and  C_2
REMARK    2  A    between atoms: C_2  and  C_3
REMARK    3  A    between atoms: C_2  and  N_4
REMARK    4  A    between atoms: C_9  and  N_10
REMARK    5  A    between atoms: N_10  and  C_11
REMARK    6  A    between atoms: C_11  and  C_12
REMARK    7  A    between atoms: C_17  and  N_18
REMARK    8  A    between atoms: N_18  and  C_19
REMARK    9  A    between atoms: N_18  and  C_20
REMARK                            x       y       z     vdW  Elec       q    Type
REMARK                         _______ _______ _______ _____ _____    ______ ____
ROOT
ATOM      1  N   UNL     1       1.927   5.254  20.271  0.00  0.00    +0.000 N 
ATOM      2  N   UNL     1       2.049   4.792  21.537  0.00  0.00    +0.000 NA
ATOM      3  C   UNL     1       2.403   3.512  21.383  0.00  0.00    +0.000 A 
ATOM      4  C   UNL     1       2.463   3.127  20.034  0.00  0.00    +0.000 A 
ATOM      5  C   UNL     1       2.163   4.278  19.343  0.00  0.00    +0.000 A 
ATOM      6  C   UNL     1       2.194   4.443  17.874  0.00  0.00    +0.000 C 
ATOM      7  C   UNL     1       2.076   3.055  17.194  0.00  0.00    +0.000 C 
ATOM      8  C   UNL     1       2.847   1.893  17.857  0.00  0.00    +0.000 C 
ATOM      9  C   UNL     1       2.796   1.828  19.398  0.00  0.00    +0.000 C 
ENDROOT
BRANCH   1  11
ATOM     10  C   UNL     1       1.032   7.305  21.291  0.00  0.00    +0.000 C 
ATOM     11  C   UNL     1       1.573   6.649  20.022  0.00  0.00    +0.000 C 
ATOM     12  C   UNL     1       2.721   7.457  19.418  0.00  0.00    +0.000 C 
ENDBRANCH   1  11
BRANCH   6  13
ATOM     13  N   UNL     1       3.347   5.259  17.500  0.00  0.00    +0.000 NA
ATOM     14  H   UNL     1       3.331   5.444  16.502  0.00  0.00    +0.000 HD
BRANCH  13  15
ATOM     15  C   UNL     1       4.659   4.736  17.888  0.00  0.00    +0.000 C 
BRANCH  15  16
ATOM     16  C   UNL     1       5.626   4.826  16.738  0.00  0.00    +0.000 A 
ATOM     17  C   UNL     1       5.289   4.118  15.564  0.00  0.00    +0.000 A 
ATOM     18  C   UNL     1       6.081   4.208  14.438  0.00  0.00    +0.000 A 
ATOM     19  C   UNL     1       7.218   4.982  14.530  0.00  0.00    +0.000 A 
ATOM     20  N   UNL     1       7.576   5.667  15.640  0.00  0.00    +0.000 NA
ATOM     21  C   UNL     1       6.786   5.623  16.743  0.00  0.00    +0.000 A 
BRANCH  21  22
ATOM     22  N   UNL     1       7.082   6.506  17.803  0.00  0.00    +0.000 N 
ATOM     23  C   UNL     1       7.611   7.791  17.336  0.00  0.00    +0.000 C 
ATOM     24  C   UNL     1       7.868   5.966  18.910  0.00  0.00    +0.000 C 
ENDBRANCH  21  22
ENDBRANCH  15  16
ENDBRANCH  13  15
ENDBRANCH   6  13
TORSDOF 5
ENDMDL
MODEL 9
REMARK VINA RESULT:      -6.5      1.632      4.066
REMARK  Name = 
REMARK  9 active torsions:
REMARK  status: ('A' for Active; 'I' for Inactive)
REMARK    1  A    between atoms: C_1  and  C_2
REMARK    2  A    between atoms: C_2  and  C_3
REMARK    3  A    between atoms: C_2  and  N_4
REMARK    4  A    between atoms: C_9  and  N_10
REMARK    5  A    between atoms: N_10  and  C_11
REMARK    6  A    between atoms: C_11  and  C_12
REMARK    7  A    between atoms: C_17  and  N_18
REMARK    8  A    between atoms: N_18  and  C_19
REMARK    9  A    between atoms: N_18  and  C_20
REMARK                            x       y       z     vdW  Elec       q    Type
REMARK                         _______ _______ _______ _____ _____    ______ ____
ROOT
ATOM      1  N   UNL     1       3.095   3.678  19.699  0.00  0.00    +0.000 N 
ATOM      2  N   UNL     1       2.050   3.578  20.552  0.00  0.00    +0.000 NA
ATOM      3  C   UNL     1       1.460   4.775  20.486  0.00  0.00    +0.000 A 
ATOM      4  C   UNL     1       2.138   5.666  19.638  0.00  0.00    +0.000 A 
ATOM      5  C   UNL     1       3.180   4.921  19.136  0.00  0.00    +0.000 A 
ATOM      6  C   UNL     1       4.144   5.361  18.105  0.00  0.00    +0.000 C 
ATOM      7  C   UNL     1       4.177   6.910  18.053  0.00  0.00    +0.000 C 
ATOM      8  C   UNL     1       2.822   7.634  18.201  0.00  0.00    +0.000 C 
ATOM      9  C   UNL     1       1.861   7.076  19.272  0.00  0.00    +0.000 C 
ENDROOT
BRANCH   1  11
ATOM     10  C   UNL     1       4.532   2.011  20.795  0.00  0.00    +0.000 C 
ATOM     11  C   UNL     1       3.980   2.538  19.473  0.00  0.00    +0.000 C 
ATOM     12  C   UNL     1       3.323   1.426  18.656  0.00  0.00    +0.000 C 
ENDBRANCH   1  11
BRANCH   6  13
ATOM     13  N   UNL     1       3.864   4.670  16.849  0.00  0.00    +0.000 NA
ATOM     14  H   UNL     1       2.917   4.304  16.858  0.00  0.00    +0.000 HD
BRANCH  13  15
ATOM     15  C   UNL     1       4.803   3.609  16.475  0.00  0.00    +0.000 C 
BRANCH  15  16
ATOM     16  C   UNL     1       5.803   4.117  15.471  0.00  0.00    +0.000 A 
ATOM     17  C   UNL     1       5.559   3.806  14.116  0.00  0.00    +0.000 A 
ATOM     18  C   UNL     1       6.384   4.296  13.123  0.00  0.00    +0.000 A 
ATOM     19  C   UNL     1       7.460   5.061  13.522  0.00  0.00    +0.000 A 
ATOM     20  N   UNL     1       7.729   5.371  14.811  0.00  0.00    +0.000 NA
ATOM     21  C   UNL     1       6.904   4.932  15.795  0.00  0.00    +0.000 A 
BRANCH  21  22
ATOM     22  N   UNL     1       7.098   5.442  17.096  0.00  0.00    +0.000 N 
ATOM     23  C   UNL     1       7.536   6.841  17.094  0.00  0.00    +0.000 C 
ATOM     24  C   UNL     1       7.893   4.626  18.012  0.00  0.00    +0.000 C 
ENDBRANCH  21  22
ENDBRANCH  15  16
ENDBRANCH  13  15
ENDBRANCH   6  13
TORSDOF 5
ENDMDL
