MODEL 1
REMARK VINA RESULT:      -7.2      0.000      0.000
REMARK  Name = 
REMARK  5 active torsions:
REMARK  status: ('A' for Active; 'I' for Inactive)
REMARK    1  A    between atoms: C_2  and  O_3
REMARK    2  A    between atoms: C_2  and  C_4
REMARK    3  A    between atoms: N_6  and  C_7
REMARK    4  A    between atoms: C_20  and  N_21
REMARK    5  A    between atoms: C_29  and  N_30
REMARK                            x       y       z     vdW  Elec       q    Type
REMARK                         _______ _______ _______ _____ _____    ______ ____
ROOT
ATOM      1  C   UNL     1      -5.760  12.371  21.123  0.00  0.00    +0.000 A 
ATOM      2  C   UNL     1      -5.231  11.904  19.982  0.00  0.00    +0.000 A 
ATOM      3  N   UNL     1      -3.930  12.102  19.499  0.00  0.00    +0.000 N 
ATOM      4  C   UNL     1      -3.042  12.915  20.312  0.00  0.00    +0.000 A 
ATOM      5  N   UNL     1      -1.747  13.160  19.958  0.00  0.00    +0.000 NA
ATOM      6  C   UNL     1      -0.901  13.922  20.723  0.00  0.00    +0.000 A 
ATOM      7  N   UNL     1       0.415  13.967  20.293  0.00  0.00    +0.000 N 
ATOM      8  C   UNL     1       0.655  13.997  18.847  0.00  0.00    +0.000 C 
ATOM      9  C   UNL     1       1.917  13.216  18.505  0.00  0.00    +0.000 C 
ATOM     10  C   UNL     1       3.165  13.618  19.317  0.00  0.00    +0.000 C 
ATOM     11  C   UNL     1       2.810  13.670  20.807  0.00  0.00    +0.000 C 
ATOM     12  C   UNL     1       1.525  14.415  21.134  0.00  0.00    +0.000 C 
ATOM     13  C   UNL     1      -1.411  14.485  21.894  0.00  0.00    +0.000 A 
ATOM     14  C   UNL     1      -2.708  14.226  22.318  0.00  0.00    +0.000 A 
ATOM     15  C   UNL     1      -3.521  13.436  21.516  0.00  0.00    +0.000 A 
ATOM     16  C   UNL     1      -4.894  13.199  21.960  0.00  0.00    +0.000 A 
ATOM     17  O   UNL     1      -5.327  13.702  22.994  0.00  0.00    +0.000 OA
ENDROOT
BRANCH   3  18
ATOM     18  C   UNL     1      -3.549  11.498  18.244  0.00  0.00    +0.000 A 
ATOM     19  C   UNL     1      -4.315  11.664  17.076  0.00  0.00    +0.000 A 
ATOM     20  C   UNL     1      -3.934  11.087  15.857  0.00  0.00    +0.000 A 
ATOM     21  C   UNL     1      -2.791  10.305  15.794  0.00  0.00    +0.000 A 
ATOM     22  F   UNL     1      -2.427   9.749  14.632  0.00  0.00    +0.000 F 
ATOM     23  C   UNL     1      -2.023  10.090  16.927  0.00  0.00    +0.000 A 
ATOM     24  C   UNL     1      -2.394  10.690  18.137  0.00  0.00    +0.000 A 
ENDBRANCH   3  18
BRANCH  10  25
ATOM     25  N   UNL     1       3.969  14.775  18.844  0.00  0.00    +0.000 NA
ATOM     26  C   UNL     1       4.163  15.759  19.921  0.00  0.00    +0.000 C 
ATOM     27  C   UNL     1       4.914  17.008  19.468  0.00  0.00    +0.000 C 
ATOM     28  C   UNL     1       6.247  16.631  18.842  0.00  0.00    +0.000 C 
ATOM     29  C   UNL     1       5.994  15.694  17.675  0.00  0.00    +0.000 C 
ATOM     30  C   UNL     1       5.205  14.463  18.124  0.00  0.00    +0.000 C 
ENDBRANCH  10  25
BRANCH  13  31
ATOM     31  N   UNL     1      -0.694  15.443  22.690  0.00  0.00    +0.000 N 
ATOM     32  O   UNL     1      -0.663  16.612  22.286  0.00  0.00    +0.000 OA
ATOM     33  O   UNL     1      -0.216  15.039  23.757  0.00  0.00    +0.000 OA
ENDBRANCH  13  31
BRANCH   1  35
ATOM     34  O   UNL     1      -7.622  10.943  21.477  0.00  0.00    +0.000 OA
ATOM     35  C   UNL     1      -7.163  12.075  21.469  0.00  0.00    +0.000 C 
BRANCH  35  36
ATOM     36  O   UNL     1      -7.916  13.162  21.735  0.00  0.00    +0.000 OA
ATOM     37  H   UNL     1      -8.168  13.269  22.684  0.00  0.00    +0.000 HD
ENDBRANCH  35  36
ENDBRANCH   1  35
TORSDOF 5
ENDMDL
MODEL 2
REMARK VINA RESULT:      -7.0      3.553      5.637
REMARK  Name = 
REMARK  5 active torsions:
REMARK  status: ('A' for Active; 'I' for Inactive)
REMARK    1  A    between atoms: C_2  and  O_3
REMARK    2  A    between atoms: C_2  and  C_4
REMARK    3  A    between atoms: N_6  and  C_7
REMARK    4  A    between atoms: C_20  and  N_21
REMARK    5  A    between atoms: C_29  and  N_30
REMARK                            x       y       z     vdW  Elec       q    Type
REMARK                         _______ _______ _______ _____ _____    ______ ____
ROOT
ATOM      1  C   UNL     1      -5.766  13.212  23.203  0.00  0.00    +0.000 A 
ATOM      2  C   UNL     1      -4.999  14.103  23.848  0.00  0.00    +0.000 A 
ATOM      3  N   UNL     1      -3.713  14.536  23.498  0.00  0.00    +0.000 N 
ATOM      4  C   UNL     1      -3.123  13.952  22.305  0.00  0.00    +0.000 A 
ATOM      5  N   UNL     1      -1.887  14.310  21.851  0.00  0.00    +0.000 NA
ATOM      6  C   UNL     1      -1.326  13.768  20.723  0.00  0.00    +0.000 A 
ATOM      7  N   UNL     1      -0.125  14.331  20.325  0.00  0.00    +0.000 N 
ATOM      8  C   UNL     1       0.813  14.742  21.374  0.00  0.00    +0.000 C 
ATOM      9  C   UNL     1       1.559  16.000  20.952  0.00  0.00    +0.000 C 
ATOM     10  C   UNL     1       2.227  15.921  19.564  0.00  0.00    +0.000 C 
ATOM     11  C   UNL     1       1.219  15.384  18.543  0.00  0.00    +0.000 C 
ATOM     12  C   UNL     1       0.448  14.152  18.991  0.00  0.00    +0.000 C 
ATOM     13  C   UNL     1      -2.052  12.792  20.040  0.00  0.00    +0.000 A 
ATOM     14  C   UNL     1      -3.332  12.428  20.438  0.00  0.00    +0.000 A 
ATOM     15  C   UNL     1      -3.862  13.017  21.577  0.00  0.00    +0.000 A 
ATOM     16  C   UNL     1      -5.199  12.601  22.002  0.00  0.00    +0.000 A 
ATOM     17  O   UNL     1      -5.824  11.739  21.389  0.00  0.00    +0.000 OA
ENDROOT
BRANCH   3  18
ATOM     18  C   UNL     1      -3.055  15.521  24.324  0.00  0.00    +0.000 A 
ATOM     19  C   UNL     1      -2.183  15.155  25.365  0.00  0.00    +0.000 A 
ATOM     20  C   UNL     1      -1.536  16.115  26.156  0.00  0.00    +0.000 A 
ATOM     21  C   UNL     1      -1.779  17.462  25.938  0.00  0.00    +0.000 A 
ATOM     22  F   UNL     1      -1.166  18.380  26.695  0.00  0.00    +0.000 F 
ATOM     23  C   UNL     1      -2.655  17.867  24.944  0.00  0.00    +0.000 A 
ATOM     24  C   UNL     1      -3.278  16.905  24.139  0.00  0.00    +0.000 A 
ENDBRANCH   3  18
BRANCH  10  25
ATOM     25  N   UNL     1       3.576  15.307  19.467  0.00  0.00    +0.000 NA
ATOM     26  C   UNL     1       4.057  15.305  18.076  0.00  0.00    +0.000 C 
ATOM     27  C   UNL     1       5.406  14.610  17.905  0.00  0.00    +0.000 C 
ATOM     28  C   UNL     1       6.443  15.227  18.829  0.00  0.00    +0.000 C 
ATOM     29  C   UNL     1       5.952  15.119  20.261  0.00  0.00    +0.000 C 
ATOM     30  C   UNL     1       4.582  15.779  20.420  0.00  0.00    +0.000 C 
ENDBRANCH  10  25
BRANCH  13  31
ATOM     31  N   UNL     1      -1.513  12.017  18.956  0.00  0.00    +0.000 N 
ATOM     32  O   UNL     1      -0.672  11.154  19.233  0.00  0.00    +0.000 OA
ATOM     33  O   UNL     1      -1.981  12.228  17.830  0.00  0.00    +0.000 OA
ENDBRANCH  13  31
BRANCH   1  35
ATOM     34  O   UNL     1      -7.917  13.695  24.083  0.00  0.00    +0.000 OA
ATOM     35  C   UNL     1      -7.100  12.861  23.725  0.00  0.00    +0.000 C 
BRANCH  35  36
ATOM     36  O   UNL     1      -7.333  11.535  23.821  0.00  0.00    +0.000 OA
ATOM     37  H   UNL     1      -6.816  11.073  24.525  0.00  0.00    +0.000 HD
ENDBRANCH  35  36
ENDBRANCH   1  35
TORSDOF 5
ENDMDL
MODEL 3
REMARK VINA RESULT:      -6.8      3.246      3.834
REMARK  Name = 
REMARK  5 active torsions:
REMARK  status: ('A' for Active; 'I' for Inactive)
REMARK    1  A    between atoms: C_2  and  O_3
REMARK    2  A    between atoms: C_2  and  C_4
REMARK    3  A    between atoms: N_6  and  C_7
REMARK    4  A    between atoms: C_20  and  N_21
REMARK    5  A    between atoms: C_29  and  N_30
REMARK                            x       y       z     vdW  Elec       q    Type
REMARK                         _______ _______ _______ _____ _____    ______ ____
ROOT
ATOM      1  C   UNL     1      -3.734  13.233  23.666  0.00  0.00    +0.000 A 
ATOM      2  C   UNL     1      -2.915  12.288  23.181  0.00  0.00    +0.000 A 
ATOM      3  N   UNL     1      -1.595  12.447  22.738  0.00  0.00    +0.000 N 
ATOM      4  C   UNL     1      -1.038  13.788  22.793  0.00  0.00    +0.000 A 
ATOM      5  N   UNL     1       0.243  14.063  22.410  0.00  0.00    +0.000 NA
ATOM      6  C   UNL     1       0.778  15.326  22.464  0.00  0.00    +0.000 A 
ATOM      7  N   UNL     1       2.127  15.415  22.165  0.00  0.00    +0.000 N 
ATOM      8  C   UNL     1       2.646  14.542  21.108  0.00  0.00    +0.000 C 
ATOM      9  C   UNL     1       4.064  14.096  21.441  0.00  0.00    +0.000 C 
ATOM     10  C   UNL     1       5.037  15.240  21.790  0.00  0.00    +0.000 C 
ATOM     11  C   UNL     1       4.384  16.169  22.820  0.00  0.00    +0.000 C 
ATOM     12  C   UNL     1       2.953  16.574  22.500  0.00  0.00    +0.000 C 
ATOM     13  C   UNL     1      -0.045  16.363  22.905  0.00  0.00    +0.000 A 
ATOM     14  C   UNL     1      -1.340  16.124  23.348  0.00  0.00    +0.000 A 
ATOM     15  C   UNL     1      -1.830  14.826  23.288  0.00  0.00    +0.000 A 
ATOM     16  C   UNL     1      -3.206  14.595  23.728  0.00  0.00    +0.000 A 
ATOM     17  O   UNL     1      -3.917  15.520  24.113  0.00  0.00    +0.000 OA
ENDROOT
BRANCH   3  18
ATOM     18  C   UNL     1      -0.872  11.292  22.260  0.00  0.00    +0.000 A 
ATOM     19  C   UNL     1      -0.506  11.149  20.910  0.00  0.00    +0.000 A 
ATOM     20  C   UNL     1       0.208  10.033  20.453  0.00  0.00    +0.000 A 
ATOM     21  C   UNL     1       0.539   9.020  21.340  0.00  0.00    +0.000 A 
ATOM     22  F   UNL     1       1.217   7.950  20.905  0.00  0.00    +0.000 F 
ATOM     23  C   UNL     1       0.172   9.104  22.673  0.00  0.00    +0.000 A 
ATOM     24  C   UNL     1      -0.518  10.234  23.130  0.00  0.00    +0.000 A 
ENDBRANCH   3  18
BRANCH  10  25
ATOM     25  N   UNL     1       5.716  15.951  20.676  0.00  0.00    +0.000 NA
ATOM     26  C   UNL     1       6.723  16.894  21.188  0.00  0.00    +0.000 C 
ATOM     27  C   UNL     1       7.396  17.713  20.089  0.00  0.00    +0.000 C 
ATOM     28  C   UNL     1       8.005  16.797  19.039  0.00  0.00    +0.000 C 
ATOM     29  C   UNL     1       6.913  15.910  18.468  0.00  0.00    +0.000 C 
ATOM     30  C   UNL     1       6.213  15.122  19.577  0.00  0.00    +0.000 C 
ENDBRANCH  10  25
BRANCH  13  31
ATOM     31  N   UNL     1       0.325  17.750  22.841  0.00  0.00    +0.000 N 
ATOM     32  O   UNL     1       0.693  18.292  23.891  0.00  0.00    +0.000 OA
ATOM     33  O   UNL     1       0.310  18.283  21.724  0.00  0.00    +0.000 OA
ENDBRANCH  13  31
BRANCH   1  35
ATOM     34  O   UNL     1      -5.375  11.913  24.759  0.00  0.00    +0.000 OA
ATOM     35  C   UNL     1      -5.108  12.889  24.076  0.00  0.00    +0.000 C 
BRANCH  35  36
ATOM     36  O   UNL     1      -6.061  13.716  23.595  0.00  0.00    +0.000 OA
ATOM     37  H   UNL     1      -6.577  13.355  22.834  0.00  0.00    +0.000 HD
ENDBRANCH  35  36
ENDBRANCH   1  35
TORSDOF 5
ENDMDL
MODEL 4
REMARK VINA RESULT:      -6.6      3.148      3.834
REMARK  Name = 
REMARK  5 active torsions:
REMARK  status: ('A' for Active; 'I' for Inactive)
REMARK    1  A    between atoms: C_2  and  O_3
REMARK    2  A    between atoms: C_2  and  C_4
REMARK    3  A    between atoms: N_6  and  C_7
REMARK    4  A    between atoms: C_20  and  N_21
REMARK    5  A    between atoms: C_29  and  N_30
REMARK                            x       y       z     vdW  Elec       q    Type
REMARK                         _______ _______ _______ _____ _____    ______ ____
ROOT
ATOM      1  C   UNL     1      -3.925  13.269  23.132  0.00  0.00    +0.000 A 
ATOM      2  C   UNL     1      -3.058  12.304  22.794  0.00  0.00    +0.000 A 
ATOM      3  N   UNL     1      -1.696  12.445  22.496  0.00  0.00    +0.000 N 
ATOM      4  C   UNL     1      -1.147  13.790  22.543  0.00  0.00    +0.000 A 
ATOM      5  N   UNL     1       0.169  14.051  22.295  0.00  0.00    +0.000 NA
ATOM      6  C   UNL     1       0.696  15.317  22.342  0.00  0.00    +0.000 A 
ATOM      7  N   UNL     1       2.070  15.397  22.194  0.00  0.00    +0.000 N 
ATOM      8  C   UNL     1       2.706  14.473  21.250  0.00  0.00    +0.000 C 
ATOM      9  C   UNL     1       4.076  14.052  21.766  0.00  0.00    +0.000 C 
ATOM     10  C   UNL     1       5.004  15.218  22.163  0.00  0.00    +0.000 C 
ATOM     11  C   UNL     1       4.239  16.196  23.060  0.00  0.00    +0.000 C 
ATOM     12  C   UNL     1       2.854  16.577  22.558  0.00  0.00    +0.000 C 
ATOM     13  C   UNL     1      -0.171  16.372  22.631  0.00  0.00    +0.000 A 
ATOM     14  C   UNL     1      -1.508  16.150  22.935  0.00  0.00    +0.000 A 
ATOM     15  C   UNL     1      -1.990  14.849  22.889  0.00  0.00    +0.000 A 
ATOM     16  C   UNL     1      -3.407  14.634  23.181  0.00  0.00    +0.000 A 
ATOM     17  O   UNL     1      -4.156  15.575  23.433  0.00  0.00    +0.000 OA
ENDROOT
BRANCH   3  18
ATOM     18  C   UNL     1      -0.924  11.270  22.166  0.00  0.00    +0.000 A 
ATOM     19  C   UNL     1      -0.563  10.320  23.139  0.00  0.00    +0.000 A 
ATOM     20  C   UNL     1       0.174   9.174  22.811  0.00  0.00    +0.000 A 
ATOM     21  C   UNL     1       0.592   8.976  21.504  0.00  0.00    +0.000 A 
ATOM     22  F   UNL     1       1.300   7.884  21.189  0.00  0.00    +0.000 F 
ATOM     23  C   UNL     1       0.284   9.900  20.519  0.00  0.00    +0.000 A 
ATOM     24  C   UNL     1      -0.475  11.031  20.846  0.00  0.00    +0.000 A 
ENDBRANCH   3  18
BRANCH  10  25
ATOM     25  N   UNL     1       5.806  15.872  21.097  0.00  0.00    +0.000 NA
ATOM     26  C   UNL     1       7.071  16.397  21.636  0.00  0.00    +0.000 C 
ATOM     27  C   UNL     1       7.900  17.154  20.600  0.00  0.00    +0.000 C 
ATOM     28  C   UNL     1       8.158  16.279  19.384  0.00  0.00    +0.000 C 
ATOM     29  C   UNL     1       6.827  15.840  18.802  0.00  0.00    +0.000 C 
ATOM     30  C   UNL     1       5.982  15.120  19.853  0.00  0.00    +0.000 C 
ENDBRANCH  10  25
BRANCH  13  31
ATOM     31  N   UNL     1       0.206  17.756  22.536  0.00  0.00    +0.000 N 
ATOM     32  O   UNL     1       0.279  18.252  21.406  0.00  0.00    +0.000 OA
ATOM     33  O   UNL     1       0.366  18.366  23.601  0.00  0.00    +0.000 OA
ENDBRANCH  13  31
BRANCH   1  35
ATOM     34  O   UNL     1      -6.024  12.277  22.637  0.00  0.00    +0.000 OA
ATOM     35  C   UNL     1      -5.338  12.940  23.400  0.00  0.00    +0.000 C 
BRANCH  35  36
ATOM     36  O   UNL     1      -5.831  13.469  24.540  0.00  0.00    +0.000 OA
ATOM     37  H   UNL     1      -6.805  13.354  24.662  0.00  0.00    +0.000 HD
ENDBRANCH  35  36
ENDBRANCH   1  35
TORSDOF 5
ENDMDL
MODEL 5
REMARK VINA RESULT:      -6.6      3.750      5.067
REMARK  Name = 
REMARK  5 active torsions:
REMARK  status: ('A' for Active; 'I' for Inactive)
REMARK    1  A    between atoms: C_2  and  O_3
REMARK    2  A    between atoms: C_2  and  C_4
REMARK    3  A    between atoms: N_6  and  C_7
REMARK    4  A    between atoms: C_20  and  N_21
REMARK    5  A    between atoms: C_29  and  N_30
REMARK                            x       y       z     vdW  Elec       q    Type
REMARK                         _______ _______ _______ _____ _____    ______ ____
ROOT
ATOM      1  C   UNL     1      -5.036  16.247  21.003  0.00  0.00    +0.000 A 
ATOM      2  C   UNL     1      -5.492  15.047  20.619  0.00  0.00    +0.000 A 
ATOM      3  N   UNL     1      -4.755  13.868  20.444  0.00  0.00    +0.000 N 
ATOM      4  C   UNL     1      -3.325  13.942  20.692  0.00  0.00    +0.000 A 
ATOM      5  N   UNL     1      -2.506  12.856  20.576  0.00  0.00    +0.000 NA
ATOM      6  C   UNL     1      -1.156  12.917  20.814  0.00  0.00    +0.000 A 
ATOM      7  N   UNL     1      -0.490  11.703  20.781  0.00  0.00    +0.000 N 
ATOM      8  C   UNL     1      -0.922  10.719  19.784  0.00  0.00    +0.000 C 
ATOM      9  C   UNL     1      -0.800   9.309  20.348  0.00  0.00    +0.000 C 
ATOM     10  C   UNL     1       0.578   8.970  20.950  0.00  0.00    +0.000 C 
ATOM     11  C   UNL     1       1.012  10.094  21.897  0.00  0.00    +0.000 C 
ATOM     12  C   UNL     1       0.846  11.500  21.341  0.00  0.00    +0.000 C 
ATOM     13  C   UNL     1      -0.612  14.154  21.160  0.00  0.00    +0.000 A 
ATOM     14  C   UNL     1      -1.411  15.276  21.334  0.00  0.00    +0.000 A 
ATOM     15  C   UNL     1      -2.774  15.160  21.097  0.00  0.00    +0.000 A 
ATOM     16  C   UNL     1      -3.600  16.358  21.253  0.00  0.00    +0.000 A 
ATOM     17  O   UNL     1      -3.103  17.439  21.559  0.00  0.00    +0.000 OA
ENDROOT
BRANCH   3  18
ATOM     18  C   UNL     1      -5.442  12.665  20.035  0.00  0.00    +0.000 A 
ATOM     19  C   UNL     1      -5.179  12.041  18.801  0.00  0.00    +0.000 A 
ATOM     20  C   UNL     1      -5.838  10.866  18.415  0.00  0.00    +0.000 A 
ATOM     21  C   UNL     1      -6.799  10.313  19.246  0.00  0.00    +0.000 A 
ATOM     22  F   UNL     1      -7.434   9.192  18.877  0.00  0.00    +0.000 F 
ATOM     23  C   UNL     1      -7.112  10.910  20.456  0.00  0.00    +0.000 A 
ATOM     24  C   UNL     1      -6.431  12.069  20.850  0.00  0.00    +0.000 A 
ENDBRANCH   3  18
BRANCH  10  25
ATOM     25  N   UNL     1       1.650   8.502  20.033  0.00  0.00    +0.000 NA
ATOM     26  C   UNL     1       1.884   7.058  20.190  0.00  0.00    +0.000 C 
ATOM     27  C   UNL     1       3.033   6.537  19.330  0.00  0.00    +0.000 C 
ATOM     28  C   UNL     1       2.806   6.887  17.868  0.00  0.00    +0.000 C 
ATOM     29  C   UNL     1       2.668   8.393  17.739  0.00  0.00    +0.000 C 
ATOM     30  C   UNL     1       1.543   8.917  18.634  0.00  0.00    +0.000 C 
ENDBRANCH  10  25
BRANCH  13  31
ATOM     31  N   UNL     1       0.801  14.398  21.260  0.00  0.00    +0.000 N 
ATOM     32  O   UNL     1       1.435  14.526  20.206  0.00  0.00    +0.000 OA
ATOM     33  O   UNL     1       1.268  14.526  22.399  0.00  0.00    +0.000 OA
ENDBRANCH  13  31
BRANCH   1  35
ATOM     34  O   UNL     1      -6.657  17.783  20.200  0.00  0.00    +0.000 OA
ATOM     35  C   UNL     1      -5.958  17.392  21.122  0.00  0.00    +0.000 C 
BRANCH  35  36
ATOM     36  O   UNL     1      -5.938  18.006  22.324  0.00  0.00    +0.000 OA
ATOM     37  H   UNL     1      -6.458  18.845  22.369  0.00  0.00    +0.000 HD
ENDBRANCH  35  36
ENDBRANCH   1  35
TORSDOF 5
ENDMDL
MODEL 6
REMARK VINA RESULT:      -6.6      4.683      5.622
REMARK  Name = 
REMARK  5 active torsions:
REMARK  status: ('A' for Active; 'I' for Inactive)
REMARK    1  A    between atoms: C_2  and  O_3
REMARK    2  A    between atoms: C_2  and  C_4
REMARK    3  A    between atoms: N_6  and  C_7
REMARK    4  A    between atoms: C_20  and  N_21
REMARK    5  A    between atoms: C_29  and  N_30
REMARK                            x       y       z     vdW  Elec       q    Type
REMARK                         _______ _______ _______ _____ _____    ______ ____
ROOT
ATOM      1  C   UNL     1      -3.673  12.840  20.871  0.00  0.00    +0.000 A 
ATOM      2  C   UNL     1      -3.595  12.366  19.619  0.00  0.00    +0.000 A 
ATOM      3  N   UNL     1      -2.657  11.460  19.105  0.00  0.00    +0.000 N 
ATOM      4  C   UNL     1      -1.637  10.976  20.021  0.00  0.00    +0.000 A 
ATOM      5  N   UNL     1      -0.684  10.076  19.643  0.00  0.00    +0.000 NA
ATOM      6  C   UNL     1       0.278   9.610  20.503  0.00  0.00    +0.000 A 
ATOM      7  N   UNL     1       1.088   8.604  20.004  0.00  0.00    +0.000 N 
ATOM      8  C   UNL     1       1.473   8.682  18.591  0.00  0.00    +0.000 C 
ATOM      9  C   UNL     1       1.556   7.285  17.990  0.00  0.00    +0.000 C 
ATOM     10  C   UNL     1       2.428   6.290  18.783  0.00  0.00    +0.000 C 
ATOM     11  C   UNL     1       2.041   6.343  20.265  0.00  0.00    +0.000 C 
ATOM     12  C   UNL     1       1.919   7.744  20.846  0.00  0.00    +0.000 C 
ATOM     13  C   UNL     1       0.284  10.111  21.806  0.00  0.00    +0.000 A 
ATOM     14  C   UNL     1      -0.692  10.994  22.248  0.00  0.00    +0.000 A 
ATOM     15  C   UNL     1      -1.654  11.424  21.344  0.00  0.00    +0.000 A 
ATOM     16  C   UNL     1      -2.658  12.379  21.815  0.00  0.00    +0.000 A 
ATOM     17  O   UNL     1      -2.637  12.809  22.965  0.00  0.00    +0.000 OA
ENDROOT
BRANCH   3  18
ATOM     18  C   UNL     1      -2.752  11.062  17.720  0.00  0.00    +0.000 A 
ATOM     19  C   UNL     1      -3.707  11.619  16.850  0.00  0.00    +0.000 A 
ATOM     20  C   UNL     1      -3.786  11.239  15.503  0.00  0.00    +0.000 A 
ATOM     21  C   UNL     1      -2.930  10.267  15.012  0.00  0.00    +0.000 A 
ATOM     22  F   UNL     1      -3.007   9.899  13.726  0.00  0.00    +0.000 F 
ATOM     23  C   UNL     1      -1.995   9.669  15.840  0.00  0.00    +0.000 A 
ATOM     24  C   UNL     1      -1.901  10.071  17.179  0.00  0.00    +0.000 A 
ENDBRANCH   3  18
BRANCH  10  25
ATOM     25  N   UNL     1       3.893   6.287  18.537  0.00  0.00    +0.000 NA
ATOM     26  C   UNL     1       4.557   5.230  19.317  0.00  0.00    +0.000 C 
ATOM     27  C   UNL     1       6.076   5.233  19.166  0.00  0.00    +0.000 C 
ATOM     28  C   UNL     1       6.465   5.142  17.699  0.00  0.00    +0.000 C 
ATOM     29  C   UNL     1       5.841   6.305  16.951  0.00  0.00    +0.000 C 
ATOM     30  C   UNL     1       4.323   6.324  17.139  0.00  0.00    +0.000 C 
ENDBRANCH  10  25
BRANCH  13  31
ATOM     31  N   UNL     1       1.335   9.850  22.751  0.00  0.00    +0.000 N 
ATOM     32  O   UNL     1       1.011   9.392  23.853  0.00  0.00    +0.000 OA
ATOM     33  O   UNL     1       2.495  10.043  22.366  0.00  0.00    +0.000 OA
ENDBRANCH  13  31
BRANCH   1  35
ATOM     34  O   UNL     1      -4.918  14.846  20.624  0.00  0.00    +0.000 OA
ATOM     35  C   UNL     1      -4.725  13.807  21.237  0.00  0.00    +0.000 C 
BRANCH  35  36
ATOM     36  O   UNL     1      -5.435  13.474  22.336  0.00  0.00    +0.000 OA
ATOM     37  H   UNL     1      -5.845  14.238  22.810  0.00  0.00    +0.000 HD
ENDBRANCH  35  36
ENDBRANCH   1  35
TORSDOF 5
ENDMDL
MODEL 7
REMARK VINA RESULT:      -6.5      4.642      5.601
REMARK  Name = 
REMARK  5 active torsions:
REMARK  status: ('A' for Active; 'I' for Inactive)
REMARK    1  A    between atoms: C_2  and  O_3
REMARK    2  A    between atoms: C_2  and  C_4
REMARK    3  A    between atoms: N_6  and  C_7
REMARK    4  A    between atoms: C_20  and  N_21
REMARK    5  A    between atoms: C_29  and  N_30
REMARK                            x       y       z     vdW  Elec       q    Type
REMARK                         _______ _______ _______ _____ _____    ______ ____
ROOT
ATOM      1  C   UNL     1      -3.802  12.779  20.779  0.00  0.00    +0.000 A 
ATOM      2  C   UNL     1      -3.693  12.306  19.529  0.00  0.00    +0.000 A 
ATOM      3  N   UNL     1      -2.733  11.413  19.034  0.00  0.00    +0.000 N 
ATOM      4  C   UNL     1      -1.724  10.945  19.969  0.00  0.00    +0.000 A 
ATOM      5  N   UNL     1      -0.751  10.058  19.611  0.00  0.00    +0.000 NA
ATOM      6  C   UNL     1       0.203   9.608  20.489  0.00  0.00    +0.000 A 
ATOM      7  N   UNL     1       1.036   8.614  20.006  0.00  0.00    +0.000 N 
ATOM      8  C   UNL     1       1.446   8.696  18.601  0.00  0.00    +0.000 C 
ATOM      9  C   UNL     1       1.561   7.300  18.002  0.00  0.00    +0.000 C 
ATOM     10  C   UNL     1       2.432   6.318  18.812  0.00  0.00    +0.000 C 
ATOM     11  C   UNL     1       2.018   6.367  20.287  0.00  0.00    +0.000 C 
ATOM     12  C   UNL     1       1.864   7.766  20.864  0.00  0.00    +0.000 C 
ATOM     13  C   UNL     1       0.177  10.110  21.790  0.00  0.00    +0.000 A 
ATOM     14  C   UNL     1      -0.821  10.979  22.214  0.00  0.00    +0.000 A 
ATOM     15  C   UNL     1      -1.772  11.394  21.291  0.00  0.00    +0.000 A 
ATOM     16  C   UNL     1      -2.798  12.334  21.743  0.00  0.00    +0.000 A 
ATOM     17  O   UNL     1      -2.805  12.766  22.893  0.00  0.00    +0.000 OA
ENDROOT
BRANCH   3  18
ATOM     18  C   UNL     1      -2.797  11.012  17.648  0.00  0.00    +0.000 A 
ATOM     19  C   UNL     1      -1.923  10.050  17.112  0.00  0.00    +0.000 A 
ATOM     20  C   UNL     1      -1.998   9.653  15.769  0.00  0.00    +0.000 A 
ATOM     21  C   UNL     1      -2.931  10.242  14.930  0.00  0.00    +0.000 A 
ATOM     22  F   UNL     1      -3.001   9.868  13.646  0.00  0.00    +0.000 F 
ATOM     23  C   UNL     1      -3.791  11.217  15.408  0.00  0.00    +0.000 A 
ATOM     24  C   UNL     1      -3.731  11.590  16.757  0.00  0.00    +0.000 A 
ENDBRANCH   3  18
BRANCH  10  25
ATOM     25  N   UNL     1       3.901   6.337  18.594  0.00  0.00    +0.000 NA
ATOM     26  C   UNL     1       4.545   5.180  19.237  0.00  0.00    +0.000 C 
ATOM     27  C   UNL     1       6.067   5.192  19.114  0.00  0.00    +0.000 C 
ATOM     28  C   UNL     1       6.483   5.293  17.656  0.00  0.00    +0.000 C 
ATOM     29  C   UNL     1       5.878   6.551  17.058  0.00  0.00    +0.000 C 
ATOM     30  C   UNL     1       4.357   6.555  17.220  0.00  0.00    +0.000 C 
ENDBRANCH  10  25
BRANCH  13  31
ATOM     31  N   UNL     1       1.214   9.865  22.755  0.00  0.00    +0.000 N 
ATOM     32  O   UNL     1       2.380  10.090  22.410  0.00  0.00    +0.000 OA
ATOM     33  O   UNL     1       0.854   9.506  23.884  0.00  0.00    +0.000 OA
ENDBRANCH  13  31
BRANCH   1  35
ATOM     34  O   UNL     1      -6.022  13.618  20.720  0.00  0.00    +0.000 OA
ATOM     35  C   UNL     1      -4.875  13.731  21.124  0.00  0.00    +0.000 C 
BRANCH  35  36
ATOM     36  O   UNL     1      -4.478  14.769  21.891  0.00  0.00    +0.000 OA
ATOM     37  H   UNL     1      -4.464  15.642  21.429  0.00  0.00    +0.000 HD
ENDBRANCH  35  36
ENDBRANCH   1  35
TORSDOF 5
ENDMDL
MODEL 8
REMARK VINA RESULT:      -6.4      4.870     10.700
REMARK  Name = 
REMARK  5 active torsions:
REMARK  status: ('A' for Active; 'I' for Inactive)
REMARK    1  A    between atoms: C_2  and  O_3
REMARK    2  A    between atoms: C_2  and  C_4
REMARK    3  A    between atoms: N_6  and  C_7
REMARK    4  A    between atoms: C_20  and  N_21
REMARK    5  A    between atoms: C_29  and  N_30
REMARK                            x       y       z     vdW  Elec       q    Type
REMARK                         _______ _______ _______ _____ _____    ______ ____
ROOT
ATOM      1  C   UNL     1       8.755  16.531  19.919  0.00  0.00    +0.000 A 
ATOM      2  C   UNL     1       8.468  15.573  20.813  0.00  0.00    +0.000 A 
ATOM      3  N   UNL     1       7.228  14.959  21.039  0.00  0.00    +0.000 N 
ATOM      4  C   UNL     1       6.111  15.412  20.227  0.00  0.00    +0.000 A 
ATOM      5  N   UNL     1       4.861  14.875  20.341  0.00  0.00    +0.000 NA
ATOM      6  C   UNL     1       3.802  15.293  19.575  0.00  0.00    +0.000 A 
ATOM      7  N   UNL     1       2.636  14.560  19.719  0.00  0.00    +0.000 N 
ATOM      8  C   UNL     1       2.304  14.072  21.060  0.00  0.00    +0.000 C 
ATOM      9  C   UNL     1       1.628  12.709  20.973  0.00  0.00    +0.000 C 
ATOM     10  C   UNL     1       0.427  12.643  20.008  0.00  0.00    +0.000 C 
ATOM     11  C   UNL     1       0.816  13.269  18.665  0.00  0.00    +0.000 C 
ATOM     12  C   UNL     1       1.529  14.609  18.764  0.00  0.00    +0.000 C 
ATOM     13  C   UNL     1       4.025  16.329  18.667  0.00  0.00    +0.000 A 
ATOM     14  C   UNL     1       5.289  16.875  18.484  0.00  0.00    +0.000 A 
ATOM     15  C   UNL     1       6.332  16.407  19.273  0.00  0.00    +0.000 A 
ATOM     16  C   UNL     1       7.651  17.013  19.092  0.00  0.00    +0.000 A 
ATOM     17  O   UNL     1       7.829  17.925  18.288  0.00  0.00    +0.000 OA
ENDROOT
BRANCH   3  18
ATOM     18  C   UNL     1       7.129  13.930  22.047  0.00  0.00    +0.000 A 
ATOM     19  C   UNL     1       6.210  14.015  23.109  0.00  0.00    +0.000 A 
ATOM     20  C   UNL     1       6.108  13.007  24.077  0.00  0.00    +0.000 A 
ATOM     21  C   UNL     1       6.950  11.908  24.016  0.00  0.00    +0.000 A 
ATOM     22  F   UNL     1       6.858  10.945  24.943  0.00  0.00    +0.000 F 
ATOM     23  C   UNL     1       7.891  11.797  23.005  0.00  0.00    +0.000 A 
ATOM     24  C   UNL     1       7.971  12.795  22.025  0.00  0.00    +0.000 A 
ENDBRANCH   3  18
BRANCH  10  25
ATOM     25  N   UNL     1      -0.904  13.069  20.513  0.00  0.00    +0.000 NA
ATOM     26  C   UNL     1      -1.985  12.335  19.836  0.00  0.00    +0.000 C 
ATOM     27  C   UNL     1      -3.380  12.792  20.257  0.00  0.00    +0.000 C 
ATOM     28  C   UNL     1      -3.536  12.703  21.767  0.00  0.00    +0.000 C 
ATOM     29  C   UNL     1      -2.463  13.553  22.423  0.00  0.00    +0.000 C 
ATOM     30  C   UNL     1      -1.069  13.120  21.966  0.00  0.00    +0.000 C 
ENDBRANCH  10  25
BRANCH  13  31
ATOM     31  N   UNL     1       2.974  16.982  17.936  0.00  0.00    +0.000 N 
ATOM     32  O   UNL     1       2.254  17.774  18.555  0.00  0.00    +0.000 OA
ATOM     33  O   UNL     1       2.909  16.750  16.722  0.00  0.00    +0.000 OA
ENDBRANCH  13  31
BRANCH   1  35
ATOM     34  O   UNL     1      11.112  16.374  19.696  0.00  0.00    +0.000 OA
ATOM     35  C   UNL     1      10.122  17.076  19.826  0.00  0.00    +0.000 C 
BRANCH  35  36
ATOM     36  O   UNL     1      10.199  18.419  19.941  0.00  0.00    +0.000 OA
ATOM     37  H   UNL     1       9.491  18.916  19.465  0.00  0.00    +0.000 HD
ENDBRANCH  35  36
ENDBRANCH   1  35
TORSDOF 5
ENDMDL
MODEL 9
REMARK VINA RESULT:      -6.4      2.797      3.614
REMARK  Name = 
REMARK  5 active torsions:
REMARK  status: ('A' for Active; 'I' for Inactive)
REMARK    1  A    between atoms: C_2  and  O_3
REMARK    2  A    between atoms: C_2  and  C_4
REMARK    3  A    between atoms: N_6  and  C_7
REMARK    4  A    between atoms: C_20  and  N_21
REMARK    5  A    between atoms: C_29  and  N_30
REMARK                            x       y       z     vdW  Elec       q    Type
REMARK                         _______ _______ _______ _____ _____    ______ ____
ROOT
ATOM      1  C   UNL     1      -4.270  13.282  21.192  0.00  0.00    +0.000 A 
ATOM      2  C   UNL     1      -3.316  12.349  21.326  0.00  0.00    +0.000 A 
ATOM      3  N   UNL     1      -1.932  12.515  21.178  0.00  0.00    +0.000 N 
ATOM      4  C   UNL     1      -1.462  13.845  20.827  0.00  0.00    +0.000 A 
ATOM      5  N   UNL     1      -0.137  14.134  20.676  0.00  0.00    +0.000 NA
ATOM      6  C   UNL     1       0.316  15.388  20.350  0.00  0.00    +0.000 A 
ATOM      7  N   UNL     1       1.691  15.548  20.364  0.00  0.00    +0.000 N 
ATOM      8  C   UNL     1       2.509  14.427  19.891  0.00  0.00    +0.000 C 
ATOM      9  C   UNL     1       3.800  14.340  20.694  0.00  0.00    +0.000 C 
ATOM     10  C   UNL     1       4.599  15.656  20.780  0.00  0.00    +0.000 C 
ATOM     11  C   UNL     1       3.658  16.800  21.175  0.00  0.00    +0.000 C 
ATOM     12  C   UNL     1       2.352  16.852  20.396  0.00  0.00    +0.000 C 
ATOM     13  C   UNL     1      -0.634  16.388  20.140  0.00  0.00    +0.000 A 
ATOM     14  C   UNL     1      -1.990  16.152  20.325  0.00  0.00    +0.000 A 
ATOM     15  C   UNL     1      -2.397  14.870  20.670  0.00  0.00    +0.000 A 
ATOM     16  C   UNL     1      -3.831  14.628  20.832  0.00  0.00    +0.000 A 
ATOM     17  O   UNL     1      -4.653  15.521  20.642  0.00  0.00    +0.000 OA
ENDROOT
BRANCH   3  18
ATOM     18  C   UNL     1      -1.064  11.379  21.379  0.00  0.00    +0.000 A 
ATOM     19  C   UNL     1      -0.798  10.864  22.660  0.00  0.00    +0.000 A 
ATOM     20  C   UNL     1       0.034   9.752  22.850  0.00  0.00    +0.000 A 
ATOM     21  C   UNL     1       0.643   9.156  21.757  0.00  0.00    +0.000 A 
ATOM     22  F   UNL     1       1.443   8.096  21.936  0.00  0.00    +0.000 F 
ATOM     23  C   UNL     1       0.434   9.648  20.479  0.00  0.00    +0.000 A 
ATOM     24  C   UNL     1      -0.420  10.743  20.292  0.00  0.00    +0.000 A 
ENDBRANCH   3  18
BRANCH  10  25
ATOM     25  N   UNL     1       5.526  15.990  19.668  0.00  0.00    +0.000 NA
ATOM     26  C   UNL     1       6.571  16.926  20.114  0.00  0.00    +0.000 C 
ATOM     27  C   UNL     1       7.504  17.368  18.989  0.00  0.00    +0.000 C 
ATOM     28  C   UNL     1       8.124  16.160  18.306  0.00  0.00    +0.000 C 
ATOM     29  C   UNL     1       7.014  15.271  17.775  0.00  0.00    +0.000 C 
ATOM     30  C   UNL     1       6.057  14.865  18.896  0.00  0.00    +0.000 C 
ENDBRANCH  10  25
BRANCH  13  31
ATOM     31  N   UNL     1      -0.313  17.690  19.621  0.00  0.00    +0.000 N 
ATOM     32  O   UNL     1      -0.114  17.787  18.405  0.00  0.00    +0.000 OA
ATOM     33  O   UNL     1      -0.324  18.631  20.425  0.00  0.00    +0.000 OA
ENDBRANCH  13  31
BRANCH   1  35
ATOM     34  O   UNL     1      -6.069  12.077  22.164  0.00  0.00    +0.000 OA
ATOM     35  C   UNL     1      -5.690  12.925  21.371  0.00  0.00    +0.000 C 
BRANCH  35  36
ATOM     36  O   UNL     1      -6.540  13.580  20.553  0.00  0.00    +0.000 OA
ATOM     37  H   UNL     1      -7.255  13.020  20.164  0.00  0.00    +0.000 HD
ENDBRANCH  35  36
ENDBRANCH   1  35
TORSDOF 5
ENDMDL
