MODEL 1
REMARK VINA RESULT:      -8.5      0.000      0.000
REMARK  Name = 
REMARK  7 active torsions:
REMARK  status: ('A' for Active; 'I' for Inactive)
REMARK    1  A    between atoms: C_1  and  C_2
REMARK    2  A    between atoms: C_4  and  C_5
REMARK    3  A    between atoms: C_7  and  N_8
REMARK    4  A    between atoms: N_16  and  C_17
REMARK    5  A    between atoms: C_17  and  C_18
REMARK    6  A    between atoms: N_20  and  C_21
REMARK    7  A    between atoms: C_21  and  C_22
REMARK                            x       y       z     vdW  Elec       q    Type
REMARK                         _______ _______ _______ _____ _____    ______ ____
ROOT
ATOM      1  N   UNL     1       4.434   4.936  18.156  0.00  0.00    +0.000 N 
ATOM      2  C   UNL     1       4.263   4.264  16.933  0.00  0.00    +0.000 A 
ATOM      3  O   UNL     1       3.267   3.599  16.643  0.00  0.00    +0.000 OA
ATOM      4  C   UNL     1       5.378   4.444  16.039  0.00  0.00    +0.000 A 
ATOM      5  S   UNL     1       5.425   3.799  14.472  0.00  0.00    +0.000 S 
ATOM      6  C   UNL     1       6.979   4.458  14.195  0.00  0.00    +0.000 A 
ATOM      7  C   UNL     1       7.432   5.184  15.278  0.00  0.00    +0.000 A 
ATOM      8  C   UNL     1       6.512   5.141  16.367  0.00  0.00    +0.000 A 
ATOM      9  N   UNL     1       6.670   5.645  17.656  0.00  0.00    +0.000 N 
ATOM     10  C   UNL     1       5.660   5.453  18.612  0.00  0.00    +0.000 A 
ATOM     11  O   UNL     1       5.872   5.705  19.803  0.00  0.00    +0.000 OA
ENDROOT
BRANCH   1  18
ATOM     12  C   UNL     1       1.036   7.231  20.943  0.00  0.00    +0.000 C 
ATOM     13  C   UNL     1       1.750   5.977  20.530  0.00  0.00    +0.000 A 
ATOM     14  C   UNL     1       1.473   4.754  21.158  0.00  0.00    +0.000 A 
ATOM     15  C   UNL     1       2.142   3.583  20.767  0.00  0.00    +0.000 A 
ATOM     16  C   UNL     1       1.907   2.282  21.473  0.00  0.00    +0.000 C 
ATOM     17  C   UNL     1       3.084   3.642  19.731  0.00  0.00    +0.000 A 
ATOM     18  C   UNL     1       3.383   4.866  19.125  0.00  0.00    +0.000 A 
ATOM     19  C   UNL     1       2.726   6.031  19.527  0.00  0.00    +0.000 A 
ENDBRANCH   1  18
BRANCH   9  20
ATOM     20  C   UNL     1       7.860   6.383  18.078  0.00  0.00    +0.000 C 
BRANCH  20  21
ATOM     21  C   UNL     1       7.922   7.897  17.899  0.00  0.00    +0.000 C 
ATOM     22  O   UNL     1       7.224   8.435  17.033  0.00  0.00    +0.000 OA
ATOM     23  N   UNL     1       8.776   8.644  18.679  0.00  0.00    +0.000 N 
ATOM     24  H   UNL     1       9.396   8.227  19.362  0.00  0.00    +0.000 HD
BRANCH  23  25
ATOM     25  C   UNL     1       8.852  10.059  18.415  0.00  0.00    +0.000 C 
BRANCH  25  26
ATOM     26  C   UNL     1       9.624  10.829  19.417  0.00  0.00    +0.000 A 
ATOM     27  C   UNL     1       9.259  11.294  20.663  0.00  0.00    +0.000 A 
ATOM     28  C   UNL     1      10.362  12.016  21.165  0.00  0.00    +0.000 A 
ATOM     29  C   UNL     1      11.327  11.964  20.187  0.00  0.00    +0.000 A 
ATOM     30  O   UNL     1      10.888  11.246  19.114  0.00  0.00    +0.000 OA
ENDBRANCH  25  26
ENDBRANCH  23  25
ENDBRANCH  20  21
ENDBRANCH   9  20
TORSDOF 5
ENDMDL
MODEL 2
REMARK VINA RESULT:      -8.2      0.266      1.629
REMARK  Name = 
REMARK  7 active torsions:
REMARK  status: ('A' for Active; 'I' for Inactive)
REMARK    1  A    between atoms: C_1  and  C_2
REMARK    2  A    between atoms: C_4  and  C_5
REMARK    3  A    between atoms: C_7  and  N_8
REMARK    4  A    between atoms: N_16  and  C_17
REMARK    5  A    between atoms: C_17  and  C_18
REMARK    6  A    between atoms: N_20  and  C_21
REMARK    7  A    between atoms: C_21  and  C_22
REMARK                            x       y       z     vdW  Elec       q    Type
REMARK                         _______ _______ _______ _____ _____    ______ ____
ROOT
ATOM      1  N   UNL     1       4.553   4.948  18.230  0.00  0.00    +0.000 N 
ATOM      2  C   UNL     1       4.334   4.260  17.024  0.00  0.00    +0.000 A 
ATOM      3  O   UNL     1       3.337   3.576  16.790  0.00  0.00    +0.000 OA
ATOM      4  C   UNL     1       5.401   4.448  16.075  0.00  0.00    +0.000 A 
ATOM      5  S   UNL     1       5.383   3.786  14.515  0.00  0.00    +0.000 S 
ATOM      6  C   UNL     1       6.911   4.467  14.155  0.00  0.00    +0.000 A 
ATOM      7  C   UNL     1       7.403   5.212  15.207  0.00  0.00    +0.000 A 
ATOM      8  C   UNL     1       6.538   5.166  16.340  0.00  0.00    +0.000 A 
ATOM      9  N   UNL     1       6.750   5.688  17.614  0.00  0.00    +0.000 N 
ATOM     10  C   UNL     1       5.791   5.491  18.620  0.00  0.00    +0.000 A 
ATOM     11  O   UNL     1       6.057   5.759  19.797  0.00  0.00    +0.000 OA
ENDROOT
BRANCH   1  18
ATOM     12  C   UNL     1       1.814   2.216  21.332  0.00  0.00    +0.000 C 
ATOM     13  C   UNL     1       2.171   3.548  20.738  0.00  0.00    +0.000 A 
ATOM     14  C   UNL     1       1.464   4.705  21.095  0.00  0.00    +0.000 A 
ATOM     15  C   UNL     1       1.802   5.949  20.539  0.00  0.00    +0.000 A 
ATOM     16  C   UNL     1       1.012   7.183  20.858  0.00  0.00    +0.000 C 
ATOM     17  C   UNL     1       2.865   6.030  19.630  0.00  0.00    +0.000 A 
ATOM     18  C   UNL     1       3.552   4.872  19.250  0.00  0.00    +0.000 A 
ATOM     19  C   UNL     1       3.203   3.635  19.794  0.00  0.00    +0.000 A 
ENDBRANCH   1  18
BRANCH   9  20
ATOM     20  C   UNL     1       7.947   6.450  17.970  0.00  0.00    +0.000 C 
BRANCH  20  21
ATOM     21  C   UNL     1       7.943   7.972  17.857  0.00  0.00    +0.000 C 
ATOM     22  O   UNL     1       7.242   8.515  16.998  0.00  0.00    +0.000 OA
ATOM     23  N   UNL     1       8.743   8.720  18.691  0.00  0.00    +0.000 N 
ATOM     24  H   UNL     1       9.366   8.302  19.371  0.00  0.00    +0.000 HD
BRANCH  23  25
ATOM     25  C   UNL     1       8.761  10.148  18.490  0.00  0.00    +0.000 C 
BRANCH  25  26
ATOM     26  C   UNL     1       9.816  10.861  19.245  0.00  0.00    +0.000 A 
ATOM     27  C   UNL     1       9.802  11.389  20.520  0.00  0.00    +0.000 A 
ATOM     28  C   UNL     1      11.055  12.009  20.715  0.00  0.00    +0.000 A 
ATOM     29  C   UNL     1      11.749  11.838  19.540  0.00  0.00    +0.000 A 
ATOM     30  O   UNL     1      11.005  11.143  18.636  0.00  0.00    +0.000 OA
ENDBRANCH  25  26
ENDBRANCH  23  25
ENDBRANCH  20  21
ENDBRANCH   9  20
TORSDOF 5
ENDMDL
MODEL 3
REMARK VINA RESULT:      -7.6      8.304     11.969
REMARK  Name = 
REMARK  7 active torsions:
REMARK  status: ('A' for Active; 'I' for Inactive)
REMARK    1  A    between atoms: C_1  and  C_2
REMARK    2  A    between atoms: C_4  and  C_5
REMARK    3  A    between atoms: C_7  and  N_8
REMARK    4  A    between atoms: N_16  and  C_17
REMARK    5  A    between atoms: C_17  and  C_18
REMARK    6  A    between atoms: N_20  and  C_21
REMARK    7  A    between atoms: C_21  and  C_22
REMARK                            x       y       z     vdW  Elec       q    Type
REMARK                         _______ _______ _______ _____ _____    ______ ____
ROOT
ATOM      1  N   UNL     1      -1.212  11.745  21.894  0.00  0.00    +0.000 N 
ATOM      2  C   UNL     1      -0.346  10.716  22.301  0.00  0.00    +0.000 A 
ATOM      3  O   UNL     1      -0.118  10.429  23.477  0.00  0.00    +0.000 OA
ATOM      4  C   UNL     1       0.247  10.016  21.190  0.00  0.00    +0.000 A 
ATOM      5  S   UNL     1       1.288   8.691  21.377  0.00  0.00    +0.000 S 
ATOM      6  C   UNL     1       1.474   8.537  19.683  0.00  0.00    +0.000 A 
ATOM      7  C   UNL     1       0.724   9.469  18.995  0.00  0.00    +0.000 A 
ATOM      8  C   UNL     1       0.040  10.355  19.878  0.00  0.00    +0.000 A 
ATOM      9  N   UNL     1      -0.709  11.486  19.562  0.00  0.00    +0.000 N 
ATOM     10  C   UNL     1      -1.265  12.267  20.588  0.00  0.00    +0.000 A 
ATOM     11  O   UNL     1      -1.747  13.377  20.336  0.00  0.00    +0.000 OA
ENDROOT
BRANCH   1  18
ATOM     12  C   UNL     1      -5.265  12.516  24.644  0.00  0.00    +0.000 C 
ATOM     13  C   UNL     1      -3.884  12.922  24.218  0.00  0.00    +0.000 A 
ATOM     14  C   UNL     1      -3.294  14.093  24.715  0.00  0.00    +0.000 A 
ATOM     15  C   UNL     1      -2.002  14.468  24.315  0.00  0.00    +0.000 A 
ATOM     16  C   UNL     1      -1.384  15.750  24.785  0.00  0.00    +0.000 C 
ATOM     17  C   UNL     1      -1.295  13.653  23.420  0.00  0.00    +0.000 A 
ATOM     18  C   UNL     1      -1.894  12.501  22.900  0.00  0.00    +0.000 A 
ATOM     19  C   UNL     1      -3.185  12.140  23.289  0.00  0.00    +0.000 A 
ENDBRANCH   1  18
BRANCH   9  20
ATOM     20  C   UNL     1      -0.955  11.915  18.186  0.00  0.00    +0.000 C 
BRANCH  20  21
ATOM     21  C   UNL     1      -2.237  11.492  17.473  0.00  0.00    +0.000 C 
ATOM     22  O   UNL     1      -2.178  10.661  16.561  0.00  0.00    +0.000 OA
ATOM     23  N   UNL     1      -3.438  12.062  17.832  0.00  0.00    +0.000 N 
ATOM     24  H   UNL     1      -3.511  12.781  18.540  0.00  0.00    +0.000 HD
BRANCH  23  25
ATOM     25  C   UNL     1      -4.605  11.685  17.074  0.00  0.00    +0.000 C 
BRANCH  25  26
ATOM     26  C   UNL     1      -5.848  12.384  17.474  0.00  0.00    +0.000 A 
ATOM     27  C   UNL     1      -6.737  12.115  18.493  0.00  0.00    +0.000 A 
ATOM     28  C   UNL     1      -7.777  13.063  18.385  0.00  0.00    +0.000 A 
ATOM     29  C   UNL     1      -7.468  13.841  17.294  0.00  0.00    +0.000 A 
ATOM     30  O   UNL     1      -6.296  13.436  16.728  0.00  0.00    +0.000 OA
ENDBRANCH  25  26
ENDBRANCH  23  25
ENDBRANCH  20  21
ENDBRANCH   9  20
TORSDOF 5
ENDMDL
MODEL 4
REMARK VINA RESULT:      -7.4      8.351     11.988
REMARK  Name = 
REMARK  7 active torsions:
REMARK  status: ('A' for Active; 'I' for Inactive)
REMARK    1  A    between atoms: C_1  and  C_2
REMARK    2  A    between atoms: C_4  and  C_5
REMARK    3  A    between atoms: C_7  and  N_8
REMARK    4  A    between atoms: N_16  and  C_17
REMARK    5  A    between atoms: C_17  and  C_18
REMARK    6  A    between atoms: N_20  and  C_21
REMARK    7  A    between atoms: C_21  and  C_22
REMARK                            x       y       z     vdW  Elec       q    Type
REMARK                         _______ _______ _______ _____ _____    ______ ____
ROOT
ATOM      1  N   UNL     1      -1.346  11.896  21.756  0.00  0.00    +0.000 N 
ATOM      2  C   UNL     1      -0.441  10.907  22.179  0.00  0.00    +0.000 A 
ATOM      3  O   UNL     1      -0.178  10.670  23.359  0.00  0.00    +0.000 OA
ATOM      4  C   UNL     1       0.146  10.184  21.081  0.00  0.00    +0.000 A 
ATOM      5  S   UNL     1       1.229   8.896  21.290  0.00  0.00    +0.000 S 
ATOM      6  C   UNL     1       1.382   8.686  19.599  0.00  0.00    +0.000 A 
ATOM      7  C   UNL     1       0.589   9.570  18.896  0.00  0.00    +0.000 A 
ATOM      8  C   UNL     1      -0.100  10.468  19.763  0.00  0.00    +0.000 A 
ATOM      9  N   UNL     1      -0.889  11.566  19.424  0.00  0.00    +0.000 N 
ATOM     10  C   UNL     1      -1.444  12.368  20.434  0.00  0.00    +0.000 A 
ATOM     11  O   UNL     1      -1.963  13.454  20.154  0.00  0.00    +0.000 OA
ENDROOT
BRANCH   1  18
ATOM     12  C   UNL     1      -1.318  15.624  25.025  0.00  0.00    +0.000 C 
ATOM     13  C   UNL     1      -2.013  14.457  24.387  0.00  0.00    +0.000 A 
ATOM     14  C   UNL     1      -3.281  14.050  24.826  0.00  0.00    +0.000 A 
ATOM     15  C   UNL     1      -3.929  12.959  24.225  0.00  0.00    +0.000 A 
ATOM     16  C   UNL     1      -5.254  12.470  24.728  0.00  0.00    +0.000 C 
ATOM     17  C   UNL     1      -3.303  12.283  23.169  0.00  0.00    +0.000 A 
ATOM     18  C   UNL     1      -2.026  12.669  22.750  0.00  0.00    +0.000 A 
ATOM     19  C   UNL     1      -1.379  13.745  23.360  0.00  0.00    +0.000 A 
ENDBRANCH   1  18
BRANCH   9  20
ATOM     20  C   UNL     1      -1.179  11.936  18.039  0.00  0.00    +0.000 C 
BRANCH  20  21
ATOM     21  C   UNL     1      -2.484  11.487  17.387  0.00  0.00    +0.000 C 
ATOM     22  O   UNL     1      -2.493  11.196  16.187  0.00  0.00    +0.000 OA
ATOM     23  N   UNL     1      -3.640  11.442  18.133  0.00  0.00    +0.000 N 
ATOM     24  H   UNL     1      -3.674  11.722  19.105  0.00  0.00    +0.000 HD
BRANCH  23  25
ATOM     25  C   UNL     1      -4.858  11.086  17.448  0.00  0.00    +0.000 C 
BRANCH  25  26
ATOM     26  C   UNL     1      -5.952  12.074  17.592  0.00  0.00    +0.000 A 
ATOM     27  C   UNL     1      -7.056  12.073  18.420  0.00  0.00    +0.000 A 
ATOM     28  C   UNL     1      -7.801  13.229  18.102  0.00  0.00    +0.000 A 
ATOM     29  C   UNL     1      -7.117  13.854  17.086  0.00  0.00    +0.000 A 
ATOM     30  O   UNL     1      -5.990  13.159  16.763  0.00  0.00    +0.000 OA
ENDBRANCH  25  26
ENDBRANCH  23  25
ENDBRANCH  20  21
ENDBRANCH   9  20
TORSDOF 5
ENDMDL
MODEL 5
REMARK VINA RESULT:      -7.3      2.500      4.083
REMARK  Name = 
REMARK  7 active torsions:
REMARK  status: ('A' for Active; 'I' for Inactive)
REMARK    1  A    between atoms: C_1  and  C_2
REMARK    2  A    between atoms: C_4  and  C_5
REMARK    3  A    between atoms: C_7  and  N_8
REMARK    4  A    between atoms: N_16  and  C_17
REMARK    5  A    between atoms: C_17  and  C_18
REMARK    6  A    between atoms: N_20  and  C_21
REMARK    7  A    between atoms: C_21  and  C_22
REMARK                            x       y       z     vdW  Elec       q    Type
REMARK                         _______ _______ _______ _____ _____    ______ ____
ROOT
ATOM      1  N   UNL     1       2.356   6.791  18.935  0.00  0.00    +0.000 N 
ATOM      2  C   UNL     1       2.067   5.524  19.471  0.00  0.00    +0.000 A 
ATOM      3  O   UNL     1       1.278   5.329  20.397  0.00  0.00    +0.000 OA
ATOM      4  C   UNL     1       2.788   4.464  18.814  0.00  0.00    +0.000 A 
ATOM      5  S   UNL     1       2.597   2.827  19.210  0.00  0.00    +0.000 S 
ATOM      6  C   UNL     1       3.744   2.358  18.030  0.00  0.00    +0.000 A 
ATOM      7  C   UNL     1       4.235   3.441  17.330  0.00  0.00    +0.000 A 
ATOM      8  C   UNL     1       3.705   4.671  17.816  0.00  0.00    +0.000 A 
ATOM      9  N   UNL     1       4.050   5.970  17.447  0.00  0.00    +0.000 N 
ATOM     10  C   UNL     1       3.446   7.064  18.087  0.00  0.00    +0.000 A 
ATOM     11  O   UNL     1       3.890   8.206  17.924  0.00  0.00    +0.000 OA
ENDROOT
BRANCH   1  18
ATOM     12  C   UNL     1       0.767   9.337  22.881  0.00  0.00    +0.000 C 
ATOM     13  C   UNL     1       0.856   9.164  21.393  0.00  0.00    +0.000 A 
ATOM     14  C   UNL     1       0.197  10.049  20.527  0.00  0.00    +0.000 A 
ATOM     15  C   UNL     1       0.285   9.885  19.136  0.00  0.00    +0.000 A 
ATOM     16  C   UNL     1      -0.468  10.781  18.199  0.00  0.00    +0.000 C 
ATOM     17  C   UNL     1       1.050   8.832  18.614  0.00  0.00    +0.000 A 
ATOM     18  C   UNL     1       1.682   7.931  19.476  0.00  0.00    +0.000 A 
ATOM     19  C   UNL     1       1.580   8.090  20.860  0.00  0.00    +0.000 A 
ENDBRANCH   1  18
BRANCH   9  20
ATOM     20  C   UNL     1       5.031   6.263  16.403  0.00  0.00    +0.000 C 
BRANCH  20  21
ATOM     21  C   UNL     1       6.484   6.544  16.780  0.00  0.00    +0.000 C 
ATOM     22  O   UNL     1       7.330   5.656  16.636  0.00  0.00    +0.000 OA
ATOM     23  N   UNL     1       6.829   7.769  17.304  0.00  0.00    +0.000 N 
ATOM     24  H   UNL     1       6.150   8.499  17.480  0.00  0.00    +0.000 HD
BRANCH  23  25
ATOM     25  C   UNL     1       8.199   7.954  17.715  0.00  0.00    +0.000 C 
BRANCH  25  26
ATOM     26  C   UNL     1       8.517   9.319  18.190  0.00  0.00    +0.000 A 
ATOM     27  C   UNL     1       8.310  10.546  17.592  0.00  0.00    +0.000 A 
ATOM     28  C   UNL     1       8.857  11.516  18.458  0.00  0.00    +0.000 A 
ATOM     29  C   UNL     1       9.383  10.822  19.522  0.00  0.00    +0.000 A 
ATOM     30  O   UNL     1       9.185   9.482  19.369  0.00  0.00    +0.000 OA
ENDBRANCH  25  26
ENDBRANCH  23  25
ENDBRANCH  20  21
ENDBRANCH   9  20
TORSDOF 5
ENDMDL
MODEL 6
REMARK VINA RESULT:      -7.2      6.235     10.181
REMARK  Name = 
REMARK  7 active torsions:
REMARK  status: ('A' for Active; 'I' for Inactive)
REMARK    1  A    between atoms: C_1  and  C_2
REMARK    2  A    between atoms: C_4  and  C_5
REMARK    3  A    between atoms: C_7  and  N_8
REMARK    4  A    between atoms: N_16  and  C_17
REMARK    5  A    between atoms: C_17  and  C_18
REMARK    6  A    between atoms: N_20  and  C_21
REMARK    7  A    between atoms: C_21  and  C_22
REMARK                            x       y       z     vdW  Elec       q    Type
REMARK                         _______ _______ _______ _____ _____    ______ ____
ROOT
ATOM      1  N   UNL     1       1.574   8.280  19.198  0.00  0.00    +0.000 N 
ATOM      2  C   UNL     1       1.452   8.172  20.594  0.00  0.00    +0.000 A 
ATOM      3  O   UNL     1       1.985   7.289  21.268  0.00  0.00    +0.000 OA
ATOM      4  C   UNL     1       0.639   9.215  21.164  0.00  0.00    +0.000 A 
ATOM      5  S   UNL     1       0.363   9.372  22.829  0.00  0.00    +0.000 S 
ATOM      6  C   UNL     1      -0.620  10.752  22.585  0.00  0.00    +0.000 A 
ATOM      7  C   UNL     1      -0.703  11.096  21.252  0.00  0.00    +0.000 A 
ATOM      8  C   UNL     1       0.000  10.174  20.422  0.00  0.00    +0.000 A 
ATOM      9  N   UNL     1       0.044  10.121  19.030  0.00  0.00    +0.000 N 
ATOM     10  C   UNL     1       0.757   9.094  18.391  0.00  0.00    +0.000 A 
ATOM     11  O   UNL     1       0.632   8.910  17.175  0.00  0.00    +0.000 OA
ENDROOT
BRANCH   1  18
ATOM     12  C   UNL     1       2.283   3.632  17.623  0.00  0.00    +0.000 C 
ATOM     13  C   UNL     1       2.768   5.045  17.772  0.00  0.00    +0.000 A 
ATOM     14  C   UNL     1       4.049   5.414  17.335  0.00  0.00    +0.000 A 
ATOM     15  C   UNL     1       4.497   6.737  17.475  0.00  0.00    +0.000 A 
ATOM     16  C   UNL     1       5.888   7.131  17.076  0.00  0.00    +0.000 C 
ATOM     17  C   UNL     1       3.648   7.695  18.044  0.00  0.00    +0.000 A 
ATOM     18  C   UNL     1       2.383   7.322  18.508  0.00  0.00    +0.000 A 
ATOM     19  C   UNL     1       1.946   6.002  18.380  0.00  0.00    +0.000 A 
ENDBRANCH   1  18
BRANCH   9  20
ATOM     20  C   UNL     1      -0.627  11.101  18.177  0.00  0.00    +0.000 C 
BRANCH  20  21
ATOM     21  C   UNL     1      -1.997  10.784  17.584  0.00  0.00    +0.000 C 
ATOM     22  O   UNL     1      -2.397   9.615  17.573  0.00  0.00    +0.000 OA
ATOM     23  N   UNL     1      -2.757  11.795  17.042  0.00  0.00    +0.000 N 
ATOM     24  H   UNL     1      -2.435  12.754  16.991  0.00  0.00    +0.000 HD
BRANCH  23  25
ATOM     25  C   UNL     1      -4.008  11.428  16.425  0.00  0.00    +0.000 C 
BRANCH  25  26
ATOM     26  C   UNL     1      -5.200  11.659  17.272  0.00  0.00    +0.000 A 
ATOM     27  C   UNL     1      -5.684  10.944  18.349  0.00  0.00    +0.000 A 
ATOM     28  C   UNL     1      -6.884  11.573  18.745  0.00  0.00    +0.000 A 
ATOM     29  C   UNL     1      -7.069  12.621  17.875  0.00  0.00    +0.000 A 
ATOM     30  O   UNL     1      -6.051  12.683  16.970  0.00  0.00    +0.000 OA
ENDBRANCH  25  26
ENDBRANCH  23  25
ENDBRANCH  20  21
ENDBRANCH   9  20
TORSDOF 5
ENDMDL
MODEL 7
REMARK VINA RESULT:      -7.1      6.608     10.066
REMARK  Name = 
REMARK  7 active torsions:
REMARK  status: ('A' for Active; 'I' for Inactive)
REMARK    1  A    between atoms: C_1  and  C_2
REMARK    2  A    between atoms: C_4  and  C_5
REMARK    3  A    between atoms: C_7  and  N_8
REMARK    4  A    between atoms: N_16  and  C_17
REMARK    5  A    between atoms: C_17  and  C_18
REMARK    6  A    between atoms: N_20  and  C_21
REMARK    7  A    between atoms: C_21  and  C_22
REMARK                            x       y       z     vdW  Elec       q    Type
REMARK                         _______ _______ _______ _____ _____    ______ ____
ROOT
ATOM      1  N   UNL     1      -1.587  12.033  21.705  0.00  0.00    +0.000 N 
ATOM      2  C   UNL     1      -2.280  12.137  20.486  0.00  0.00    +0.000 A 
ATOM      3  O   UNL     1      -3.310  12.795  20.331  0.00  0.00    +0.000 OA
ATOM      4  C   UNL     1      -1.650  11.397  19.424  0.00  0.00    +0.000 A 
ATOM      5  S   UNL     1      -2.230  11.385  17.831  0.00  0.00    +0.000 S 
ATOM      6  C   UNL     1      -0.972  10.338  17.330  0.00  0.00    +0.000 A 
ATOM      7  C   UNL     1      -0.111  10.035  18.364  0.00  0.00    +0.000 A 
ATOM      8  C   UNL     1      -0.532  10.622  19.593  0.00  0.00    +0.000 A 
ATOM      9  N   UNL     1       0.006  10.446  20.867  0.00  0.00    +0.000 N 
ATOM     10  C   UNL     1      -0.590  11.077  21.971  0.00  0.00    +0.000 A 
ATOM     11  O   UNL     1      -0.259  10.765  23.121  0.00  0.00    +0.000 OA
ENDROOT
BRANCH   1  18
ATOM     12  C   UNL     1      -5.059  12.606  25.198  0.00  0.00    +0.000 C 
ATOM     13  C   UNL     1      -3.802  13.072  24.523  0.00  0.00    +0.000 A 
ATOM     14  C   UNL     1      -3.170  14.258  24.923  0.00  0.00    +0.000 A 
ATOM     15  C   UNL     1      -1.993  14.688  24.290  0.00  0.00    +0.000 A 
ATOM     16  C   UNL     1      -1.343  15.988  24.660  0.00  0.00    +0.000 C 
ATOM     17  C   UNL     1      -1.443  13.915  23.259  0.00  0.00    +0.000 A 
ATOM     18  C   UNL     1      -2.089  12.748  22.839  0.00  0.00    +0.000 A 
ATOM     19  C   UNL     1      -3.267  12.331  23.461  0.00  0.00    +0.000 A 
ENDBRANCH   1  18
BRANCH   9  20
ATOM     20  C   UNL     1       1.186   9.622  21.122  0.00  0.00    +0.000 C 
BRANCH  20  21
ATOM     21  C   UNL     1       1.082   8.100  21.051  0.00  0.00    +0.000 C 
ATOM     22  O   UNL     1       0.106   7.535  21.553  0.00  0.00    +0.000 OA
ATOM     23  N   UNL     1       2.091   7.374  20.459  0.00  0.00    +0.000 N 
ATOM     24  H   UNL     1       2.927   7.805  20.083  0.00  0.00    +0.000 HD
BRANCH  23  25
ATOM     25  C   UNL     1       1.980   5.937  20.488  0.00  0.00    +0.000 C 
BRANCH  25  26
ATOM     26  C   UNL     1       2.640   5.248  19.356  0.00  0.00    +0.000 A 
ATOM     27  C   UNL     1       2.120   4.786  18.164  0.00  0.00    +0.000 A 
ATOM     28  C   UNL     1       3.180   4.158  17.476  0.00  0.00    +0.000 A 
ATOM     29  C   UNL     1       4.277   4.257  18.299  0.00  0.00    +0.000 A 
ATOM     30  O   UNL     1       3.961   4.916  19.449  0.00  0.00    +0.000 OA
ENDBRANCH  25  26
ENDBRANCH  23  25
ENDBRANCH  20  21
ENDBRANCH   9  20
TORSDOF 5
ENDMDL
MODEL 8
REMARK VINA RESULT:      -7.1      6.088      9.996
REMARK  Name = 
REMARK  7 active torsions:
REMARK  status: ('A' for Active; 'I' for Inactive)
REMARK    1  A    between atoms: C_1  and  C_2
REMARK    2  A    between atoms: C_4  and  C_5
REMARK    3  A    between atoms: C_7  and  N_8
REMARK    4  A    between atoms: N_16  and  C_17
REMARK    5  A    between atoms: C_17  and  C_18
REMARK    6  A    between atoms: N_20  and  C_21
REMARK    7  A    between atoms: C_21  and  C_22
REMARK                            x       y       z     vdW  Elec       q    Type
REMARK                         _______ _______ _______ _____ _____    ______ ____
ROOT
ATOM      1  N   UNL     1       1.645   8.252  19.333  0.00  0.00    +0.000 N 
ATOM      2  C   UNL     1       1.421   8.147  20.716  0.00  0.00    +0.000 A 
ATOM      3  O   UNL     1       1.868   7.242  21.422  0.00  0.00    +0.000 OA
ATOM      4  C   UNL     1       0.614   9.223  21.232  0.00  0.00    +0.000 A 
ATOM      5  S   UNL     1       0.229   9.389  22.875  0.00  0.00    +0.000 S 
ATOM      6  C   UNL     1      -0.676  10.809  22.568  0.00  0.00    +0.000 A 
ATOM      7  C   UNL     1      -0.652  11.158  21.234  0.00  0.00    +0.000 A 
ATOM      8  C   UNL     1       0.069  10.209  20.451  0.00  0.00    +0.000 A 
ATOM      9  N   UNL     1       0.208  10.155  19.065  0.00  0.00    +0.000 N 
ATOM     10  C   UNL     1       0.921   9.100  18.474  0.00  0.00    +0.000 A 
ATOM     11  O   UNL     1       0.874   8.923  17.251  0.00  0.00    +0.000 OA
ENDROOT
BRANCH   1  18
ATOM     12  C   UNL     1       5.773   7.069  16.854  0.00  0.00    +0.000 C 
ATOM     13  C   UNL     1       4.449   6.675  17.442  0.00  0.00    +0.000 A 
ATOM     14  C   UNL     1       3.953   5.373  17.285  0.00  0.00    +0.000 A 
ATOM     15  C   UNL     1       2.715   5.008  17.839  0.00  0.00    +0.000 A 
ATOM     16  C   UNL     1       2.140   3.641  17.621  0.00  0.00    +0.000 C 
ATOM     17  C   UNL     1       1.980   5.955  18.565  0.00  0.00    +0.000 A 
ATOM     18  C   UNL     1       2.460   7.262  18.696  0.00  0.00    +0.000 A 
ATOM     19  C   UNL     1       3.684   7.625  18.132  0.00  0.00    +0.000 A 
ENDBRANCH   1  18
BRANCH   9  20
ATOM     20  C   UNL     1      -0.361  11.163  18.172  0.00  0.00    +0.000 C 
BRANCH  20  21
ATOM     21  C   UNL     1      -1.786  11.002  17.650  0.00  0.00    +0.000 C 
ATOM     22  O   UNL     1      -2.019  10.169  16.769  0.00  0.00    +0.000 OA
ATOM     23  N   UNL     1      -2.788  11.807  18.143  0.00  0.00    +0.000 N 
ATOM     24  H   UNL     1      -2.619  12.532  18.829  0.00  0.00    +0.000 HD
BRANCH  23  25
ATOM     25  C   UNL     1      -4.100  11.667  17.560  0.00  0.00    +0.000 C 
BRANCH  25  26
ATOM     26  C   UNL     1      -5.197  11.533  18.545  0.00  0.00    +0.000 A 
ATOM     27  C   UNL     1      -6.413  10.889  18.447  0.00  0.00    +0.000 A 
ATOM     28  C   UNL     1      -7.096  11.127  19.659  0.00  0.00    +0.000 A 
ATOM     29  C   UNL     1      -6.263  11.918  20.415  0.00  0.00    +0.000 A 
ATOM     30  O   UNL     1      -5.104  12.176  19.746  0.00  0.00    +0.000 OA
ENDBRANCH  25  26
ENDBRANCH  23  25
ENDBRANCH  20  21
ENDBRANCH   9  20
TORSDOF 5
ENDMDL
MODEL 9
REMARK VINA RESULT:      -7.1      5.733      9.425
REMARK  Name = 
REMARK  7 active torsions:
REMARK  status: ('A' for Active; 'I' for Inactive)
REMARK    1  A    between atoms: C_1  and  C_2
REMARK    2  A    between atoms: C_4  and  C_5
REMARK    3  A    between atoms: C_7  and  N_8
REMARK    4  A    between atoms: N_16  and  C_17
REMARK    5  A    between atoms: C_17  and  C_18
REMARK    6  A    between atoms: N_20  and  C_21
REMARK    7  A    between atoms: C_21  and  C_22
REMARK                            x       y       z     vdW  Elec       q    Type
REMARK                         _______ _______ _______ _____ _____    ______ ____
ROOT
ATOM      1  N   UNL     1       1.859   8.219  19.351  0.00  0.00    +0.000 N 
ATOM      2  C   UNL     1       1.336   7.871  20.608  0.00  0.00    +0.000 A 
ATOM      3  O   UNL     1       1.414   6.745  21.101  0.00  0.00    +0.000 OA
ATOM      4  C   UNL     1       0.700   8.979  21.273  0.00  0.00    +0.000 A 
ATOM      5  S   UNL     1       0.030   8.869  22.826  0.00  0.00    +0.000 S 
ATOM      6  C   UNL     1      -0.452  10.511  22.786  0.00  0.00    +0.000 A 
ATOM      7  C   UNL     1      -0.074  11.131  21.613  0.00  0.00    +0.000 A 
ATOM      8  C   UNL     1       0.563  10.224  20.716  0.00  0.00    +0.000 A 
ATOM      9  N   UNL     1       0.971  10.447  19.402  0.00  0.00    +0.000 N 
ATOM     10  C   UNL     1       1.537   9.400  18.657  0.00  0.00    +0.000 A 
ATOM     11  O   UNL     1       1.706   9.522  17.439  0.00  0.00    +0.000 OA
ENDROOT
BRANCH   1  18
ATOM     12  C   UNL     1       2.082   3.576  17.625  0.00  0.00    +0.000 C 
ATOM     13  C   UNL     1       2.695   4.937  17.785  0.00  0.00    +0.000 A 
ATOM     14  C   UNL     1       3.981   5.207  17.293  0.00  0.00    +0.000 A 
ATOM     15  C   UNL     1       4.549   6.482  17.442  0.00  0.00    +0.000 A 
ATOM     16  C   UNL     1       5.947   6.767  16.982  0.00  0.00    +0.000 C 
ATOM     17  C   UNL     1       3.816   7.493  18.078  0.00  0.00    +0.000 A 
ATOM     18  C   UNL     1       2.547   7.216  18.596  0.00  0.00    +0.000 A 
ATOM     19  C   UNL     1       1.991   5.943  18.459  0.00  0.00    +0.000 A 
ENDBRANCH   1  18
BRANCH   9  20
ATOM     20  C   UNL     1       0.839  11.745  18.741  0.00  0.00    +0.000 C 
BRANCH  20  21
ATOM     21  C   UNL     1      -0.454  12.101  18.012  0.00  0.00    +0.000 C 
ATOM     22  O   UNL     1      -0.731  13.288  17.814  0.00  0.00    +0.000 OA
ATOM     23  N   UNL     1      -1.310  11.101  17.612  0.00  0.00    +0.000 N 
ATOM     24  H   UNL     1      -1.135  10.122  17.805  0.00  0.00    +0.000 HD
BRANCH  23  25
ATOM     25  C   UNL     1      -2.554  11.496  16.998  0.00  0.00    +0.000 C 
BRANCH  25  26
ATOM     26  C   UNL     1      -3.709  11.535  17.924  0.00  0.00    +0.000 A 
ATOM     27  C   UNL     1      -4.993  11.053  17.773  0.00  0.00    +0.000 A 
ATOM     28  C   UNL     1      -5.700  11.412  18.940  0.00  0.00    +0.000 A 
ATOM     29  C   UNL     1      -4.810  12.109  19.723  0.00  0.00    +0.000 A 
ATOM     30  O   UNL     1      -3.594  12.194  19.114  0.00  0.00    +0.000 OA
ENDBRANCH  25  26
ENDBRANCH  23  25
ENDBRANCH  20  21
ENDBRANCH   9  20
TORSDOF 5
ENDMDL
