MODEL 1
REMARK VINA RESULT:      -8.1      0.000      0.000
REMARK  Name = 
REMARK  6 active torsions:
REMARK  status: ('A' for Active; 'I' for Inactive)
REMARK    1  A    between atoms: C_1  and  C_2
REMARK    2  A    between atoms: C_5  and  C_6
REMARK    3  A    between atoms: N_10  and  N_11
REMARK    4  A    between atoms: C_12  and  C_13
REMARK    5  A    between atoms: C_14  and  C_15
REMARK    6  A    between atoms: C_25  and  C_26
REMARK                            x       y       z     vdW  Elec       q    Type
REMARK                         _______ _______ _______ _____ _____    ______ ____
ROOT
ATOM      1  N   UNL     1       1.105   9.792  19.748  0.00  0.00    +0.000 NA
ATOM      2  C   UNL     1       0.442  10.761  20.293  0.00  0.00    +0.000 C 
ENDROOT
BRANCH   2   3
ATOM      3  C   UNL     1       0.340  12.054  19.676  0.00  0.00    +0.000 A 
ATOM      4  C   UNL     1      -0.724  12.639  18.974  0.00  0.00    +0.000 A 
ATOM      5  N   UNL     1      -0.395  13.896  18.494  0.00  0.00    +0.000 NA
ATOM      6  C   UNL     1       0.810  14.072  18.933  0.00  0.00    +0.000 A 
ATOM      7  S   UNL     1       1.949  15.329  18.781  0.00  0.00    +0.000 S 
ATOM      8  C   UNL     1       3.045  14.274  19.692  0.00  0.00    +0.000 A 
ATOM      9  C   UNL     1       4.417  14.806  19.957  0.00  0.00    +0.000 C 
ATOM     10  N   UNL     1       2.613  13.103  20.069  0.00  0.00    +0.000 NA
ATOM     11  N   UNL     1       1.318  13.027  19.637  0.00  0.00    +0.000 N 
BRANCH   4  12
ATOM     12  C   UNL     1      -2.067  12.130  18.726  0.00  0.00    +0.000 A 
ATOM     13  C   UNL     1      -2.347  11.106  17.815  0.00  0.00    +0.000 A 
ATOM     14  C   UNL     1      -3.651  10.608  17.691  0.00  0.00    +0.000 A 
ATOM     15  C   UNL     1      -4.676  11.116  18.490  0.00  0.00    +0.000 A 
ATOM     16 CL   UNL     1      -6.266  10.477  18.355  0.00  0.00    +0.000 Cl
ATOM     17  C   UNL     1      -4.413  12.124  19.410  0.00  0.00    +0.000 A 
ATOM     18  C   UNL     1      -3.116  12.627  19.522  0.00  0.00    +0.000 A 
ENDBRANCH   4  12
ENDBRANCH   2   3
BRANCH   1  23
ATOM     19  C   UNL     1       3.023   6.142  18.766  0.00  0.00    +0.000 A 
ATOM     20  C   UNL     1       2.656   5.247  19.750  0.00  0.00    +0.000 A 
ATOM     21  S   UNL     1       1.654   6.028  20.906  0.00  0.00    +0.000 S 
ATOM     22  C   UNL     1       1.790   7.511  20.028  0.00  0.00    +0.000 A 
ATOM     23  N   UNL     1       1.177   8.639  20.487  0.00  0.00    +0.000 N 
ATOM     24  N   UNL     1       2.545   7.429  18.957  0.00  0.00    +0.000 NA
ATOM     25  H   UNL     1       0.534   8.516  21.267  0.00  0.00    +0.000 HD
BRANCH  19  30
ATOM     26  C   UNL     1       6.445   4.710  14.324  0.00  0.00    +0.000 C 
ATOM     27  C   UNL     1       5.537   5.108  15.451  0.00  0.00    +0.000 A 
ATOM     28  C   UNL     1       5.354   6.451  15.796  0.00  0.00    +0.000 A 
ATOM     29  C   UNL     1       4.525   6.805  16.867  0.00  0.00    +0.000 A 
ATOM     30  C   UNL     1       3.863   5.821  17.615  0.00  0.00    +0.000 A 
ATOM     31  C   UNL     1       4.048   4.478  17.260  0.00  0.00    +0.000 A 
ATOM     32  C   UNL     1       4.870   4.124  16.186  0.00  0.00    +0.000 A 
ENDBRANCH  19  30
ENDBRANCH   1  23
TORSDOF 4
ENDMDL
MODEL 2
REMARK VINA RESULT:      -8.0      5.667      8.566
REMARK  Name = 
REMARK  6 active torsions:
REMARK  status: ('A' for Active; 'I' for Inactive)
REMARK    1  A    between atoms: C_1  and  C_2
REMARK    2  A    between atoms: C_5  and  C_6
REMARK    3  A    between atoms: N_10  and  N_11
REMARK    4  A    between atoms: C_12  and  C_13
REMARK    5  A    between atoms: C_14  and  C_15
REMARK    6  A    between atoms: C_25  and  C_26
REMARK                            x       y       z     vdW  Elec       q    Type
REMARK                         _______ _______ _______ _____ _____    ______ ____
ROOT
ATOM      1  N   UNL     1      -0.406  11.831  18.697  0.00  0.00    +0.000 NA
ATOM      2  C   UNL     1      -0.146  13.086  18.869  0.00  0.00    +0.000 C 
ENDROOT
BRANCH   2   3
ATOM      3  C   UNL     1       0.808  13.538  19.844  0.00  0.00    +0.000 A 
ATOM      4  C   UNL     1       0.674  13.704  21.230  0.00  0.00    +0.000 A 
ATOM      5  N   UNL     1       1.827  14.213  21.802  0.00  0.00    +0.000 NA
ATOM      6  C   UNL     1       2.637  14.306  20.797  0.00  0.00    +0.000 A 
ATOM      7  S   UNL     1       4.241  14.853  20.620  0.00  0.00    +0.000 S 
ATOM      8  C   UNL     1       4.024  14.535  18.890  0.00  0.00    +0.000 A 
ATOM      9  C   UNL     1       5.189  14.837  18.004  0.00  0.00    +0.000 C 
ATOM     10  N   UNL     1       2.876  14.072  18.480  0.00  0.00    +0.000 NA
ATOM     11  N   UNL     1       2.109  13.931  19.604  0.00  0.00    +0.000 N 
BRANCH   4  12
ATOM     12  C   UNL     1      -0.456  13.398  22.100  0.00  0.00    +0.000 A 
ATOM     13  C   UNL     1      -1.260  14.378  22.692  0.00  0.00    +0.000 A 
ATOM     14  C   UNL     1      -2.383  14.008  23.447  0.00  0.00    +0.000 A 
ATOM     15  C   UNL     1      -2.716  12.663  23.595  0.00  0.00    +0.000 A 
ATOM     16 CL   UNL     1      -4.113  12.219  24.495  0.00  0.00    +0.000 Cl
ATOM     17  C   UNL     1      -1.937  11.677  23.002  0.00  0.00    +0.000 A 
ATOM     18  C   UNL     1      -0.813  12.046  22.262  0.00  0.00    +0.000 A 
ENDBRANCH   4  12
ENDBRANCH   2   3
BRANCH   1  23
ATOM     19  C   UNL     1      -4.608  12.095  19.187  0.00  0.00    +0.000 A 
ATOM     20  C   UNL     1      -5.156  11.542  18.047  0.00  0.00    +0.000 A 
ATOM     21  S   UNL     1      -3.906  11.060  16.973  0.00  0.00    +0.000 S 
ATOM     22  C   UNL     1      -2.718  11.635  18.090  0.00  0.00    +0.000 A 
ATOM     23  N   UNL     1      -1.392  11.554  17.784  0.00  0.00    +0.000 N 
ATOM     24  N   UNL     1      -3.224  12.164  19.180  0.00  0.00    +0.000 NA
ATOM     25  H   UNL     1      -1.154  11.014  16.955  0.00  0.00    +0.000 HD
BRANCH  19  30
ATOM     26  C   UNL     1      -7.458  14.168  23.778  0.00  0.00    +0.000 C 
ATOM     27  C   UNL     1      -6.756  13.624  22.568  0.00  0.00    +0.000 A 
ATOM     28  C   UNL     1      -7.099  12.380  22.027  0.00  0.00    +0.000 A 
ATOM     29  C   UNL     1      -6.416  11.874  20.914  0.00  0.00    +0.000 A 
ATOM     30  C   UNL     1      -5.375  12.603  20.321  0.00  0.00    +0.000 A 
ATOM     31  C   UNL     1      -5.040  13.850  20.867  0.00  0.00    +0.000 A 
ATOM     32  C   UNL     1      -5.726  14.359  21.973  0.00  0.00    +0.000 A 
ENDBRANCH  19  30
ENDBRANCH   1  23
TORSDOF 4
ENDMDL
MODEL 3
REMARK VINA RESULT:      -8.0      0.736      1.126
REMARK  Name = 
REMARK  6 active torsions:
REMARK  status: ('A' for Active; 'I' for Inactive)
REMARK    1  A    between atoms: C_1  and  C_2
REMARK    2  A    between atoms: C_5  and  C_6
REMARK    3  A    between atoms: N_10  and  N_11
REMARK    4  A    between atoms: C_12  and  C_13
REMARK    5  A    between atoms: C_14  and  C_15
REMARK    6  A    between atoms: C_25  and  C_26
REMARK                            x       y       z     vdW  Elec       q    Type
REMARK                         _______ _______ _______ _____ _____    ______ ____
ROOT
ATOM      1  N   UNL     1       1.098   9.708  20.213  0.00  0.00    +0.000 NA
ATOM      2  C   UNL     1       0.640  10.689  20.922  0.00  0.00    +0.000 C 
ENDROOT
BRANCH   2   3
ATOM      3  C   UNL     1       0.629  12.040  20.433  0.00  0.00    +0.000 A 
ATOM      4  C   UNL     1      -0.349  12.727  19.698  0.00  0.00    +0.000 A 
ATOM      5  N   UNL     1       0.054  14.013  19.381  0.00  0.00    +0.000 NA
ATOM      6  C   UNL     1       1.215  14.105  19.946  0.00  0.00    +0.000 A 
ATOM      7  S   UNL     1       2.393  15.333  20.029  0.00  0.00    +0.000 S 
ATOM      8  C   UNL     1       3.371  14.157  20.926  0.00  0.00    +0.000 A 
ATOM      9  C   UNL     1       4.723  14.614  21.370  0.00  0.00    +0.000 C 
ATOM     10  N   UNL     1       2.877  12.969  21.141  0.00  0.00    +0.000 NA
ATOM     11  N   UNL     1       1.628  12.979  20.584  0.00  0.00    +0.000 N 
BRANCH   4  12
ATOM     12  C   UNL     1      -1.674  12.290  19.275  0.00  0.00    +0.000 A 
ATOM     13  C   UNL     1      -2.847  12.597  19.975  0.00  0.00    +0.000 A 
ATOM     14  C   UNL     1      -4.095  12.216  19.462  0.00  0.00    +0.000 A 
ATOM     15  C   UNL     1      -4.178  11.547  18.241  0.00  0.00    +0.000 A 
ATOM     16 CL   UNL     1      -5.714  11.113  17.603  0.00  0.00    +0.000 Cl
ATOM     17  C   UNL     1      -3.024  11.246  17.526  0.00  0.00    +0.000 A 
ATOM     18  C   UNL     1      -1.783  11.615  18.045  0.00  0.00    +0.000 A 
ENDBRANCH   4  12
ENDBRANCH   2   3
BRANCH   1  23
ATOM     19  C   UNL     1       2.911   6.102  18.919  0.00  0.00    +0.000 A 
ATOM     20  C   UNL     1       2.491   5.130  19.805  0.00  0.00    +0.000 A 
ATOM     21  S   UNL     1       1.492   5.833  21.012  0.00  0.00    +0.000 S 
ATOM     22  C   UNL     1       1.698   7.387  20.285  0.00  0.00    +0.000 A 
ATOM     23  N   UNL     1       1.114   8.487  20.839  0.00  0.00    +0.000 N 
ATOM     24  N   UNL     1       2.473   7.381  19.225  0.00  0.00    +0.000 NA
ATOM     25  H   UNL     1       0.450   8.313  21.591  0.00  0.00    +0.000 HD
BRANCH  19  30
ATOM     26  C   UNL     1       6.395   4.993  14.434  0.00  0.00    +0.000 C 
ATOM     27  C   UNL     1       5.470   5.307  15.573  0.00  0.00    +0.000 A 
ATOM     28  C   UNL     1       5.227   6.627  15.968  0.00  0.00    +0.000 A 
ATOM     29  C   UNL     1       4.382   6.903  17.050  0.00  0.00    +0.000 A 
ATOM     30  C   UNL     1       3.764   5.863  17.759  0.00  0.00    +0.000 A 
ATOM     31  C   UNL     1       4.009   4.543  17.353  0.00  0.00    +0.000 A 
ATOM     32  C   UNL     1       4.847   4.267  16.269  0.00  0.00    +0.000 A 
ENDBRANCH  19  30
ENDBRANCH   1  23
TORSDOF 4
ENDMDL
MODEL 4
REMARK VINA RESULT:      -8.0      0.218      1.238
REMARK  Name = 
REMARK  6 active torsions:
REMARK  status: ('A' for Active; 'I' for Inactive)
REMARK    1  A    between atoms: C_1  and  C_2
REMARK    2  A    between atoms: C_5  and  C_6
REMARK    3  A    between atoms: N_10  and  N_11
REMARK    4  A    between atoms: C_12  and  C_13
REMARK    5  A    between atoms: C_14  and  C_15
REMARK    6  A    between atoms: C_25  and  C_26
REMARK                            x       y       z     vdW  Elec       q    Type
REMARK                         _______ _______ _______ _____ _____    ______ ____
ROOT
ATOM      1  N   UNL     1       1.001   9.784  19.812  0.00  0.00    +0.000 NA
ATOM      2  C   UNL     1       0.422  10.794  20.378  0.00  0.00    +0.000 C 
ENDROOT
BRANCH   2   3
ATOM      3  C   UNL     1       0.325  12.073  19.733  0.00  0.00    +0.000 A 
ATOM      4  C   UNL     1      -0.761  12.677  19.082  0.00  0.00    +0.000 A 
ATOM      5  N   UNL     1      -0.422  13.909  18.548  0.00  0.00    +0.000 NA
ATOM      6  C   UNL     1       0.813  14.054  18.907  0.00  0.00    +0.000 A 
ATOM      7  S   UNL     1       1.981  15.267  18.650  0.00  0.00    +0.000 S 
ATOM      8  C   UNL     1       3.097  14.198  19.520  0.00  0.00    +0.000 A 
ATOM      9  C   UNL     1       4.499  14.688  19.685  0.00  0.00    +0.000 C 
ATOM     10  N   UNL     1       2.651  13.053  19.956  0.00  0.00    +0.000 NA
ATOM     11  N   UNL     1       1.329  13.011  19.607  0.00  0.00    +0.000 N 
BRANCH   4  12
ATOM     12  C   UNL     1      -2.134  12.209  18.931  0.00  0.00    +0.000 A 
ATOM     13  C   UNL     1      -3.176  12.590  19.784  0.00  0.00    +0.000 A 
ATOM     14  C   UNL     1      -4.488  12.169  19.526  0.00  0.00    +0.000 A 
ATOM     15  C   UNL     1      -4.767  11.384  18.408  0.00  0.00    +0.000 A 
ATOM     16 CL   UNL     1      -6.384  10.899  18.081  0.00  0.00    +0.000 Cl
ATOM     17  C   UNL     1      -3.746  11.008  17.543  0.00  0.00    +0.000 A 
ATOM     18  C   UNL     1      -2.439  11.417  17.808  0.00  0.00    +0.000 A 
ENDBRANCH   4  12
ENDBRANCH   2   3
BRANCH   1  23
ATOM     19  C   UNL     1       2.989   6.146  18.930  0.00  0.00    +0.000 A 
ATOM     20  C   UNL     1       2.626   5.266  19.929  0.00  0.00    +0.000 A 
ATOM     21  S   UNL     1       1.600   6.055  21.057  0.00  0.00    +0.000 S 
ATOM     22  C   UNL     1       1.721   7.521  20.149  0.00  0.00    +0.000 A 
ATOM     23  N   UNL     1       1.084   8.648  20.577  0.00  0.00    +0.000 N 
ATOM     24  N   UNL     1       2.488   7.429  19.088  0.00  0.00    +0.000 NA
ATOM     25  H   UNL     1       0.435   8.531  21.353  0.00  0.00    +0.000 HD
BRANCH  19  30
ATOM     26  C   UNL     1       6.284   4.988  14.315  0.00  0.00    +0.000 C 
ATOM     27  C   UNL     1       5.453   5.262  15.534  0.00  0.00    +0.000 A 
ATOM     28  C   UNL     1       4.890   4.220  16.278  0.00  0.00    +0.000 A 
ATOM     29  C   UNL     1       4.094   4.493  17.398  0.00  0.00    +0.000 A 
ATOM     30  C   UNL     1       3.847   5.814  17.795  0.00  0.00    +0.000 A 
ATOM     31  C   UNL     1       4.419   6.853  17.047  0.00  0.00    +0.000 A 
ATOM     32  C   UNL     1       5.219   6.581  15.933  0.00  0.00    +0.000 A 
ENDBRANCH  19  30
ENDBRANCH   1  23
TORSDOF 4
ENDMDL
MODEL 5
REMARK VINA RESULT:      -7.7      1.157      1.527
REMARK  Name = 
REMARK  6 active torsions:
REMARK  status: ('A' for Active; 'I' for Inactive)
REMARK    1  A    between atoms: C_1  and  C_2
REMARK    2  A    between atoms: C_5  and  C_6
REMARK    3  A    between atoms: N_10  and  N_11
REMARK    4  A    between atoms: C_12  and  C_13
REMARK    5  A    between atoms: C_14  and  C_15
REMARK    6  A    between atoms: C_25  and  C_26
REMARK                            x       y       z     vdW  Elec       q    Type
REMARK                         _______ _______ _______ _____ _____    ______ ____
ROOT
ATOM      1  N   UNL     1       1.309   9.354  19.935  0.00  0.00    +0.000 NA
ATOM      2  C   UNL     1       0.813  10.340  20.610  0.00  0.00    +0.000 C 
ENDROOT
BRANCH   2   3
ATOM      3  C   UNL     1       0.732  11.668  20.070  0.00  0.00    +0.000 A 
ATOM      4  C   UNL     1      -0.088  12.183  19.055  0.00  0.00    +0.000 A 
ATOM      5  N   UNL     1       0.185  13.516  18.798  0.00  0.00    +0.000 NA
ATOM      6  C   UNL     1       1.107  13.798  19.662  0.00  0.00    +0.000 A 
ATOM      7  S   UNL     1       2.006  15.202  20.011  0.00  0.00    +0.000 S 
ATOM      8  C   UNL     1       2.857  14.206  21.206  0.00  0.00    +0.000 A 
ATOM      9  C   UNL     1       3.937  14.879  21.989  0.00  0.00    +0.000 C 
ATOM     10  N   UNL     1       2.512  12.955  21.333  0.00  0.00    +0.000 NA
ATOM     11  N   UNL     1       1.489  12.758  20.448  0.00  0.00    +0.000 N 
BRANCH   4  12
ATOM     12  C   UNL     1      -1.152  11.534  18.299  0.00  0.00    +0.000 A 
ATOM     13  C   UNL     1      -2.446  12.054  18.187  0.00  0.00    +0.000 A 
ATOM     14  C   UNL     1      -3.394  11.420  17.372  0.00  0.00    +0.000 A 
ATOM     15  C   UNL     1      -3.048  10.278  16.650  0.00  0.00    +0.000 A 
ATOM     16 CL   UNL     1      -4.207   9.525  15.627  0.00  0.00    +0.000 Cl
ATOM     17  C   UNL     1      -1.763   9.755  16.739  0.00  0.00    +0.000 A 
ATOM     18  C   UNL     1      -0.825  10.380  17.561  0.00  0.00    +0.000 A 
ENDBRANCH   4  12
ENDBRANCH   2   3
BRANCH   1  23
ATOM     19  C   UNL     1       3.204   5.762  18.722  0.00  0.00    +0.000 A 
ATOM     20  C   UNL     1       2.848   4.813  19.660  0.00  0.00    +0.000 A 
ATOM     21  S   UNL     1       1.865   5.529  20.872  0.00  0.00    +0.000 S 
ATOM     22  C   UNL     1       1.992   7.060  20.077  0.00  0.00    +0.000 A 
ATOM     23  N   UNL     1       1.389   8.161  20.607  0.00  0.00    +0.000 N 
ATOM     24  N   UNL     1       2.732   7.037  18.992  0.00  0.00    +0.000 NA
ATOM     25  H   UNL     1       0.757   7.995  21.388  0.00  0.00    +0.000 HD
BRANCH  19  30
ATOM     26  C   UNL     1       6.582   4.598  14.170  0.00  0.00    +0.000 C 
ATOM     27  C   UNL     1       5.682   4.923  15.326  0.00  0.00    +0.000 A 
ATOM     28  C   UNL     1       5.358   6.246  15.644  0.00  0.00    +0.000 A 
ATOM     29  C   UNL     1       4.538   6.535  16.742  0.00  0.00    +0.000 A 
ATOM     30  C   UNL     1       4.027   5.505  17.543  0.00  0.00    +0.000 A 
ATOM     31  C   UNL     1       4.352   4.181  17.215  0.00  0.00    +0.000 A 
ATOM     32  C   UNL     1       5.165   3.891  16.115  0.00  0.00    +0.000 A 
ENDBRANCH  19  30
ENDBRANCH   1  23
TORSDOF 4
ENDMDL
MODEL 6
REMARK VINA RESULT:      -7.6      5.287      8.028
REMARK  Name = 
REMARK  6 active torsions:
REMARK  status: ('A' for Active; 'I' for Inactive)
REMARK    1  A    between atoms: C_1  and  C_2
REMARK    2  A    between atoms: C_5  and  C_6
REMARK    3  A    between atoms: N_10  and  N_11
REMARK    4  A    between atoms: C_12  and  C_13
REMARK    5  A    between atoms: C_14  and  C_15
REMARK    6  A    between atoms: C_25  and  C_26
REMARK                            x       y       z     vdW  Elec       q    Type
REMARK                         _______ _______ _______ _____ _____    ______ ____
ROOT
ATOM      1  N   UNL     1       0.350  11.413  19.091  0.00  0.00    +0.000 NA
ATOM      2  C   UNL     1       0.507  12.697  19.057  0.00  0.00    +0.000 C 
ENDROOT
BRANCH   2   3
ATOM      3  C   UNL     1       1.152  13.413  20.122  0.00  0.00    +0.000 A 
ATOM      4  C   UNL     1       0.704  13.701  21.420  0.00  0.00    +0.000 A 
ATOM      5  N   UNL     1       1.619  14.463  22.125  0.00  0.00    +0.000 NA
ATOM      6  C   UNL     1       2.601  14.588  21.290  0.00  0.00    +0.000 A 
ATOM      7  S   UNL     1       4.105  15.387  21.348  0.00  0.00    +0.000 S 
ATOM      8  C   UNL     1       4.310  14.852  19.671  0.00  0.00    +0.000 A 
ATOM      9  C   UNL     1       5.578  15.257  18.991  0.00  0.00    +0.000 C 
ATOM     10  N   UNL     1       3.358  14.152  19.118  0.00  0.00    +0.000 NA
ATOM     11  N   UNL     1       2.400  14.000  20.083  0.00  0.00    +0.000 N 
BRANCH   4  12
ATOM     12  C   UNL     1      -0.525  13.295  22.092  0.00  0.00    +0.000 A 
ATOM     13  C   UNL     1      -0.829  11.966  22.408  0.00  0.00    +0.000 A 
ATOM     14  C   UNL     1      -1.989  11.660  23.132  0.00  0.00    +0.000 A 
ATOM     15  C   UNL     1      -2.840  12.680  23.559  0.00  0.00    +0.000 A 
ATOM     16 CL   UNL     1      -4.244  12.299  24.475  0.00  0.00    +0.000 Cl
ATOM     17  C   UNL     1      -2.547  14.006  23.266  0.00  0.00    +0.000 A 
ATOM     18  C   UNL     1      -1.398  14.307  22.534  0.00  0.00    +0.000 A 
ENDBRANCH   4  12
ENDBRANCH   2   3
BRANCH   1  23
ATOM     19  C   UNL     1      -3.823  11.533  18.364  0.00  0.00    +0.000 A 
ATOM     20  C   UNL     1      -4.042  10.704  17.282  0.00  0.00    +0.000 A 
ATOM     21  S   UNL     1      -2.548  10.065  16.726  0.00  0.00    +0.000 S 
ATOM     22  C   UNL     1      -1.708  10.948  17.952  0.00  0.00    +0.000 A 
ATOM     23  N   UNL     1      -0.349  10.878  18.039  0.00  0.00    +0.000 N 
ATOM     24  N   UNL     1      -2.490  11.681  18.711  0.00  0.00    +0.000 NA
ATOM     25  H   UNL     1       0.104  10.179  17.454  0.00  0.00    +0.000 HD
BRANCH  19  30
ATOM     26  C   UNL     1      -7.917  14.210  21.458  0.00  0.00    +0.000 C 
ATOM     27  C   UNL     1      -6.862  13.543  20.625  0.00  0.00    +0.000 A 
ATOM     28  C   UNL     1      -7.131  13.113  19.321  0.00  0.00    +0.000 A 
ATOM     29  C   UNL     1      -6.144  12.468  18.565  0.00  0.00    +0.000 A 
ATOM     30  C   UNL     1      -4.869  12.239  19.100  0.00  0.00    +0.000 A 
ATOM     31  C   UNL     1      -4.606  12.677  20.406  0.00  0.00    +0.000 A 
ATOM     32  C   UNL     1      -5.588  13.327  21.159  0.00  0.00    +0.000 A 
ENDBRANCH  19  30
ENDBRANCH   1  23
TORSDOF 4
ENDMDL
MODEL 7
REMARK VINA RESULT:      -7.4      4.003      9.506
REMARK  Name = 
REMARK  6 active torsions:
REMARK  status: ('A' for Active; 'I' for Inactive)
REMARK    1  A    between atoms: C_1  and  C_2
REMARK    2  A    between atoms: C_5  and  C_6
REMARK    3  A    between atoms: N_10  and  N_11
REMARK    4  A    between atoms: C_12  and  C_13
REMARK    5  A    between atoms: C_14  and  C_15
REMARK    6  A    between atoms: C_25  and  C_26
REMARK                            x       y       z     vdW  Elec       q    Type
REMARK                         _______ _______ _______ _____ _____    ______ ____
ROOT
ATOM      1  N   UNL     1      -2.332  11.130  17.862  0.00  0.00    +0.000 NA
ATOM      2  C   UNL     1      -1.652  11.354  18.940  0.00  0.00    +0.000 C 
ENDROOT
BRANCH   2   3
ATOM      3  C   UNL     1      -0.349  11.957  18.905  0.00  0.00    +0.000 A 
ATOM      4  C   UNL     1       0.922  11.367  18.958  0.00  0.00    +0.000 A 
ATOM      5  N   UNL     1       1.931  12.314  18.946  0.00  0.00    +0.000 NA
ATOM      6  C   UNL     1       1.285  13.431  18.845  0.00  0.00    +0.000 A 
ATOM      7  S   UNL     1       1.757  15.067  18.785  0.00  0.00    +0.000 S 
ATOM      8  C   UNL     1       0.022  15.434  18.756  0.00  0.00    +0.000 A 
ATOM      9  C   UNL     1      -0.354  16.879  18.706  0.00  0.00    +0.000 C 
ATOM     10  N   UNL     1      -0.825  14.444  18.791  0.00  0.00    +0.000 NA
ATOM     11  N   UNL     1      -0.067  13.305  18.819  0.00  0.00    +0.000 N 
BRANCH   4  12
ATOM     12  C   UNL     1       1.293   9.957  18.993  0.00  0.00    +0.000 A 
ATOM     13  C   UNL     1       1.856   9.281  17.905  0.00  0.00    +0.000 A 
ATOM     14  C   UNL     1       2.268   7.948  18.039  0.00  0.00    +0.000 A 
ATOM     15  C   UNL     1       2.138   7.292  19.263  0.00  0.00    +0.000 A 
ATOM     16 CL   UNL     1       2.676   5.667  19.427  0.00  0.00    +0.000 Cl
ATOM     17  C   UNL     1       1.594   7.953  20.358  0.00  0.00    +0.000 A 
ATOM     18  C   UNL     1       1.172   9.276  20.219  0.00  0.00    +0.000 A 
ENDBRANCH   4  12
ENDBRANCH   2   3
BRANCH   1  23
ATOM     19  C   UNL     1      -6.241  12.766  17.921  0.00  0.00    +0.000 A 
ATOM     20  C   UNL     1      -7.074  11.738  18.314  0.00  0.00    +0.000 A 
ATOM     21  S   UNL     1      -6.161  10.302  18.544  0.00  0.00    +0.000 S 
ATOM     22  C   UNL     1      -4.719  11.140  18.089  0.00  0.00    +0.000 A 
ATOM     23  N   UNL     1      -3.527  10.481  18.044  0.00  0.00    +0.000 N 
ATOM     24  N   UNL     1      -4.913  12.400  17.772  0.00  0.00    +0.000 NA
ATOM     25  H   UNL     1      -3.519   9.538  18.428  0.00  0.00    +0.000 HD
BRANCH  19  30
ATOM     26  C   UNL     1      -7.845  18.178  16.646  0.00  0.00    +0.000 C 
ATOM     27  C   UNL     1      -7.454  16.776  17.010  0.00  0.00    +0.000 A 
ATOM     28  C   UNL     1      -6.993  16.460  18.293  0.00  0.00    +0.000 A 
ATOM     29  C   UNL     1      -6.606  15.152  18.609  0.00  0.00    +0.000 A 
ATOM     30  C   UNL     1      -6.674  14.134  17.648  0.00  0.00    +0.000 A 
ATOM     31  C   UNL     1      -7.142  14.457  16.367  0.00  0.00    +0.000 A 
ATOM     32  C   UNL     1      -7.534  15.762  16.051  0.00  0.00    +0.000 A 
ENDBRANCH  19  30
ENDBRANCH   1  23
TORSDOF 4
ENDMDL
MODEL 8
REMARK VINA RESULT:      -7.1      6.777     11.076
REMARK  Name = 
REMARK  6 active torsions:
REMARK  status: ('A' for Active; 'I' for Inactive)
REMARK    1  A    between atoms: C_1  and  C_2
REMARK    2  A    between atoms: C_5  and  C_6
REMARK    3  A    between atoms: N_10  and  N_11
REMARK    4  A    between atoms: C_12  and  C_13
REMARK    5  A    between atoms: C_14  and  C_15
REMARK    6  A    between atoms: C_25  and  C_26
REMARK                            x       y       z     vdW  Elec       q    Type
REMARK                         _______ _______ _______ _____ _____    ______ ____
ROOT
ATOM      1  N   UNL     1       4.592  13.781  22.290  0.00  0.00    +0.000 NA
ATOM      2  C   UNL     1       5.854  13.950  22.520  0.00  0.00    +0.000 C 
ENDROOT
BRANCH   2   3
ATOM      3  C   UNL     1       6.567  13.150  23.476  0.00  0.00    +0.000 A 
ATOM      4  C   UNL     1       7.780  12.456  23.351  0.00  0.00    +0.000 A 
ATOM      5  N   UNL     1       8.098  11.760  24.505  0.00  0.00    +0.000 NA
ATOM      6  C   UNL     1       7.129  12.064  25.307  0.00  0.00    +0.000 A 
ATOM      7  S   UNL     1       6.738  11.623  26.906  0.00  0.00    +0.000 S 
ATOM      8  C   UNL     1       5.271  12.592  26.679  0.00  0.00    +0.000 A 
ATOM      9  C   UNL     1       4.327  12.656  27.836  0.00  0.00    +0.000 C 
ATOM     10  N   UNL     1       5.084  13.183  25.531  0.00  0.00    +0.000 NA
ATOM     11  N   UNL     1       6.181  12.877  24.773  0.00  0.00    +0.000 N 
BRANCH   4  12
ATOM     12  C   UNL     1       8.710  12.404  22.229  0.00  0.00    +0.000 A 
ATOM     13  C   UNL     1       9.560  13.460  21.883  0.00  0.00    +0.000 A 
ATOM     14  C   UNL     1      10.490  13.306  20.845  0.00  0.00    +0.000 A 
ATOM     15  C   UNL     1      10.589  12.093  20.164  0.00  0.00    +0.000 A 
ATOM     16 CL   UNL     1      11.754  11.901  18.915  0.00  0.00    +0.000 Cl
ATOM     17  C   UNL     1       9.762  11.029  20.505  0.00  0.00    +0.000 A 
ATOM     18  C   UNL     1       8.828  11.188  21.529  0.00  0.00    +0.000 A 
ENDBRANCH   4  12
ENDBRANCH   2   3
BRANCH   1  23
ATOM     19  C   UNL     1       0.486  14.526  21.547  0.00  0.00    +0.000 A 
ATOM     20  C   UNL     1       0.448  15.366  20.453  0.00  0.00    +0.000 A 
ATOM     21  S   UNL     1       2.046  15.741  19.948  0.00  0.00    +0.000 S 
ATOM     22  C   UNL     1       2.683  14.773  21.230  0.00  0.00    +0.000 A 
ATOM     23  N   UNL     1       4.031  14.667  21.406  0.00  0.00    +0.000 N 
ATOM     24  N   UNL     1       1.764  14.223  21.991  0.00  0.00    +0.000 NA
ATOM     25  H   UNL     1       4.613  15.057  20.667  0.00  0.00    +0.000 HD
BRANCH  19  30
ATOM     26  C   UNL     1      -4.057  12.436  24.459  0.00  0.00    +0.000 C 
ATOM     27  C   UNL     1      -2.902  12.978  23.669  0.00  0.00    +0.000 A 
ATOM     28  C   UNL     1      -2.471  12.355  22.493  0.00  0.00    +0.000 A 
ATOM     29  C   UNL     1      -1.374  12.857  21.782  0.00  0.00    +0.000 A 
ATOM     30  C   UNL     1      -0.688  13.993  22.234  0.00  0.00    +0.000 A 
ATOM     31  C   UNL     1      -1.129  14.614  23.410  0.00  0.00    +0.000 A 
ATOM     32  C   UNL     1      -2.228  14.118  24.118  0.00  0.00    +0.000 A 
ENDBRANCH  19  30
ENDBRANCH   1  23
TORSDOF 4
ENDMDL
MODEL 9
REMARK VINA RESULT:      -7.1      3.760      8.766
REMARK  Name = 
REMARK  6 active torsions:
REMARK  status: ('A' for Active; 'I' for Inactive)
REMARK    1  A    between atoms: C_1  and  C_2
REMARK    2  A    between atoms: C_5  and  C_6
REMARK    3  A    between atoms: N_10  and  N_11
REMARK    4  A    between atoms: C_12  and  C_13
REMARK    5  A    between atoms: C_14  and  C_15
REMARK    6  A    between atoms: C_25  and  C_26
REMARK                            x       y       z     vdW  Elec       q    Type
REMARK                         _______ _______ _______ _____ _____    ______ ____
ROOT
ATOM      1  N   UNL     1      -0.227  11.313  22.170  0.00  0.00    +0.000 NA
ATOM      2  C   UNL     1      -0.312  10.160  21.589  0.00  0.00    +0.000 C 
ENDROOT
BRANCH   2   3
ATOM      3  C   UNL     1       0.567   9.782  20.518  0.00  0.00    +0.000 A 
ATOM      4  C   UNL     1       1.028  10.527  19.422  0.00  0.00    +0.000 A 
ATOM      5  N   UNL     1       1.830   9.769  18.585  0.00  0.00    +0.000 NA
ATOM      6  C   UNL     1       1.881   8.624  19.185  0.00  0.00    +0.000 A 
ATOM      7  S   UNL     1       2.630   7.136  18.827  0.00  0.00    +0.000 S 
ATOM      8  C   UNL     1       1.844   6.532  20.297  0.00  0.00    +0.000 A 
ATOM      9  C   UNL     1       2.088   5.099  20.644  0.00  0.00    +0.000 C 
ATOM     10  N   UNL     1       1.097   7.349  20.986  0.00  0.00    +0.000 NA
ATOM     11  N   UNL     1       1.158   8.549  20.332  0.00  0.00    +0.000 N 
BRANCH   4  12
ATOM     12  C   UNL     1       0.805  11.928  19.088  0.00  0.00    +0.000 A 
ATOM     13  C   UNL     1      -0.438  12.438  18.696  0.00  0.00    +0.000 A 
ATOM     14  C   UNL     1      -0.599  13.813  18.474  0.00  0.00    +0.000 A 
ATOM     15  C   UNL     1       0.474  14.685  18.661  0.00  0.00    +0.000 A 
ATOM     16 CL   UNL     1       0.260  16.373  18.418  0.00  0.00    +0.000 Cl
ATOM     17  C   UNL     1       1.712  14.197  19.063  0.00  0.00    +0.000 A 
ATOM     18  C   UNL     1       1.873  12.827  19.271  0.00  0.00    +0.000 A 
ENDBRANCH   4  12
ENDBRANCH   2   3
BRANCH   1  23
ATOM     19  C   UNL     1      -4.168  12.783  21.648  0.00  0.00    +0.000 A 
ATOM     20  C   UNL     1      -4.651  13.025  22.917  0.00  0.00    +0.000 A 
ATOM     21  S   UNL     1      -3.472  12.584  24.085  0.00  0.00    +0.000 S 
ATOM     22  C   UNL     1      -2.402  12.084  22.823  0.00  0.00    +0.000 A 
ATOM     23  N   UNL     1      -1.179  11.562  23.125  0.00  0.00    +0.000 N 
ATOM     24  N   UNL     1      -2.900  12.223  21.616  0.00  0.00    +0.000 NA
ATOM     25  H   UNL     1      -0.891  11.627  24.100  0.00  0.00    +0.000 HD
BRANCH  19  30
ATOM     26  C   UNL     1      -7.235  13.892  16.867  0.00  0.00    +0.000 C 
ATOM     27  C   UNL     1      -6.405  13.600  18.083  0.00  0.00    +0.000 A 
ATOM     28  C   UNL     1      -5.598  12.460  18.155  0.00  0.00    +0.000 A 
ATOM     29  C   UNL     1      -4.850  12.187  19.307  0.00  0.00    +0.000 A 
ATOM     30  C   UNL     1      -4.897  13.050  20.411  0.00  0.00    +0.000 A 
ATOM     31  C   UNL     1      -5.705  14.193  20.329  0.00  0.00    +0.000 A 
ATOM     32  C   UNL     1      -6.446  14.470  19.177  0.00  0.00    +0.000 A 
ENDBRANCH  19  30
ENDBRANCH   1  23
TORSDOF 4
ENDMDL
