MODEL 1
REMARK VINA RESULT:      -6.3      0.000      0.000
REMARK  Name = 
REMARK  12 active torsions:
REMARK  status: ('A' for Active; 'I' for Inactive)
REMARK    1  A    between atoms: C_1  and  C_2
REMARK    2  A    between atoms: C_2  and  C_3
REMARK    3  A    between atoms: C_3  and  C_4
REMARK    4  A    between atoms: C_4  and  N_5
REMARK    5  A    between atoms: N_5  and  C_6
REMARK    6  A    between atoms: N_5  and  S_18
REMARK    7  A    between atoms: C_14  and  C_15
REMARK    8  A    between atoms: C_15  and  C_16
REMARK    9  A    between atoms: S_18  and  C_21
REMARK   10  A    between atoms: C_24  and  C_25
REMARK   11  A    between atoms: C_25  and  O_27
REMARK   12  A    between atoms: O_27  and  C_28
REMARK                            x       y       z     vdW  Elec       q    Type
REMARK                         _______ _______ _______ _____ _____    ______ ____
ROOT
ATOM      1  N   UNL     1      -0.136  11.094  19.653  0.00  0.00    +0.000 N 
ENDROOT
BRANCH   1   2
ATOM      2  C   UNL     1       0.793  10.021  19.400  0.00  0.00    +0.000 A 
ATOM      3  S   UNL     1       1.736   9.914  17.995  0.00  0.00    +0.000 S 
ATOM      4  C   UNL     1       2.317   8.353  18.416  0.00  0.00    +0.000 A 
ATOM      5  C   UNL     1       3.128   7.518  17.616  0.00  0.00    +0.000 A 
ATOM      6  C   UNL     1       3.553   6.289  18.121  0.00  0.00    +0.000 A 
ATOM      7  C   UNL     1       3.197   5.902  19.400  0.00  0.00    +0.000 A 
ATOM      8  C   UNL     1       2.367   6.718  20.175  0.00  0.00    +0.000 A 
ATOM      9  C   UNL     1       1.882   7.967  19.691  0.00  0.00    +0.000 A 
ATOM     10  C   UNL     1       0.927   8.927  20.242  0.00  0.00    +0.000 A 
BRANCH  10  11
ATOM     11  C   UNL     1       0.119   8.776  21.464  0.00  0.00    +0.000 C 
ATOM     12  C   UNL     1       0.605   9.338  22.769  0.00  0.00    +0.000 C 
ATOM     13  O   UNL     1      -0.942   8.147  21.467  0.00  0.00    +0.000 OA
ENDBRANCH  10  11
ENDBRANCH   1   2
BRANCH   1  14
ATOM     14  S   UNL     1       0.591  12.484  20.344  0.00  0.00    +0.000 S 
ATOM     15  O   UNL     1       1.649  12.090  21.254  0.00  0.00    +0.000 OA
ATOM     16  O   UNL     1       0.835  13.456  19.297  0.00  0.00    +0.000 OA
BRANCH  14  17
ATOM     17  C   UNL     1      -0.734  13.120  21.361  0.00  0.00    +0.000 A 
ATOM     18  C   UNL     1      -1.141  12.382  22.477  0.00  0.00    +0.000 A 
ATOM     19  C   UNL     1      -2.222  12.822  23.242  0.00  0.00    +0.000 A 
ATOM     20  C   UNL     1      -2.894  14.008  22.906  0.00  0.00    +0.000 A 
ATOM     21  C   UNL     1      -2.430  14.780  21.831  0.00  0.00    +0.000 A 
ATOM     22  C   UNL     1      -1.340  14.346  21.064  0.00  0.00    +0.000 A 
BRANCH  20  23
ATOM     23  C   UNL     1      -4.097  14.369  23.709  0.00  0.00    +0.000 C 
ATOM     24  O   UNL     1      -5.046  13.619  23.870  0.00  0.00    +0.000 OA
BRANCH  23  25
ATOM     25  O   UNL     1      -3.997  15.634  24.189  0.00  0.00    +0.000 OA
ATOM     26  C   UNL     1      -3.091  15.760  25.286  0.00  0.00    +0.000 C 
ENDBRANCH  23  25
ENDBRANCH  20  23
ENDBRANCH  14  17
ENDBRANCH   1  14
BRANCH   1  27
ATOM     27  C   UNL     1      -1.259  11.350  18.708  0.00  0.00    +0.000 C 
BRANCH  27  28
ATOM     28  C   UNL     1      -2.044  10.068  18.404  0.00  0.00    +0.000 C 
BRANCH  28  30
ATOM     29  C   UNL     1      -2.641  11.038  16.175  0.00  0.00    +0.000 C 
ATOM     30  C   UNL     1      -2.164   9.791  16.907  0.00  0.00    +0.000 C 
ENDBRANCH  28  30
ENDBRANCH  27  28
ENDBRANCH   1  27
TORSDOF 9
ENDMDL
MODEL 2
REMARK VINA RESULT:      -6.2      0.551      1.076
REMARK  Name = 
REMARK  12 active torsions:
REMARK  status: ('A' for Active; 'I' for Inactive)
REMARK    1  A    between atoms: C_1  and  C_2
REMARK    2  A    between atoms: C_2  and  C_3
REMARK    3  A    between atoms: C_3  and  C_4
REMARK    4  A    between atoms: C_4  and  N_5
REMARK    5  A    between atoms: N_5  and  C_6
REMARK    6  A    between atoms: N_5  and  S_18
REMARK    7  A    between atoms: C_14  and  C_15
REMARK    8  A    between atoms: C_15  and  C_16
REMARK    9  A    between atoms: S_18  and  C_21
REMARK   10  A    between atoms: C_24  and  C_25
REMARK   11  A    between atoms: C_25  and  O_27
REMARK   12  A    between atoms: O_27  and  C_28
REMARK                            x       y       z     vdW  Elec       q    Type
REMARK                         _______ _______ _______ _____ _____    ______ ____
ROOT
ATOM      1  N   UNL     1      -0.256  11.119  19.798  0.00  0.00    +0.000 N 
ENDROOT
BRANCH   1   2
ATOM      2  C   UNL     1       0.682  10.060  19.515  0.00  0.00    +0.000 A 
ATOM      3  S   UNL     1       1.602   9.983  18.094  0.00  0.00    +0.000 S 
ATOM      4  C   UNL     1       2.209   8.424  18.484  0.00  0.00    +0.000 A 
ATOM      5  C   UNL     1       3.017   7.610  17.661  0.00  0.00    +0.000 A 
ATOM      6  C   UNL     1       3.465   6.380  18.142  0.00  0.00    +0.000 A 
ATOM      7  C   UNL     1       3.136   5.972  19.422  0.00  0.00    +0.000 A 
ATOM      8  C   UNL     1       2.309   6.768  20.221  0.00  0.00    +0.000 A 
ATOM      9  C   UNL     1       1.801   8.016  19.762  0.00  0.00    +0.000 A 
ATOM     10  C   UNL     1       0.843   8.957  20.340  0.00  0.00    +0.000 A 
BRANCH  10  11
ATOM     11  C   UNL     1       0.058   8.781  21.573  0.00  0.00    +0.000 C 
ATOM     12  C   UNL     1       0.520   9.398  22.862  0.00  0.00    +0.000 C 
ATOM     13  O   UNL     1      -0.962   8.087  21.600  0.00  0.00    +0.000 OA
ENDBRANCH  10  11
ENDBRANCH   1   2
BRANCH   1  14
ATOM     14  S   UNL     1       0.486  12.573  20.321  0.00  0.00    +0.000 S 
ATOM     15  O   UNL     1       1.654  12.272  21.125  0.00  0.00    +0.000 OA
ATOM     16  O   UNL     1       0.571  13.487  19.199  0.00  0.00    +0.000 OA
BRANCH  14  17
ATOM     17  C   UNL     1      -0.743  13.224  21.444  0.00  0.00    +0.000 A 
ATOM     18  C   UNL     1      -1.353  14.446  21.141  0.00  0.00    +0.000 A 
ATOM     19  C   UNL     1      -2.260  15.009  22.040  0.00  0.00    +0.000 A 
ATOM     20  C   UNL     1      -2.574  14.349  23.238  0.00  0.00    +0.000 A 
ATOM     21  C   UNL     1      -2.015  13.089  23.497  0.00  0.00    +0.000 A 
ATOM     22  C   UNL     1      -1.109  12.517  22.594  0.00  0.00    +0.000 A 
BRANCH  20  23
ATOM     23  C   UNL     1      -3.478  15.051  24.194  0.00  0.00    +0.000 C 
ATOM     24  O   UNL     1      -4.652  15.287  23.958  0.00  0.00    +0.000 OA
BRANCH  23  25
ATOM     25  O   UNL     1      -2.809  15.410  25.318  0.00  0.00    +0.000 OA
ATOM     26  C   UNL     1      -2.442  16.791  25.349  0.00  0.00    +0.000 C 
ENDBRANCH  23  25
ENDBRANCH  20  23
ENDBRANCH  14  17
ENDBRANCH   1  14
BRANCH   1  27
ATOM     27  C   UNL     1      -1.479  11.278  18.962  0.00  0.00    +0.000 C 
BRANCH  27  28
ATOM     28  C   UNL     1      -1.753  10.026  18.119  0.00  0.00    +0.000 C 
BRANCH  28  30
ATOM     29  C   UNL     1      -2.742  10.393  15.849  0.00  0.00    +0.000 C 
ATOM     30  C   UNL     1      -3.048  10.127  17.316  0.00  0.00    +0.000 C 
ENDBRANCH  28  30
ENDBRANCH  27  28
ENDBRANCH   1  27
TORSDOF 9
ENDMDL
MODEL 3
REMARK VINA RESULT:      -6.1      2.635      7.892
REMARK  Name = 
REMARK  12 active torsions:
REMARK  status: ('A' for Active; 'I' for Inactive)
REMARK    1  A    between atoms: C_1  and  C_2
REMARK    2  A    between atoms: C_2  and  C_3
REMARK    3  A    between atoms: C_3  and  C_4
REMARK    4  A    between atoms: C_4  and  N_5
REMARK    5  A    between atoms: N_5  and  C_6
REMARK    6  A    between atoms: N_5  and  S_18
REMARK    7  A    between atoms: C_14  and  C_15
REMARK    8  A    between atoms: C_15  and  C_16
REMARK    9  A    between atoms: S_18  and  C_21
REMARK   10  A    between atoms: C_24  and  C_25
REMARK   11  A    between atoms: C_25  and  O_27
REMARK   12  A    between atoms: O_27  and  C_28
REMARK                            x       y       z     vdW  Elec       q    Type
REMARK                         _______ _______ _______ _____ _____    ______ ____
ROOT
ATOM      1  N   UNL     1      -0.376  10.815  19.194  0.00  0.00    +0.000 N 
ENDROOT
BRANCH   1   2
ATOM      2  C   UNL     1      -0.111  12.233  19.210  0.00  0.00    +0.000 A 
ATOM      3  S   UNL     1       1.285  12.929  18.546  0.00  0.00    +0.000 S 
ATOM      4  C   UNL     1       0.892  14.483  19.162  0.00  0.00    +0.000 A 
ATOM      5  C   UNL     1       1.699  15.640  19.095  0.00  0.00    +0.000 A 
ATOM      6  C   UNL     1       1.217  16.843  19.609  0.00  0.00    +0.000 A 
ATOM      7  C   UNL     1      -0.050  16.905  20.161  0.00  0.00    +0.000 A 
ATOM      8  C   UNL     1      -0.833  15.750  20.254  0.00  0.00    +0.000 A 
ATOM      9  C   UNL     1      -0.371  14.492  19.773  0.00  0.00    +0.000 A 
ATOM     10  C   UNL     1      -0.930  13.145  19.858  0.00  0.00    +0.000 A 
BRANCH  10  11
ATOM     11  C   UNL     1      -2.140  12.729  20.589  0.00  0.00    +0.000 C 
ATOM     12  C   UNL     1      -2.054  12.333  22.035  0.00  0.00    +0.000 C 
ATOM     13  O   UNL     1      -3.237  12.643  20.031  0.00  0.00    +0.000 OA
ENDBRANCH  10  11
ENDBRANCH   1   2
BRANCH   1  14
ATOM     14  S   UNL     1       0.305   9.973  20.523  0.00  0.00    +0.000 S 
ATOM     15  O   UNL     1       1.156  10.862  21.289  0.00  0.00    +0.000 OA
ATOM     16  O   UNL     1      -0.736   9.198  21.170  0.00  0.00    +0.000 OA
BRANCH  14  17
ATOM     17  C   UNL     1       1.394   8.818  19.702  0.00  0.00    +0.000 A 
ATOM     18  C   UNL     1       1.848   9.119  18.413  0.00  0.00    +0.000 A 
ATOM     19  C   UNL     1       2.638   8.198  17.724  0.00  0.00    +0.000 A 
ATOM     20  C   UNL     1       2.993   6.979  18.323  0.00  0.00    +0.000 A 
ATOM     21  C   UNL     1       2.597   6.720  19.643  0.00  0.00    +0.000 A 
ATOM     22  C   UNL     1       1.808   7.645  20.341  0.00  0.00    +0.000 A 
BRANCH  20  23
ATOM     23  C   UNL     1       3.760   6.004  17.497  0.00  0.00    +0.000 C 
ATOM     24  O   UNL     1       4.611   6.333  16.686  0.00  0.00    +0.000 OA
BRANCH  23  25
ATOM     25  O   UNL     1       3.355   4.733  17.747  0.00  0.00    +0.000 OA
ATOM     26  C   UNL     1       4.428   3.840  18.050  0.00  0.00    +0.000 C 
ENDBRANCH  23  25
ENDBRANCH  20  23
ENDBRANCH  14  17
ENDBRANCH   1  14
BRANCH   1  27
ATOM     27  C   UNL     1      -1.687  10.304  18.703  0.00  0.00    +0.000 C 
BRANCH  27  28
ATOM     28  C   UNL     1      -1.664  10.052  17.191  0.00  0.00    +0.000 C 
BRANCH  28  30
ATOM     29  C   UNL     1      -3.030  10.111  15.093  0.00  0.00    +0.000 C 
ATOM     30  C   UNL     1      -3.063   9.889  16.599  0.00  0.00    +0.000 C 
ENDBRANCH  28  30
ENDBRANCH  27  28
ENDBRANCH   1  27
TORSDOF 9
ENDMDL
MODEL 4
REMARK VINA RESULT:      -6.1      0.873      1.534
REMARK  Name = 
REMARK  12 active torsions:
REMARK  status: ('A' for Active; 'I' for Inactive)
REMARK    1  A    between atoms: C_1  and  C_2
REMARK    2  A    between atoms: C_2  and  C_3
REMARK    3  A    between atoms: C_3  and  C_4
REMARK    4  A    between atoms: C_4  and  N_5
REMARK    5  A    between atoms: N_5  and  C_6
REMARK    6  A    between atoms: N_5  and  S_18
REMARK    7  A    between atoms: C_14  and  C_15
REMARK    8  A    between atoms: C_15  and  C_16
REMARK    9  A    between atoms: S_18  and  C_21
REMARK   10  A    between atoms: C_24  and  C_25
REMARK   11  A    between atoms: C_25  and  O_27
REMARK   12  A    between atoms: O_27  and  C_28
REMARK                            x       y       z     vdW  Elec       q    Type
REMARK                         _______ _______ _______ _____ _____    ______ ____
ROOT
ATOM      1  N   UNL     1      -0.144  10.767  19.445  0.00  0.00    +0.000 N 
ENDROOT
BRANCH   1   2
ATOM      2  C   UNL     1       0.852   9.736  19.278  0.00  0.00    +0.000 A 
ATOM      3  S   UNL     1       1.882   9.642  17.935  0.00  0.00    +0.000 S 
ATOM      4  C   UNL     1       2.514   8.125  18.435  0.00  0.00    +0.000 A 
ATOM      5  C   UNL     1       3.413   7.312  17.709  0.00  0.00    +0.000 A 
ATOM      6  C   UNL     1       3.866   6.120  18.273  0.00  0.00    +0.000 A 
ATOM      7  C   UNL     1       3.454   5.749  19.540  0.00  0.00    +0.000 A 
ATOM      8  C   UNL     1       2.539   6.541  20.240  0.00  0.00    +0.000 A 
ATOM      9  C   UNL     1       2.022   7.750  19.693  0.00  0.00    +0.000 A 
ATOM     10  C   UNL     1       0.989   8.673  20.158  0.00  0.00    +0.000 A 
BRANCH  10  11
ATOM     11  C   UNL     1       0.117   8.513  21.334  0.00  0.00    +0.000 C 
ATOM     12  C   UNL     1       0.570   8.986  22.685  0.00  0.00    +0.000 C 
ATOM     13  O   UNL     1      -0.977   7.946  21.259  0.00  0.00    +0.000 OA
ENDBRANCH  10  11
ENDBRANCH   1   2
BRANCH   1  14
ATOM     14  S   UNL     1       0.382  12.081  20.412  0.00  0.00    +0.000 S 
ATOM     15  O   UNL     1       1.414  11.640  21.329  0.00  0.00    +0.000 OA
ATOM     16  O   UNL     1       0.588  13.237  19.561  0.00  0.00    +0.000 OA
BRANCH  14  17
ATOM     17  C   UNL     1      -1.068  12.405  21.405  0.00  0.00    +0.000 A 
ATOM     18  C   UNL     1      -1.936  13.430  21.016  0.00  0.00    +0.000 A 
ATOM     19  C   UNL     1      -3.034  13.750  21.817  0.00  0.00    +0.000 A 
ATOM     20  C   UNL     1      -3.280  13.038  23.001  0.00  0.00    +0.000 A 
ATOM     21  C   UNL     1      -2.447  11.962  23.343  0.00  0.00    +0.000 A 
ATOM     22  C   UNL     1      -1.347  11.633  22.538  0.00  0.00    +0.000 A 
BRANCH  20  23
ATOM     23  C   UNL     1      -4.414  13.492  23.855  0.00  0.00    +0.000 C 
ATOM     24  O   UNL     1      -4.561  14.648  24.217  0.00  0.00    +0.000 OA
BRANCH  23  25
ATOM     25  O   UNL     1      -5.215  12.450  24.191  0.00  0.00    +0.000 OA
ATOM     26  C   UNL     1      -6.606  12.708  23.988  0.00  0.00    +0.000 C 
ENDBRANCH  23  25
ENDBRANCH  20  23
ENDBRANCH  14  17
ENDBRANCH   1  14
BRANCH   1  27
ATOM     27  C   UNL     1      -1.059  11.113  18.321  0.00  0.00    +0.000 C 
BRANCH  27  28
ATOM     28  C   UNL     1      -2.364  10.310  18.389  0.00  0.00    +0.000 C 
BRANCH  28  30
ATOM     29  C   UNL     1      -3.848  10.796  16.432  0.00  0.00    +0.000 C 
ATOM     30  C   UNL     1      -2.831   9.826  17.018  0.00  0.00    +0.000 C 
ENDBRANCH  28  30
ENDBRANCH  27  28
ENDBRANCH   1  27
TORSDOF 9
ENDMDL
MODEL 5
REMARK VINA RESULT:      -6.0      7.320     10.124
REMARK  Name = 
REMARK  12 active torsions:
REMARK  status: ('A' for Active; 'I' for Inactive)
REMARK    1  A    between atoms: C_1  and  C_2
REMARK    2  A    between atoms: C_2  and  C_3
REMARK    3  A    between atoms: C_3  and  C_4
REMARK    4  A    between atoms: C_4  and  N_5
REMARK    5  A    between atoms: N_5  and  C_6
REMARK    6  A    between atoms: N_5  and  S_18
REMARK    7  A    between atoms: C_14  and  C_15
REMARK    8  A    between atoms: C_15  and  C_16
REMARK    9  A    between atoms: S_18  and  C_21
REMARK   10  A    between atoms: C_24  and  C_25
REMARK   11  A    between atoms: C_25  and  O_27
REMARK   12  A    between atoms: O_27  and  C_28
REMARK                            x       y       z     vdW  Elec       q    Type
REMARK                         _______ _______ _______ _____ _____    ______ ____
ROOT
ATOM      1  N   UNL     1       5.473   5.268  16.598  0.00  0.00    +0.000 N 
ENDROOT
BRANCH   1   2
ATOM      2  C   UNL     1       4.446   4.664  17.411  0.00  0.00    +0.000 A 
ATOM      3  S   UNL     1       4.194   2.990  17.503  0.00  0.00    +0.000 S 
ATOM      4  C   UNL     1       2.765   3.183  18.437  0.00  0.00    +0.000 A 
ATOM      5  C   UNL     1       1.879   2.158  18.834  0.00  0.00    +0.000 A 
ATOM      6  C   UNL     1       0.778   2.473  19.630  0.00  0.00    +0.000 A 
ATOM      7  C   UNL     1       0.569   3.777  20.042  0.00  0.00    +0.000 A 
ATOM      8  C   UNL     1       1.431   4.794  19.619  0.00  0.00    +0.000 A 
ATOM      9  C   UNL     1       2.550   4.526  18.779  0.00  0.00    +0.000 A 
ATOM     10  C   UNL     1       3.509   5.405  18.114  0.00  0.00    +0.000 A 
BRANCH  10  11
ATOM     11  C   UNL     1       3.490   6.877  18.080  0.00  0.00    +0.000 C 
ATOM     12  C   UNL     1       2.224   7.612  17.745  0.00  0.00    +0.000 C 
ATOM     13  O   UNL     1       4.510   7.544  18.270  0.00  0.00    +0.000 OA
ENDBRANCH  10  11
ENDBRANCH   1   2
BRANCH   1  14
ATOM     14  S   UNL     1       7.065   4.911  17.125  0.00  0.00    +0.000 S 
ATOM     15  O   UNL     1       7.021   4.031  18.277  0.00  0.00    +0.000 OA
ATOM     16  O   UNL     1       7.879   4.585  15.971  0.00  0.00    +0.000 OA
BRANCH  14  17
ATOM     17  C   UNL     1       7.613   6.502  17.730  0.00  0.00    +0.000 A 
ATOM     18  C   UNL     1       7.389   7.635  16.942  0.00  0.00    +0.000 A 
ATOM     19  C   UNL     1       7.875   8.876  17.360  0.00  0.00    +0.000 A 
ATOM     20  C   UNL     1       8.572   8.994  18.572  0.00  0.00    +0.000 A 
ATOM     21  C   UNL     1       8.725   7.865  19.391  0.00  0.00    +0.000 A 
ATOM     22  C   UNL     1       8.233   6.619  18.978  0.00  0.00    +0.000 A 
BRANCH  20  23
ATOM     23  C   UNL     1       9.142  10.329  18.911  0.00  0.00    +0.000 C 
ATOM     24  O   UNL     1       9.077  10.823  20.025  0.00  0.00    +0.000 OA
BRANCH  23  25
ATOM     25  O   UNL     1       9.696  10.911  17.818  0.00  0.00    +0.000 OA
ATOM     26  C   UNL     1      10.435  12.098  18.114  0.00  0.00    +0.000 C 
ENDBRANCH  23  25
ENDBRANCH  20  23
ENDBRANCH  14  17
ENDBRANCH   1  14
BRANCH   1  27
ATOM     27  C   UNL     1       5.288   5.389  15.125  0.00  0.00    +0.000 C 
BRANCH  27  28
ATOM     28  C   UNL     1       5.397   4.026  14.429  0.00  0.00    +0.000 C 
BRANCH  28  30
ATOM     29  C   UNL     1       5.680   3.044  12.145  0.00  0.00    +0.000 C 
ATOM     30  C   UNL     1       6.189   4.091  13.125  0.00  0.00    +0.000 C 
ENDBRANCH  28  30
ENDBRANCH  27  28
ENDBRANCH   1  27
TORSDOF 9
ENDMDL
MODEL 6
REMARK VINA RESULT:      -5.9      1.204      1.644
REMARK  Name = 
REMARK  12 active torsions:
REMARK  status: ('A' for Active; 'I' for Inactive)
REMARK    1  A    between atoms: C_1  and  C_2
REMARK    2  A    between atoms: C_2  and  C_3
REMARK    3  A    between atoms: C_3  and  C_4
REMARK    4  A    between atoms: C_4  and  N_5
REMARK    5  A    between atoms: N_5  and  C_6
REMARK    6  A    between atoms: N_5  and  S_18
REMARK    7  A    between atoms: C_14  and  C_15
REMARK    8  A    between atoms: C_15  and  C_16
REMARK    9  A    between atoms: S_18  and  C_21
REMARK   10  A    between atoms: C_24  and  C_25
REMARK   11  A    between atoms: C_25  and  O_27
REMARK   12  A    between atoms: O_27  and  C_28
REMARK                            x       y       z     vdW  Elec       q    Type
REMARK                         _______ _______ _______ _____ _____    ______ ____
ROOT
ATOM      1  N   UNL     1       0.149  11.610  19.839  0.00  0.00    +0.000 N 
ENDROOT
BRANCH   1   2
ATOM      2  C   UNL     1       0.924  10.439  19.508  0.00  0.00    +0.000 A 
ATOM      3  S   UNL     1       1.642  10.193  17.992  0.00  0.00    +0.000 S 
ATOM      4  C   UNL     1       2.123   8.594  18.398  0.00  0.00    +0.000 A 
ATOM      5  C   UNL     1       2.727   7.656  17.533  0.00  0.00    +0.000 A 
ATOM      6  C   UNL     1       3.098   6.407  18.028  0.00  0.00    +0.000 A 
ATOM      7  C   UNL     1       2.893   6.099  19.361  0.00  0.00    +0.000 A 
ATOM      8  C   UNL     1       2.265   7.019  20.206  0.00  0.00    +0.000 A 
ATOM      9  C   UNL     1       1.839   8.295  19.738  0.00  0.00    +0.000 A 
ATOM     10  C   UNL     1       1.070   9.364  20.372  0.00  0.00    +0.000 A 
BRANCH  10  11
ATOM     11  C   UNL     1       0.435   9.335  21.700  0.00  0.00    +0.000 C 
ATOM     12  C   UNL     1      -0.895   8.665  21.890  0.00  0.00    +0.000 C 
ATOM     13  O   UNL     1       0.941   9.898  22.674  0.00  0.00    +0.000 OA
ENDBRANCH  10  11
ENDBRANCH   1   2
BRANCH   1  14
ATOM     14  S   UNL     1       1.092  12.913  20.433  0.00  0.00    +0.000 S 
ATOM     15  O   UNL     1       2.294  12.408  21.066  0.00  0.00    +0.000 OA
ATOM     16  O   UNL     1       1.164  13.942  19.413  0.00  0.00    +0.000 OA
BRANCH  14  17
ATOM     17  C   UNL     1       0.057  13.541  21.748  0.00  0.00    +0.000 A 
ATOM     18  C   UNL     1       0.197  14.877  22.136  0.00  0.00    +0.000 A 
ATOM     19  C   UNL     1      -0.548  15.368  23.210  0.00  0.00    +0.000 A 
ATOM     20  C   UNL     1      -1.446  14.533  23.892  0.00  0.00    +0.000 A 
ATOM     21  C   UNL     1      -1.635  13.216  23.446  0.00  0.00    +0.000 A 
ATOM     22  C   UNL     1      -0.895  12.721  22.364  0.00  0.00    +0.000 A 
BRANCH  20  23
ATOM     23  C   UNL     1      -2.139  15.095  25.086  0.00  0.00    +0.000 C 
ATOM     24  O   UNL     1      -1.553  15.449  26.097  0.00  0.00    +0.000 OA
BRANCH  23  25
ATOM     25  O   UNL     1      -3.482  15.119  24.900  0.00  0.00    +0.000 OA
ATOM     26  C   UNL     1      -4.038  16.436  24.910  0.00  0.00    +0.000 C 
ENDBRANCH  23  25
ENDBRANCH  20  23
ENDBRANCH  14  17
ENDBRANCH   1  14
BRANCH   1  27
ATOM     27  C   UNL     1      -1.030  11.985  19.010  0.00  0.00    +0.000 C 
BRANCH  27  28
ATOM     28  C   UNL     1      -1.945  10.781  18.752  0.00  0.00    +0.000 C 
BRANCH  28  30
ATOM     29  C   UNL     1      -2.383   9.875  16.460  0.00  0.00    +0.000 C 
ATOM     30  C   UNL     1      -2.776  10.934  17.480  0.00  0.00    +0.000 C 
ENDBRANCH  28  30
ENDBRANCH  27  28
ENDBRANCH   1  27
TORSDOF 9
ENDMDL
MODEL 7
REMARK VINA RESULT:      -5.9      2.595      7.849
REMARK  Name = 
REMARK  12 active torsions:
REMARK  status: ('A' for Active; 'I' for Inactive)
REMARK    1  A    between atoms: C_1  and  C_2
REMARK    2  A    between atoms: C_2  and  C_3
REMARK    3  A    between atoms: C_3  and  C_4
REMARK    4  A    between atoms: C_4  and  N_5
REMARK    5  A    between atoms: N_5  and  C_6
REMARK    6  A    between atoms: N_5  and  S_18
REMARK    7  A    between atoms: C_14  and  C_15
REMARK    8  A    between atoms: C_15  and  C_16
REMARK    9  A    between atoms: S_18  and  C_21
REMARK   10  A    between atoms: C_24  and  C_25
REMARK   11  A    between atoms: C_25  and  O_27
REMARK   12  A    between atoms: O_27  and  C_28
REMARK                            x       y       z     vdW  Elec       q    Type
REMARK                         _______ _______ _______ _____ _____    ______ ____
ROOT
ATOM      1  N   UNL     1      -0.534  11.320  19.326  0.00  0.00    +0.000 N 
ENDROOT
BRANCH   1   2
ATOM      2  C   UNL     1      -0.293  12.742  19.285  0.00  0.00    +0.000 A 
ATOM      3  S   UNL     1       0.972  13.448  18.405  0.00  0.00    +0.000 S 
ATOM      4  C   UNL     1       0.653  15.006  19.056  0.00  0.00    +0.000 A 
ATOM      5  C   UNL     1       1.421  16.173  18.851  0.00  0.00    +0.000 A 
ATOM      6  C   UNL     1       1.004  17.376  19.420  0.00  0.00    +0.000 A 
ATOM      7  C   UNL     1      -0.163  17.427  20.160  0.00  0.00    +0.000 A 
ATOM      8  C   UNL     1      -0.902  16.262  20.387  0.00  0.00    +0.000 A 
ATOM      9  C   UNL     1      -0.500  15.005  19.855  0.00  0.00    +0.000 A 
ATOM     10  C   UNL     1      -1.017  13.651  20.041  0.00  0.00    +0.000 A 
BRANCH  10  11
ATOM     11  C   UNL     1      -2.092  13.227  20.955  0.00  0.00    +0.000 C 
ATOM     12  C   UNL     1      -3.527  13.288  20.518  0.00  0.00    +0.000 C 
ATOM     13  O   UNL     1      -1.856  12.864  22.110  0.00  0.00    +0.000 OA
ENDBRANCH  10  11
ENDBRANCH   1   2
BRANCH   1  14
ATOM     14  S   UNL     1       0.260  10.526  20.622  0.00  0.00    +0.000 S 
ATOM     15  O   UNL     1       1.260  11.401  21.202  0.00  0.00    +0.000 OA
ATOM     16  O   UNL     1      -0.735   9.879  21.455  0.00  0.00    +0.000 OA
BRANCH  14  17
ATOM     17  C   UNL     1       1.155   9.238  19.765  0.00  0.00    +0.000 A 
ATOM     18  C   UNL     1       1.524   8.089  20.472  0.00  0.00    +0.000 A 
ATOM     19  C   UNL     1       2.288   7.104  19.844  0.00  0.00    +0.000 A 
ATOM     20  C   UNL     1       2.674   7.253  18.503  0.00  0.00    +0.000 A 
ATOM     21  C   UNL     1       2.235   8.373  17.780  0.00  0.00    +0.000 A 
ATOM     22  C   UNL     1       1.462   9.361  18.406  0.00  0.00    +0.000 A 
BRANCH  20  23
ATOM     23  C   UNL     1       3.566   6.210  17.923  0.00  0.00    +0.000 C 
ATOM     24  O   UNL     1       4.765   6.368  17.757  0.00  0.00    +0.000 OA
BRANCH  23  25
ATOM     25  O   UNL     1       2.859   5.103  17.581  0.00  0.00    +0.000 OA
ATOM     26  C   UNL     1       3.674   3.953  17.347  0.00  0.00    +0.000 C 
ENDBRANCH  23  25
ENDBRANCH  20  23
ENDBRANCH  14  17
ENDBRANCH   1  14
BRANCH   1  27
ATOM     27  C   UNL     1      -1.869  10.776  18.950  0.00  0.00    +0.000 C 
BRANCH  27  28
ATOM     28  C   UNL     1      -2.252  11.162  17.516  0.00  0.00    +0.000 C 
BRANCH  28  30
ATOM     29  C   UNL     1      -2.954  10.302  15.272  0.00  0.00    +0.000 C 
ATOM     30  C   UNL     1      -2.194   9.980  16.551  0.00  0.00    +0.000 C 
ENDBRANCH  28  30
ENDBRANCH  27  28
ENDBRANCH   1  27
TORSDOF 9
ENDMDL
MODEL 8
REMARK VINA RESULT:      -5.9      2.638      4.154
REMARK  Name = 
REMARK  12 active torsions:
REMARK  status: ('A' for Active; 'I' for Inactive)
REMARK    1  A    between atoms: C_1  and  C_2
REMARK    2  A    between atoms: C_2  and  C_3
REMARK    3  A    between atoms: C_3  and  C_4
REMARK    4  A    between atoms: C_4  and  N_5
REMARK    5  A    between atoms: N_5  and  C_6
REMARK    6  A    between atoms: N_5  and  S_18
REMARK    7  A    between atoms: C_14  and  C_15
REMARK    8  A    between atoms: C_15  and  C_16
REMARK    9  A    between atoms: S_18  and  C_21
REMARK   10  A    between atoms: C_24  and  C_25
REMARK   11  A    between atoms: C_25  and  O_27
REMARK   12  A    between atoms: O_27  and  C_28
REMARK                            x       y       z     vdW  Elec       q    Type
REMARK                         _______ _______ _______ _____ _____    ______ ____
ROOT
ATOM      1  N   UNL     1       0.090  11.258  19.876  0.00  0.00    +0.000 N 
ENDROOT
BRANCH   1   2
ATOM      2  C   UNL     1       0.927  10.128  19.554  0.00  0.00    +0.000 A 
ATOM      3  S   UNL     1       1.862  10.031  18.143  0.00  0.00    +0.000 S 
ATOM      4  C   UNL     1       2.308   8.403  18.463  0.00  0.00    +0.000 A 
ATOM      5  C   UNL     1       3.049   7.555  17.612  0.00  0.00    +0.000 A 
ATOM      6  C   UNL     1       3.367   6.265  18.036  0.00  0.00    +0.000 A 
ATOM      7  C   UNL     1       2.975   5.830  19.289  0.00  0.00    +0.000 A 
ATOM      8  C   UNL     1       2.214   6.662  20.116  0.00  0.00    +0.000 A 
ATOM      9  C   UNL     1       1.838   7.975  19.713  0.00  0.00    +0.000 A 
ATOM     10  C   UNL     1       0.965   8.975  20.324  0.00  0.00    +0.000 A 
BRANCH  10  11
ATOM     11  C   UNL     1       0.143   8.817  21.536  0.00  0.00    +0.000 C 
ATOM     12  C   UNL     1       0.633   9.332  22.858  0.00  0.00    +0.000 C 
ATOM     13  O   UNL     1      -0.936   8.218  21.514  0.00  0.00    +0.000 OA
ENDBRANCH  10  11
ENDBRANCH   1   2
BRANCH   1  14
ATOM     14  S   UNL     1       0.816  12.361  20.969  0.00  0.00    +0.000 S 
ATOM     15  O   UNL     1      -0.110  12.682  22.037  0.00  0.00    +0.000 OA
ATOM     16  O   UNL     1       2.163  11.912  21.263  0.00  0.00    +0.000 OA
BRANCH  14  17
ATOM     17  C   UNL     1       0.954  13.832  19.964  0.00  0.00    +0.000 A 
ATOM     18  C   UNL     1       2.079  13.988  19.148  0.00  0.00    +0.000 A 
ATOM     19  C   UNL     1       2.244  15.162  18.411  0.00  0.00    +0.000 A 
ATOM     20  C   UNL     1       1.279  16.179  18.473  0.00  0.00    +0.000 A 
ATOM     21  C   UNL     1       0.118  15.982  19.234  0.00  0.00    +0.000 A 
ATOM     22  C   UNL     1      -0.055  14.801  19.970  0.00  0.00    +0.000 A 
BRANCH  20  23
ATOM     23  C   UNL     1       1.563  17.443  17.735  0.00  0.00    +0.000 C 
ATOM     24  O   UNL     1       2.600  17.645  17.123  0.00  0.00    +0.000 OA
BRANCH  23  25
ATOM     25  O   UNL     1       0.542  18.325  17.873  0.00  0.00    +0.000 OA
ATOM     26  C   UNL     1      -0.124  18.627  16.645  0.00  0.00    +0.000 C 
ENDBRANCH  23  25
ENDBRANCH  20  23
ENDBRANCH  14  17
ENDBRANCH   1  14
BRANCH   1  27
ATOM     27  C   UNL     1      -0.789  11.859  18.834  0.00  0.00    +0.000 C 
BRANCH  27  28
ATOM     28  C   UNL     1      -2.260  11.482  19.052  0.00  0.00    +0.000 C 
BRANCH  28  30
ATOM     29  C   UNL     1      -3.256   9.732  17.565  0.00  0.00    +0.000 C 
ATOM     30  C   UNL     1      -3.003  11.223  17.743  0.00  0.00    +0.000 C 
ENDBRANCH  28  30
ENDBRANCH  27  28
ENDBRANCH   1  27
TORSDOF 9
ENDMDL
MODEL 9
REMARK VINA RESULT:      -5.9      2.669      7.852
REMARK  Name = 
REMARK  12 active torsions:
REMARK  status: ('A' for Active; 'I' for Inactive)
REMARK    1  A    between atoms: C_1  and  C_2
REMARK    2  A    between atoms: C_2  and  C_3
REMARK    3  A    between atoms: C_3  and  C_4
REMARK    4  A    between atoms: C_4  and  N_5
REMARK    5  A    between atoms: N_5  and  C_6
REMARK    6  A    between atoms: N_5  and  S_18
REMARK    7  A    between atoms: C_14  and  C_15
REMARK    8  A    between atoms: C_15  and  C_16
REMARK    9  A    between atoms: S_18  and  C_21
REMARK   10  A    between atoms: C_24  and  C_25
REMARK   11  A    between atoms: C_25  and  O_27
REMARK   12  A    between atoms: O_27  and  C_28
REMARK                            x       y       z     vdW  Elec       q    Type
REMARK                         _______ _______ _______ _____ _____    ______ ____
ROOT
ATOM      1  N   UNL     1      -0.124  10.672  19.554  0.00  0.00    +0.000 N 
ENDROOT
BRANCH   1   2
ATOM      2  C   UNL     1       0.239  12.054  19.751  0.00  0.00    +0.000 A 
ATOM      3  S   UNL     1       1.595  12.774  19.032  0.00  0.00    +0.000 S 
ATOM      4  C   UNL     1       1.383  14.229  19.920  0.00  0.00    +0.000 A 
ATOM      5  C   UNL     1       2.256  15.339  19.929  0.00  0.00    +0.000 A 
ATOM      6  C   UNL     1       1.920  16.469  20.674  0.00  0.00    +0.000 A 
ATOM      7  C   UNL     1       0.732  16.507  21.381  0.00  0.00    +0.000 A 
ATOM      8  C   UNL     1      -0.113  15.394  21.395  0.00  0.00    +0.000 A 
ATOM      9  C   UNL     1       0.203  14.206  20.676  0.00  0.00    +0.000 A 
ATOM     10  C   UNL     1      -0.436  12.892  20.626  0.00  0.00    +0.000 A 
BRANCH  10  11
ATOM     11  C   UNL     1      -1.580  12.428  21.429  0.00  0.00    +0.000 C 
ATOM     12  C   UNL     1      -1.364  11.878  22.810  0.00  0.00    +0.000 C 
ATOM     13  O   UNL     1      -2.729  12.426  20.981  0.00  0.00    +0.000 OA
ENDBRANCH  10  11
ENDBRANCH   1   2
BRANCH   1  14
ATOM     14  S   UNL     1       0.543   9.612  20.725  0.00  0.00    +0.000 S 
ATOM     15  O   UNL     1       1.478  10.330  21.568  0.00  0.00    +0.000 OA
ATOM     16  O   UNL     1      -0.525   8.821  21.305  0.00  0.00    +0.000 OA
BRANCH  14  17
ATOM     17  C   UNL     1       1.522   8.516  19.707  0.00  0.00    +0.000 A 
ATOM     18  C   UNL     1       1.937   7.292  20.241  0.00  0.00    +0.000 A 
ATOM     19  C   UNL     1       2.764   6.454  19.492  0.00  0.00    +0.000 A 
ATOM     20  C   UNL     1       3.170   6.826  18.201  0.00  0.00    +0.000 A 
ATOM     21  C   UNL     1       2.687   8.021  17.646  0.00  0.00    +0.000 A 
ATOM     22  C   UNL     1       1.850   8.862  18.392  0.00  0.00    +0.000 A 
BRANCH  20  23
ATOM     23  C   UNL     1       4.127   5.929  17.494  0.00  0.00    +0.000 C 
ATOM     24  O   UNL     1       4.736   6.256  16.488  0.00  0.00    +0.000 OA
BRANCH  23  25
ATOM     25  O   UNL     1       4.192   4.716  18.098  0.00  0.00    +0.000 OA
ATOM     26  C   UNL     1       3.831   3.630  17.242  0.00  0.00    +0.000 C 
ENDBRANCH  23  25
ENDBRANCH  20  23
ENDBRANCH  14  17
ENDBRANCH   1  14
BRANCH   1  27
ATOM     27  C   UNL     1      -1.484  10.318  19.057  0.00  0.00    +0.000 C 
BRANCH  27  28
ATOM     28  C   UNL     1      -1.769  10.957  17.692  0.00  0.00    +0.000 C 
BRANCH  28  30
ATOM     29  C   UNL     1      -2.892  10.667  15.473  0.00  0.00    +0.000 C 
ATOM     30  C   UNL     1      -2.267   9.948  16.660  0.00  0.00    +0.000 C 
ENDBRANCH  28  30
ENDBRANCH  27  28
ENDBRANCH   1  27
TORSDOF 9
ENDMDL
