MODEL 1
REMARK VINA RESULT:      -7.0      0.000      0.000
REMARK  Name = 
REMARK  6 active torsions:
REMARK  status: ('A' for Active; 'I' for Inactive)
REMARK    1  A    between atoms: C_2  and  C_3
REMARK    2  A    between atoms: C_4  and  C_5
REMARK    3  A    between atoms: N_12  and  C_13
REMARK    4  A    between atoms: C_13  and  C_14
REMARK    5  A    between atoms: C_14  and  C_15
REMARK    6  A    between atoms: C_15  and  N_16
REMARK                            x       y       z     vdW  Elec       q    Type
REMARK                         _______ _______ _______ _____ _____    ______ ____
ROOT
ATOM      1  O   UNL     1       7.272   7.486  16.732  0.00  0.00    +0.000 OA
ATOM      2  C   UNL     1       7.841   7.871  17.743  0.00  0.00    +0.000 C 
ATOM      3  N   UNL     1       8.158   7.068  18.813  0.00  0.00    +0.000 N 
ATOM      4  H   UNL     1       8.577   7.481  19.636  0.00  0.00    +0.000 HD
ENDROOT
BRANCH   2   5
ATOM      5  C   UNL     1       8.290   9.276  17.925  0.00  0.00    +0.000 C 
ATOM      6  C   UNL     1       9.076   9.618  18.956  0.00  0.00    +0.000 C 
BRANCH   6   7
ATOM      7  C   UNL     1       9.529  10.999  19.127  0.00  0.00    +0.000 A 
ATOM      8  C   UNL     1       9.409  11.923  18.080  0.00  0.00    +0.000 A 
ATOM      9  C   UNL     1       9.908  13.221  18.226  0.00  0.00    +0.000 A 
ATOM     10  C   UNL     1      10.523  13.600  19.417  0.00  0.00    +0.000 A 
ATOM     11 CL   UNL     1      11.166  15.187  19.586  0.00  0.00    +0.000 Cl
ATOM     12  C   UNL     1      10.628  12.695  20.472  0.00  0.00    +0.000 A 
ATOM     13  C   UNL     1      10.131  11.396  20.327  0.00  0.00    +0.000 A 
ENDBRANCH   6   7
ENDBRANCH   2   5
BRANCH   3  14
ATOM     14  C   UNL     1       7.812   5.658  18.870  0.00  0.00    +0.000 C 
BRANCH  14  15
ATOM     15  C   UNL     1       6.373   5.397  19.314  0.00  0.00    +0.000 C 
BRANCH  15  16
ATOM     16  C   UNL     1       5.639   4.497  18.326  0.00  0.00    +0.000 C 
BRANCH  16  17
ATOM     17  N   UNL     1       4.459   3.895  18.904  0.00  0.00    +0.000 N 
ATOM     18  C   UNL     1       4.423   2.774  19.683  0.00  0.00    +0.000 A 
ATOM     19  C   UNL     1       3.085   2.558  19.923  0.00  0.00    +0.000 A 
ATOM     20  N   UNL     1       2.319   3.524  19.321  0.00  0.00    +0.000 NA
ATOM     21  C   UNL     1       3.175   4.320  18.720  0.00  0.00    +0.000 A 
ENDBRANCH  16  17
ENDBRANCH  15  16
ENDBRANCH  14  15
ENDBRANCH   3  14
TORSDOF 6
ENDMDL
MODEL 2
REMARK VINA RESULT:      -7.0      1.373      2.088
REMARK  Name = 
REMARK  6 active torsions:
REMARK  status: ('A' for Active; 'I' for Inactive)
REMARK    1  A    between atoms: C_2  and  C_3
REMARK    2  A    between atoms: C_4  and  C_5
REMARK    3  A    between atoms: N_12  and  C_13
REMARK    4  A    between atoms: C_13  and  C_14
REMARK    5  A    between atoms: C_14  and  C_15
REMARK    6  A    between atoms: C_15  and  N_16
REMARK                            x       y       z     vdW  Elec       q    Type
REMARK                         _______ _______ _______ _____ _____    ______ ____
ROOT
ATOM      1  O   UNL     1       7.559   6.638  16.379  0.00  0.00    +0.000 OA
ATOM      2  C   UNL     1       7.527   6.822  17.587  0.00  0.00    +0.000 C 
ATOM      3  N   UNL     1       6.885   5.999  18.483  0.00  0.00    +0.000 N 
ATOM      4  H   UNL     1       6.858   6.257  19.461  0.00  0.00    +0.000 HD
ENDROOT
BRANCH   2   5
ATOM      5  C   UNL     1       8.215   7.963  18.244  0.00  0.00    +0.000 C 
ATOM      6  C   UNL     1       8.113   9.205  17.749  0.00  0.00    +0.000 C 
BRANCH   6   7
ATOM      7  C   UNL     1       8.780  10.330  18.406  0.00  0.00    +0.000 A 
ATOM      8  C   UNL     1       9.380  10.168  19.662  0.00  0.00    +0.000 A 
ATOM      9  C   UNL     1       9.954  11.264  20.315  0.00  0.00    +0.000 A 
ATOM     10  C   UNL     1       9.931  12.520  19.715  0.00  0.00    +0.000 A 
ATOM     11 CL   UNL     1      10.607  13.875  20.532  0.00  0.00    +0.000 Cl
ATOM     12  C   UNL     1       9.355  12.689  18.457  0.00  0.00    +0.000 A 
ATOM     13  C   UNL     1       8.781  11.594  17.803  0.00  0.00    +0.000 A 
ENDBRANCH   6   7
ENDBRANCH   2   5
BRANCH   3  14
ATOM     14  C   UNL     1       6.134   4.824  18.077  0.00  0.00    +0.000 C 
BRANCH  14  15
ATOM     15  C   UNL     1       4.771   5.149  17.466  0.00  0.00    +0.000 C 
BRANCH  15  16
ATOM     16  C   UNL     1       4.156   3.926  16.794  0.00  0.00    +0.000 C 
BRANCH  16  17
ATOM     17  N   UNL     1       3.043   3.389  17.543  0.00  0.00    +0.000 N 
ATOM     18  C   UNL     1       1.925   4.072  17.929  0.00  0.00    +0.000 A 
ATOM     19  C   UNL     1       1.202   3.165  18.672  0.00  0.00    +0.000 A 
ATOM     20  N   UNL     1       1.849   1.958  18.732  0.00  0.00    +0.000 NA
ATOM     21  C   UNL     1       2.952   2.120  18.036  0.00  0.00    +0.000 A 
ENDBRANCH  16  17
ENDBRANCH  15  16
ENDBRANCH  14  15
ENDBRANCH   3  14
TORSDOF 6
ENDMDL
MODEL 3
REMARK VINA RESULT:      -6.9      1.593      2.086
REMARK  Name = 
REMARK  6 active torsions:
REMARK  status: ('A' for Active; 'I' for Inactive)
REMARK    1  A    between atoms: C_2  and  C_3
REMARK    2  A    between atoms: C_4  and  C_5
REMARK    3  A    between atoms: N_12  and  C_13
REMARK    4  A    between atoms: C_13  and  C_14
REMARK    5  A    between atoms: C_14  and  C_15
REMARK    6  A    between atoms: C_15  and  N_16
REMARK                            x       y       z     vdW  Elec       q    Type
REMARK                         _______ _______ _______ _____ _____    ______ ____
ROOT
ATOM      1  O   UNL     1       7.758   5.843  18.786  0.00  0.00    +0.000 OA
ATOM      2  C   UNL     1       7.701   6.905  18.184  0.00  0.00    +0.000 C 
ATOM      3  N   UNL     1       6.924   7.129  17.071  0.00  0.00    +0.000 N 
ATOM      4  H   UNL     1       6.981   8.022  16.598  0.00  0.00    +0.000 HD
ENDROOT
BRANCH   2   5
ATOM      5  C   UNL     1       8.460   8.111  18.607  0.00  0.00    +0.000 C 
ATOM      6  C   UNL     1       8.234   9.301  18.035  0.00  0.00    +0.000 C 
BRANCH   6   7
ATOM      7  C   UNL     1       8.972  10.491  18.463  0.00  0.00    +0.000 A 
ATOM      8  C   UNL     1       9.787  10.451  19.602  0.00  0.00    +0.000 A 
ATOM      9  C   UNL     1      10.433  11.609  20.046  0.00  0.00    +0.000 A 
ATOM     10  C   UNL     1      10.270  12.806  19.352  0.00  0.00    +0.000 A 
ATOM     11 CL   UNL     1      11.039  14.239  19.916  0.00  0.00    +0.000 Cl
ATOM     12  C   UNL     1       9.479  12.852  18.205  0.00  0.00    +0.000 A 
ATOM     13  C   UNL     1       8.831  11.694  17.761  0.00  0.00    +0.000 A 
ENDBRANCH   6   7
ENDBRANCH   2   5
BRANCH   3  14
ATOM     14  C   UNL     1       6.101   6.098  16.464  0.00  0.00    +0.000 C 
BRANCH  14  15
ATOM     15  C   UNL     1       4.600   6.340  16.621  0.00  0.00    +0.000 C 
BRANCH  15  16
ATOM     16  C   UNL     1       4.099   5.871  17.983  0.00  0.00    +0.000 C 
BRANCH  16  17
ATOM     17  N   UNL     1       3.337   4.646  17.896  0.00  0.00    +0.000 N 
ATOM     18  C   UNL     1       3.845   3.379  17.858  0.00  0.00    +0.000 A 
ATOM     19  C   UNL     1       2.744   2.566  17.700  0.00  0.00    +0.000 A 
ATOM     20  N   UNL     1       1.592   3.309  17.654  0.00  0.00    +0.000 NA
ATOM     21  C   UNL     1       1.979   4.558  17.782  0.00  0.00    +0.000 A 
ENDBRANCH  16  17
ENDBRANCH  15  16
ENDBRANCH  14  15
ENDBRANCH   3  14
TORSDOF 6
ENDMDL
MODEL 4
REMARK VINA RESULT:      -6.9      1.097      1.513
REMARK  Name = 
REMARK  6 active torsions:
REMARK  status: ('A' for Active; 'I' for Inactive)
REMARK    1  A    between atoms: C_2  and  C_3
REMARK    2  A    between atoms: C_4  and  C_5
REMARK    3  A    between atoms: N_12  and  C_13
REMARK    4  A    between atoms: C_13  and  C_14
REMARK    5  A    between atoms: C_14  and  C_15
REMARK    6  A    between atoms: C_15  and  N_16
REMARK                            x       y       z     vdW  Elec       q    Type
REMARK                         _______ _______ _______ _____ _____    ______ ____
ROOT
ATOM      1  O   UNL     1       7.594   6.741  16.603  0.00  0.00    +0.000 OA
ATOM      2  C   UNL     1       7.665   6.932  17.808  0.00  0.00    +0.000 C 
ATOM      3  N   UNL     1       7.137   6.093  18.762  0.00  0.00    +0.000 N 
ATOM      4  H   UNL     1       7.189   6.356  19.737  0.00  0.00    +0.000 HD
ENDROOT
BRANCH   2   5
ATOM      5  C   UNL     1       8.369   8.101  18.397  0.00  0.00    +0.000 C 
ATOM      6  C   UNL     1       8.178   9.334  17.908  0.00  0.00    +0.000 C 
BRANCH   6   7
ATOM      7  C   UNL     1       8.862  10.487  18.498  0.00  0.00    +0.000 A 
ATOM      8  C   UNL     1       8.929  11.705  17.808  0.00  0.00    +0.000 A 
ATOM      9  C   UNL     1       9.643  12.781  18.345  0.00  0.00    +0.000 A 
ATOM     10  C   UNL     1      10.288  12.643  19.572  0.00  0.00    +0.000 A 
ATOM     11 CL   UNL     1      11.194  13.954  20.219  0.00  0.00    +0.000 Cl
ATOM     12  C   UNL     1      10.210  11.442  20.277  0.00  0.00    +0.000 A 
ATOM     13  C   UNL     1       9.496  10.366  19.740  0.00  0.00    +0.000 A 
ENDBRANCH   6   7
ENDBRANCH   2   5
BRANCH   3  14
ATOM     14  C   UNL     1       6.395   4.889  18.429  0.00  0.00    +0.000 C 
BRANCH  14  15
ATOM     15  C   UNL     1       5.068   4.761  19.176  0.00  0.00    +0.000 C 
BRANCH  15  16
ATOM     16  C   UNL     1       3.908   4.519  18.217  0.00  0.00    +0.000 C 
BRANCH  16  17
ATOM     17  N   UNL     1       2.868   3.707  18.806  0.00  0.00    +0.000 N 
ATOM     18  C   UNL     1       1.735   3.267  18.182  0.00  0.00    +0.000 A 
ATOM     19  C   UNL     1       1.031   2.606  19.163  0.00  0.00    +0.000 A 
ATOM     20  N   UNL     1       1.714   2.625  20.351  0.00  0.00    +0.000 NA
ATOM     21  C   UNL     1       2.821   3.290  20.105  0.00  0.00    +0.000 A 
ENDBRANCH  16  17
ENDBRANCH  15  16
ENDBRANCH  14  15
ENDBRANCH   3  14
TORSDOF 6
ENDMDL
MODEL 5
REMARK VINA RESULT:      -6.9      1.069      1.255
REMARK  Name = 
REMARK  6 active torsions:
REMARK  status: ('A' for Active; 'I' for Inactive)
REMARK    1  A    between atoms: C_2  and  C_3
REMARK    2  A    between atoms: C_4  and  C_5
REMARK    3  A    between atoms: N_12  and  C_13
REMARK    4  A    between atoms: C_13  and  C_14
REMARK    5  A    between atoms: C_14  and  C_15
REMARK    6  A    between atoms: C_15  and  N_16
REMARK                            x       y       z     vdW  Elec       q    Type
REMARK                         _______ _______ _______ _____ _____    ______ ____
ROOT
ATOM      1  O   UNL     1       6.882   7.384  16.763  0.00  0.00    +0.000 OA
ATOM      2  C   UNL     1       7.537   7.320  17.793  0.00  0.00    +0.000 C 
ATOM      3  N   UNL     1       7.607   6.212  18.604  0.00  0.00    +0.000 N 
ATOM      4  H   UNL     1       8.126   6.264  19.471  0.00  0.00    +0.000 HD
ENDROOT
BRANCH   2   5
ATOM      5  C   UNL     1       8.374   8.446  18.284  0.00  0.00    +0.000 C 
ATOM      6  C   UNL     1       8.133   9.704  17.890  0.00  0.00    +0.000 C 
BRANCH   6   7
ATOM      7  C   UNL     1       8.949  10.814  18.385  0.00  0.00    +0.000 A 
ATOM      8  C   UNL     1       8.877  12.076  17.781  0.00  0.00    +0.000 A 
ATOM      9  C   UNL     1       9.711  13.113  18.214  0.00  0.00    +0.000 A 
ATOM     10  C   UNL     1      10.614  12.891  19.251  0.00  0.00    +0.000 A 
ATOM     11 CL   UNL     1      11.663  14.155  19.762  0.00  0.00    +0.000 Cl
ATOM     12  C   UNL     1      10.679  11.645  19.873  0.00  0.00    +0.000 A 
ATOM     13  C   UNL     1       9.846  10.608  19.440  0.00  0.00    +0.000 A 
ENDBRANCH   6   7
ENDBRANCH   2   5
BRANCH   3  14
ATOM     14  C   UNL     1       6.867   4.991  18.336  0.00  0.00    +0.000 C 
BRANCH  14  15
ATOM     15  C   UNL     1       5.442   5.003  18.890  0.00  0.00    +0.000 C 
BRANCH  15  16
ATOM     16  C   UNL     1       4.785   3.632  18.769  0.00  0.00    +0.000 C 
BRANCH  16  17
ATOM     17  N   UNL     1       3.348   3.721  18.651  0.00  0.00    +0.000 N 
ATOM     18  C   UNL     1       2.435   3.332  19.590  0.00  0.00    +0.000 A 
ATOM     19  C   UNL     1       1.211   3.541  18.994  0.00  0.00    +0.000 A 
ATOM     20  N   UNL     1       1.364   4.056  17.733  0.00  0.00    +0.000 NA
ATOM     21  C   UNL     1       2.662   4.161  17.555  0.00  0.00    +0.000 A 
ENDBRANCH  16  17
ENDBRANCH  15  16
ENDBRANCH  14  15
ENDBRANCH   3  14
TORSDOF 6
ENDMDL
MODEL 6
REMARK VINA RESULT:      -6.9      1.485      1.570
REMARK  Name = 
REMARK  6 active torsions:
REMARK  status: ('A' for Active; 'I' for Inactive)
REMARK    1  A    between atoms: C_2  and  C_3
REMARK    2  A    between atoms: C_4  and  C_5
REMARK    3  A    between atoms: N_12  and  C_13
REMARK    4  A    between atoms: C_13  and  C_14
REMARK    5  A    between atoms: C_14  and  C_15
REMARK    6  A    between atoms: C_15  and  N_16
REMARK                            x       y       z     vdW  Elec       q    Type
REMARK                         _______ _______ _______ _____ _____    ______ ____
ROOT
ATOM      1  O   UNL     1       7.932   6.688  18.732  0.00  0.00    +0.000 OA
ATOM      2  C   UNL     1       7.701   7.438  17.794  0.00  0.00    +0.000 C 
ATOM      3  N   UNL     1       7.024   7.072  16.654  0.00  0.00    +0.000 N 
ATOM      4  H   UNL     1       6.928   7.740  15.899  0.00  0.00    +0.000 HD
ENDROOT
BRANCH   2   5
ATOM      5  C   UNL     1       8.109   8.867  17.788  0.00  0.00    +0.000 C 
ATOM      6  C   UNL     1       8.884   9.364  18.762  0.00  0.00    +0.000 C 
BRANCH   6   7
ATOM      7  C   UNL     1       9.297  10.769  18.747  0.00  0.00    +0.000 A 
ATOM      8  C   UNL     1       8.715  11.672  17.848  0.00  0.00    +0.000 A 
ATOM      9  C   UNL     1       9.164  12.996  17.790  0.00  0.00    +0.000 A 
ATOM     10  C   UNL     1      10.189  13.419  18.632  0.00  0.00    +0.000 A 
ATOM     11 CL   UNL     1      10.764  15.038  18.540  0.00  0.00    +0.000 Cl
ATOM     12  C   UNL     1      10.761  12.534  19.545  0.00  0.00    +0.000 A 
ATOM     13  C   UNL     1      10.314  11.210  19.602  0.00  0.00    +0.000 A 
ENDBRANCH   6   7
ENDBRANCH   2   5
BRANCH   3  14
ATOM     14  C   UNL     1       6.535   5.724  16.425  0.00  0.00    +0.000 C 
BRANCH  14  15
ATOM     15  C   UNL     1       5.032   5.570  16.653  0.00  0.00    +0.000 C 
BRANCH  15  16
ATOM     16  C   UNL     1       4.569   4.143  16.380  0.00  0.00    +0.000 C 
BRANCH  16  17
ATOM     17  N   UNL     1       3.595   3.688  17.345  0.00  0.00    +0.000 N 
ATOM     18  C   UNL     1       3.621   2.501  18.021  0.00  0.00    +0.000 A 
ATOM     19  C   UNL     1       2.457   2.493  18.756  0.00  0.00    +0.000 A 
ATOM     20  N   UNL     1       1.742   3.644  18.550  0.00  0.00    +0.000 NA
ATOM     21  C   UNL     1       2.455   4.349  17.700  0.00  0.00    +0.000 A 
ENDBRANCH  16  17
ENDBRANCH  15  16
ENDBRANCH  14  15
ENDBRANCH   3  14
TORSDOF 6
ENDMDL
MODEL 7
REMARK VINA RESULT:      -6.9      1.659      2.395
REMARK  Name = 
REMARK  6 active torsions:
REMARK  status: ('A' for Active; 'I' for Inactive)
REMARK    1  A    between atoms: C_2  and  C_3
REMARK    2  A    between atoms: C_4  and  C_5
REMARK    3  A    between atoms: N_12  and  C_13
REMARK    4  A    between atoms: C_13  and  C_14
REMARK    5  A    between atoms: C_14  and  C_15
REMARK    6  A    between atoms: C_15  and  N_16
REMARK                            x       y       z     vdW  Elec       q    Type
REMARK                         _______ _______ _______ _____ _____    ______ ____
ROOT
ATOM      1  O   UNL     1       6.893   5.921  18.668  0.00  0.00    +0.000 OA
ATOM      2  C   UNL     1       7.520   6.641  17.906  0.00  0.00    +0.000 C 
ATOM      3  N   UNL     1       7.570   6.475  16.541  0.00  0.00    +0.000 N 
ATOM      4  H   UNL     1       8.162   7.083  15.989  0.00  0.00    +0.000 HD
ENDROOT
BRANCH   2   5
ATOM      5  C   UNL     1       8.295   7.821  18.370  0.00  0.00    +0.000 C 
ATOM      6  C   UNL     1       8.008   9.052  17.922  0.00  0.00    +0.000 C 
BRANCH   6   7
ATOM      7  C   UNL     1       8.763  10.215  18.391  0.00  0.00    +0.000 A 
ATOM      8  C   UNL     1       9.461  10.168  19.605  0.00  0.00    +0.000 A 
ATOM      9  C   UNL     1      10.122  11.305  20.082  0.00  0.00    +0.000 A 
ATOM     10  C   UNL     1      10.090  12.487  19.345  0.00  0.00    +0.000 A 
ATOM     11 CL   UNL     1      10.875  13.896  19.946  0.00  0.00    +0.000 Cl
ATOM     12  C   UNL     1       9.416  12.538  18.126  0.00  0.00    +0.000 A 
ATOM     13  C   UNL     1       8.754  11.402  17.649  0.00  0.00    +0.000 A 
ENDBRANCH   6   7
ENDBRANCH   2   5
BRANCH   3  14
ATOM     14  C   UNL     1       6.899   5.385  15.855  0.00  0.00    +0.000 C 
BRANCH  14  15
ATOM     15  C   UNL     1       5.388   5.575  15.732  0.00  0.00    +0.000 C 
BRANCH  15  16
ATOM     16  C   UNL     1       4.626   4.445  16.415  0.00  0.00    +0.000 C 
BRANCH  16  17
ATOM     17  N   UNL     1       4.021   4.863  17.659  0.00  0.00    +0.000 N 
ATOM     18  C   UNL     1       3.463   6.083  17.916  0.00  0.00    +0.000 A 
ATOM     19  C   UNL     1       3.096   6.027  19.242  0.00  0.00    +0.000 A 
ATOM     20  N   UNL     1       3.406   4.805  19.782  0.00  0.00    +0.000 NA
ATOM     21  C   UNL     1       3.956   4.122  18.804  0.00  0.00    +0.000 A 
ENDBRANCH  16  17
ENDBRANCH  15  16
ENDBRANCH  14  15
ENDBRANCH   3  14
TORSDOF 6
ENDMDL
MODEL 8
REMARK VINA RESULT:      -6.9      1.276      1.419
REMARK  Name = 
REMARK  6 active torsions:
REMARK  status: ('A' for Active; 'I' for Inactive)
REMARK    1  A    between atoms: C_2  and  C_3
REMARK    2  A    between atoms: C_4  and  C_5
REMARK    3  A    between atoms: N_12  and  C_13
REMARK    4  A    between atoms: C_13  and  C_14
REMARK    5  A    between atoms: C_14  and  C_15
REMARK    6  A    between atoms: C_15  and  N_16
REMARK                            x       y       z     vdW  Elec       q    Type
REMARK                         _______ _______ _______ _____ _____    ______ ____
ROOT
ATOM      1  O   UNL     1       8.086   6.710  18.614  0.00  0.00    +0.000 OA
ATOM      2  C   UNL     1       7.736   7.620  17.877  0.00  0.00    +0.000 C 
ATOM      3  N   UNL     1       6.761   7.509  16.913  0.00  0.00    +0.000 N 
ATOM      4  H   UNL     1       6.573   8.296  16.305  0.00  0.00    +0.000 HD
ENDROOT
BRANCH   2   5
ATOM      5  C   UNL     1       8.315   8.986  17.956  0.00  0.00    +0.000 C 
ATOM      6  C   UNL     1       8.993   9.384  19.041  0.00  0.00    +0.000 C 
BRANCH   6   7
ATOM      7  C   UNL     1       9.575  10.725  19.111  0.00  0.00    +0.000 A 
ATOM      8  C   UNL     1       9.892  11.426  17.940  0.00  0.00    +0.000 A 
ATOM      9  C   UNL     1      10.513  12.677  18.014  0.00  0.00    +0.000 A 
ATOM     10  C   UNL     1      10.813  13.231  19.257  0.00  0.00    +0.000 A 
ATOM     11 CL   UNL     1      11.606  14.756  19.349  0.00  0.00    +0.000 Cl
ATOM     12  C   UNL     1      10.483  12.552  20.428  0.00  0.00    +0.000 A 
ATOM     13  C   UNL     1       9.863  11.300  20.355  0.00  0.00    +0.000 A 
ENDBRANCH   6   7
ENDBRANCH   2   5
BRANCH   3  14
ATOM     14  C   UNL     1       6.057   6.268  16.642  0.00  0.00    +0.000 C 
BRANCH  14  15
ATOM     15  C   UNL     1       4.925   5.977  17.626  0.00  0.00    +0.000 C 
BRANCH  15  16
ATOM     16  C   UNL     1       5.173   4.686  18.398  0.00  0.00    +0.000 C 
BRANCH  16  17
ATOM     17  N   UNL     1       3.993   3.856  18.474  0.00  0.00    +0.000 N 
ATOM     18  C   UNL     1       2.943   4.021  19.331  0.00  0.00    +0.000 A 
ATOM     19  C   UNL     1       2.113   2.952  19.075  0.00  0.00    +0.000 A 
ATOM     20  N   UNL     1       2.629   2.160  18.083  0.00  0.00    +0.000 NA
ATOM     21  C   UNL     1       3.759   2.732  17.734  0.00  0.00    +0.000 A 
ENDBRANCH  16  17
ENDBRANCH  15  16
ENDBRANCH  14  15
ENDBRANCH   3  14
TORSDOF 6
ENDMDL
MODEL 9
REMARK VINA RESULT:      -6.8      1.012      1.640
REMARK  Name = 
REMARK  6 active torsions:
REMARK  status: ('A' for Active; 'I' for Inactive)
REMARK    1  A    between atoms: C_2  and  C_3
REMARK    2  A    between atoms: C_4  and  C_5
REMARK    3  A    between atoms: N_12  and  C_13
REMARK    4  A    between atoms: C_13  and  C_14
REMARK    5  A    between atoms: C_14  and  C_15
REMARK    6  A    between atoms: C_15  and  N_16
REMARK                            x       y       z     vdW  Elec       q    Type
REMARK                         _______ _______ _______ _____ _____    ______ ____
ROOT
ATOM      1  O   UNL     1       7.128   7.382  16.709  0.00  0.00    +0.000 OA
ATOM      2  C   UNL     1       7.686   7.272  17.791  0.00  0.00    +0.000 C 
ATOM      3  N   UNL     1       7.773   6.101  18.507  0.00  0.00    +0.000 N 
ATOM      4  H   UNL     1       8.202   6.110  19.424  0.00  0.00    +0.000 HD
ENDROOT
BRANCH   2   5
ATOM      5  C   UNL     1       8.373   8.407  18.460  0.00  0.00    +0.000 C 
ATOM      6  C   UNL     1       8.435   9.613  17.877  0.00  0.00    +0.000 C 
BRANCH   6   7
ATOM      7  C   UNL     1       9.100  10.734  18.543  0.00  0.00    +0.000 A 
ATOM      8  C   UNL     1       9.589  10.597  19.849  0.00  0.00    +0.000 A 
ATOM      9  C   UNL     1      10.160  11.693  20.506  0.00  0.00    +0.000 A 
ATOM     10  C   UNL     1      10.246  12.923  19.858  0.00  0.00    +0.000 A 
ATOM     11 CL   UNL     1      10.917  14.280  20.676  0.00  0.00    +0.000 Cl
ATOM     12  C   UNL     1       9.781  13.064  18.551  0.00  0.00    +0.000 A 
ATOM     13  C   UNL     1       9.209  11.970  17.895  0.00  0.00    +0.000 A 
ENDBRANCH   6   7
ENDBRANCH   2   5
BRANCH   3  14
ATOM     14  C   UNL     1       7.169   4.857  18.061  0.00  0.00    +0.000 C 
BRANCH  14  15
ATOM     15  C   UNL     1       5.777   4.609  18.640  0.00  0.00    +0.000 C 
BRANCH  15  16
ATOM     16  C   UNL     1       4.830   4.038  17.590  0.00  0.00    +0.000 C 
BRANCH  16  17
ATOM     17  N   UNL     1       3.500   3.821  18.110  0.00  0.00    +0.000 N 
ATOM     18  C   UNL     1       2.463   3.222  17.453  0.00  0.00    +0.000 A 
ATOM     19  C   UNL     1       1.398   3.317  18.321  0.00  0.00    +0.000 A 
ATOM     20  N   UNL     1       1.770   3.944  19.482  0.00  0.00    +0.000 NA
ATOM     21  C   UNL     1       3.044   4.230  19.330  0.00  0.00    +0.000 A 
ENDBRANCH  16  17
ENDBRANCH  15  16
ENDBRANCH  14  15
ENDBRANCH   3  14
TORSDOF 6
ENDMDL
