MODEL 1
REMARK VINA RESULT:      -7.4      0.000      0.000
REMARK  Name = 
REMARK  6 active torsions:
REMARK  status: ('A' for Active; 'I' for Inactive)
REMARK    1  A    between atoms: C_1  and  C_2
REMARK    2  A    between atoms: C_3  and  N_4
REMARK    3  A    between atoms: N_4  and  C_5
REMARK    4  A    between atoms: N_4  and  S_9
REMARK    5  A    between atoms: C_5  and  C_6
REMARK    6  A    between atoms: S_9  and  C_12
REMARK                            x       y       z     vdW  Elec       q    Type
REMARK                         _______ _______ _______ _____ _____    ______ ____
ROOT
ATOM      1  N   UNL     1       3.151   4.799  18.847  0.00  0.00    +0.000 N 
ENDROOT
BRANCH   1   4
ATOM      2  C   UNL     1       3.574   7.289  16.722  0.00  0.00    +0.000 C 
ATOM      3  C   UNL     1       2.851   7.235  18.036  0.00  0.00    +0.000 A 
ATOM      4  C   UNL     1       2.709   6.169  18.926  0.00  0.00    +0.000 A 
ATOM      5  S   UNL     1       1.856   6.622  20.333  0.00  0.00    +0.000 S 
ATOM      6  C   UNL     1       1.615   8.227  19.801  0.00  0.00    +0.000 A 
ATOM      7  C   UNL     1       0.926   9.240  20.497  0.00  0.00    +0.000 A 
ATOM      8  C   UNL     1       0.813  10.507  19.923  0.00  0.00    +0.000 A 
ATOM      9  C   UNL     1       1.379  10.765  18.685  0.00  0.00    +0.000 A 
ATOM     10  C   UNL     1       2.069   9.754  18.000  0.00  0.00    +0.000 A 
ATOM     11  C   UNL     1       2.193   8.444  18.554  0.00  0.00    +0.000 A 
ENDBRANCH   1   4
BRANCH   1  12
ATOM     12  S   UNL     1       4.832   4.540  19.027  0.00  0.00    +0.000 S 
ATOM     13  O   UNL     1       5.388   5.672  19.748  0.00  0.00    +0.000 OA
ATOM     14  O   UNL     1       5.051   3.190  19.511  0.00  0.00    +0.000 OA
BRANCH  12  15
ATOM     15  C   UNL     1       5.581   4.600  17.389  0.00  0.00    +0.000 A 
ATOM     16  C   UNL     1       5.146   3.844  16.294  0.00  0.00    +0.000 A 
ATOM     17  C   UNL     1       5.870   3.905  15.086  0.00  0.00    +0.000 A 
ATOM     18  C   UNL     1       7.003   4.715  14.972  0.00  0.00    +0.000 A 
ATOM     19  C   UNL     1       7.420   5.484  16.053  0.00  0.00    +0.000 A 
ATOM     20  C   UNL     1       6.710   5.426  17.258  0.00  0.00    +0.000 A 
ENDBRANCH  12  15
ENDBRANCH   1  12
BRANCH   1  21
ATOM     21  C   UNL     1       2.448   3.745  18.079  0.00  0.00    +0.000 C 
BRANCH  21  22
ATOM     22  C   UNL     1       1.225   3.150  18.732  0.00  0.00    +0.000 C 
ATOM     23  C   UNL     1       1.427   1.831  19.452  0.00  0.00    +0.000 C 
ATOM     24  C   UNL     1       1.013   3.045  20.228  0.00  0.00    +0.000 C 
ENDBRANCH  21  22
ENDBRANCH   1  21
TORSDOF 5
ENDMDL
MODEL 2
REMARK VINA RESULT:      -7.1      0.976      1.360
REMARK  Name = 
REMARK  6 active torsions:
REMARK  status: ('A' for Active; 'I' for Inactive)
REMARK    1  A    between atoms: C_1  and  C_2
REMARK    2  A    between atoms: C_3  and  N_4
REMARK    3  A    between atoms: N_4  and  C_5
REMARK    4  A    between atoms: N_4  and  S_9
REMARK    5  A    between atoms: C_5  and  C_6
REMARK    6  A    between atoms: S_9  and  C_12
REMARK                            x       y       z     vdW  Elec       q    Type
REMARK                         _______ _______ _______ _____ _____    ______ ____
ROOT
ATOM      1  N   UNL     1       2.763   5.088  18.884  0.00  0.00    +0.000 N 
ENDROOT
BRANCH   1   4
ATOM      2  C   UNL     1       2.655   8.040  17.413  0.00  0.00    +0.000 C 
ATOM      3  C   UNL     1       2.207   7.610  18.779  0.00  0.00    +0.000 A 
ATOM      4  C   UNL     1       2.287   6.354  19.383  0.00  0.00    +0.000 A 
ATOM      5  S   UNL     1       1.708   6.380  20.988  0.00  0.00    +0.000 S 
ATOM      6  C   UNL     1       1.299   8.037  20.929  0.00  0.00    +0.000 A 
ATOM      7  C   UNL     1       0.718   8.789  21.968  0.00  0.00    +0.000 A 
ATOM      8  C   UNL     1       0.440  10.140  21.762  0.00  0.00    +0.000 A 
ATOM      9  C   UNL     1       0.741  10.736  20.547  0.00  0.00    +0.000 A 
ATOM     10  C   UNL     1       1.325   9.983  19.518  0.00  0.00    +0.000 A 
ATOM     11  C   UNL     1       1.612   8.596  19.693  0.00  0.00    +0.000 A 
ENDBRANCH   1   4
BRANCH   1  12
ATOM     12  S   UNL     1       4.456   4.847  18.939  0.00  0.00    +0.000 S 
ATOM     13  O   UNL     1       5.049   5.970  19.644  0.00  0.00    +0.000 OA
ATOM     14  O   UNL     1       4.723   3.490  19.378  0.00  0.00    +0.000 OA
BRANCH  12  15
ATOM     15  C   UNL     1       5.087   4.950  17.255  0.00  0.00    +0.000 A 
ATOM     16  C   UNL     1       5.122   6.126  16.496  0.00  0.00    +0.000 A 
ATOM     17  C   UNL     1       5.552   6.065  15.155  0.00  0.00    +0.000 A 
ATOM     18  C   UNL     1       5.947   4.852  14.585  0.00  0.00    +0.000 A 
ATOM     19  C   UNL     1       5.934   3.688  15.347  0.00  0.00    +0.000 A 
ATOM     20  C   UNL     1       5.504   3.738  16.678  0.00  0.00    +0.000 A 
ENDBRANCH  12  15
ENDBRANCH   1  12
BRANCH   1  21
ATOM     21  C   UNL     1       2.064   4.290  17.849  0.00  0.00    +0.000 C 
BRANCH  21  22
ATOM     22  C   UNL     1       1.050   3.293  18.351  0.00  0.00    +0.000 C 
ATOM     23  C   UNL     1       1.595   1.950  18.797  0.00  0.00    +0.000 C 
ATOM     24  C   UNL     1       0.922   2.846  19.793  0.00  0.00    +0.000 C 
ENDBRANCH  21  22
ENDBRANCH   1  21
TORSDOF 5
ENDMDL
MODEL 3
REMARK VINA RESULT:      -7.1      0.876      1.629
REMARK  Name = 
REMARK  6 active torsions:
REMARK  status: ('A' for Active; 'I' for Inactive)
REMARK    1  A    between atoms: C_1  and  C_2
REMARK    2  A    between atoms: C_3  and  N_4
REMARK    3  A    between atoms: N_4  and  C_5
REMARK    4  A    between atoms: N_4  and  S_9
REMARK    5  A    between atoms: C_5  and  C_6
REMARK    6  A    between atoms: S_9  and  C_12
REMARK                            x       y       z     vdW  Elec       q    Type
REMARK                         _______ _______ _______ _____ _____    ______ ____
ROOT
ATOM      1  N   UNL     1       3.083   4.822  18.668  0.00  0.00    +0.000 N 
ENDROOT
BRANCH   1   4
ATOM      2  C   UNL     1       1.441   6.183  21.186  0.00  0.00    +0.000 C 
ATOM      3  C   UNL     1       1.931   6.781  19.900  0.00  0.00    +0.000 A 
ATOM      4  C   UNL     1       2.605   6.172  18.840  0.00  0.00    +0.000 A 
ATOM      5  S   UNL     1       2.885   7.258  17.554  0.00  0.00    +0.000 S 
ATOM      6  C   UNL     1       2.161   8.575  18.364  0.00  0.00    +0.000 A 
ATOM      7  C   UNL     1       2.037   9.889  17.873  0.00  0.00    +0.000 A 
ATOM      8  C   UNL     1       1.419  10.858  18.663  0.00  0.00    +0.000 A 
ATOM      9  C   UNL     1       0.924  10.527  19.914  0.00  0.00    +0.000 A 
ATOM     10  C   UNL     1       1.044   9.215  20.395  0.00  0.00    +0.000 A 
ATOM     11  C   UNL     1       1.682   8.203  19.617  0.00  0.00    +0.000 A 
ENDBRANCH   1   4
BRANCH   1  12
ATOM     12  S   UNL     1       4.760   4.583  18.903  0.00  0.00    +0.000 S 
ATOM     13  O   UNL     1       5.277   5.715  19.652  0.00  0.00    +0.000 OA
ATOM     14  O   UNL     1       4.979   3.231  19.383  0.00  0.00    +0.000 OA
BRANCH  12  15
ATOM     15  C   UNL     1       5.563   4.666  17.292  0.00  0.00    +0.000 A 
ATOM     16  C   UNL     1       5.294   3.794  16.230  0.00  0.00    +0.000 A 
ATOM     17  C   UNL     1       6.054   3.898  15.047  0.00  0.00    +0.000 A 
ATOM     18  C   UNL     1       7.058   4.862  14.925  0.00  0.00    +0.000 A 
ATOM     19  C   UNL     1       7.308   5.743  15.971  0.00  0.00    +0.000 A 
ATOM     20  C   UNL     1       6.562   5.644  17.152  0.00  0.00    +0.000 A 
ENDBRANCH  12  15
ENDBRANCH   1  12
BRANCH   1  21
ATOM     21  C   UNL     1       2.439   3.823  17.783  0.00  0.00    +0.000 C 
BRANCH  21  22
ATOM     22  C   UNL     1       1.272   3.070  18.369  0.00  0.00    +0.000 C 
ATOM     23  C   UNL     1       1.613   1.837  19.185  0.00  0.00    +0.000 C 
ATOM     24  C   UNL     1       0.944   3.004  19.847  0.00  0.00    +0.000 C 
ENDBRANCH  21  22
ENDBRANCH   1  21
TORSDOF 5
ENDMDL
MODEL 4
REMARK VINA RESULT:      -7.0      3.275      5.327
REMARK  Name = 
REMARK  6 active torsions:
REMARK  status: ('A' for Active; 'I' for Inactive)
REMARK    1  A    between atoms: C_1  and  C_2
REMARK    2  A    between atoms: C_3  and  N_4
REMARK    3  A    between atoms: N_4  and  C_5
REMARK    4  A    between atoms: N_4  and  S_9
REMARK    5  A    between atoms: C_5  and  C_6
REMARK    6  A    between atoms: S_9  and  C_12
REMARK                            x       y       z     vdW  Elec       q    Type
REMARK                         _______ _______ _______ _____ _____    ______ ____
ROOT
ATOM      1  N   UNL     1       4.614   4.940  16.677  0.00  0.00    +0.000 N 
ENDROOT
BRANCH   1   4
ATOM      2  C   UNL     1       1.358   4.923  17.216  0.00  0.00    +0.000 C 
ATOM      3  C   UNL     1       2.490   4.379  18.038  0.00  0.00    +0.000 A 
ATOM      4  C   UNL     1       3.863   4.422  17.793  0.00  0.00    +0.000 A 
ATOM      5  S   UNL     1       4.760   3.728  19.068  0.00  0.00    +0.000 S 
ATOM      6  C   UNL     1       3.368   3.315  19.968  0.00  0.00    +0.000 A 
ATOM      7  C   UNL     1       3.346   2.655  21.212  0.00  0.00    +0.000 A 
ATOM      8  C   UNL     1       2.120   2.386  21.821  0.00  0.00    +0.000 A 
ATOM      9  C   UNL     1       0.938   2.771  21.209  0.00  0.00    +0.000 A 
ATOM     10  C   UNL     1       0.967   3.433  19.973  0.00  0.00    +0.000 A 
ATOM     11  C   UNL     1       2.203   3.714  19.318  0.00  0.00    +0.000 A 
ENDBRANCH   1   4
BRANCH   1  12
ATOM     12  S   UNL     1       4.806   6.639  16.625  0.00  0.00    +0.000 S 
ATOM     13  O   UNL     1       4.976   7.031  15.236  0.00  0.00    +0.000 OA
ATOM     14  O   UNL     1       3.770   7.254  17.433  0.00  0.00    +0.000 OA
BRANCH  12  15
ATOM     15  C   UNL     1       6.364   7.046  17.432  0.00  0.00    +0.000 A 
ATOM     16  C   UNL     1       7.073   6.172  18.266  0.00  0.00    +0.000 A 
ATOM     17  C   UNL     1       8.234   6.636  18.917  0.00  0.00    +0.000 A 
ATOM     18  C   UNL     1       8.684   7.946  18.731  0.00  0.00    +0.000 A 
ATOM     19  C   UNL     1       7.993   8.805  17.884  0.00  0.00    +0.000 A 
ATOM     20  C   UNL     1       6.835   8.356  17.237  0.00  0.00    +0.000 A 
ENDBRANCH  12  15
ENDBRANCH   1  12
BRANCH   1  21
ATOM     21  C   UNL     1       4.703   4.272  15.357  0.00  0.00    +0.000 C 
BRANCH  21  22
ATOM     22  C   UNL     1       6.085   3.870  14.907  0.00  0.00    +0.000 C 
ATOM     23  C   UNL     1       6.288   3.736  13.411  0.00  0.00    +0.000 C 
ATOM     24  C   UNL     1       7.050   4.778  14.173  0.00  0.00    +0.000 C 
ENDBRANCH  21  22
ENDBRANCH   1  21
TORSDOF 5
ENDMDL
MODEL 5
REMARK VINA RESULT:      -6.9      1.926      4.656
REMARK  Name = 
REMARK  6 active torsions:
REMARK  status: ('A' for Active; 'I' for Inactive)
REMARK    1  A    between atoms: C_1  and  C_2
REMARK    2  A    between atoms: C_3  and  N_4
REMARK    3  A    between atoms: N_4  and  C_5
REMARK    4  A    between atoms: N_4  and  S_9
REMARK    5  A    between atoms: C_5  and  C_6
REMARK    6  A    between atoms: S_9  and  C_12
REMARK                            x       y       z     vdW  Elec       q    Type
REMARK                         _______ _______ _______ _____ _____    ______ ____
ROOT
ATOM      1  N   UNL     1       3.421   6.020  18.130  0.00  0.00    +0.000 N 
ENDROOT
BRANCH   1   4
ATOM      2  C   UNL     1       2.093   6.333  21.135  0.00  0.00    +0.000 C 
ATOM      3  C   UNL     1       2.074   7.260  19.955  0.00  0.00    +0.000 A 
ATOM      4  C   UNL     1       2.628   7.088  18.685  0.00  0.00    +0.000 A 
ATOM      5  S   UNL     1       2.273   8.400  17.652  0.00  0.00    +0.000 S 
ATOM      6  C   UNL     1       1.409   9.253  18.853  0.00  0.00    +0.000 A 
ATOM      7  C   UNL     1       0.800  10.514  18.704  0.00  0.00    +0.000 A 
ATOM      8  C   UNL     1       0.130  11.082  19.787  0.00  0.00    +0.000 A 
ATOM      9  C   UNL     1       0.060  10.407  20.995  0.00  0.00    +0.000 A 
ATOM     10  C   UNL     1       0.663   9.149  21.136  0.00  0.00    +0.000 A 
ATOM     11  C   UNL     1       1.365   8.545  20.051  0.00  0.00    +0.000 A 
ENDBRANCH   1   4
BRANCH   1  12
ATOM     12  S   UNL     1       2.580   4.582  17.744  0.00  0.00    +0.000 S 
ATOM     13  O   UNL     1       1.248   4.945  17.293  0.00  0.00    +0.000 OA
ATOM     14  O   UNL     1       3.428   3.750  16.911  0.00  0.00    +0.000 OA
BRANCH  12  15
ATOM     15  C   UNL     1       2.334   3.656  19.270  0.00  0.00    +0.000 A 
ATOM     16  C   UNL     1       1.091   3.468  19.888  0.00  0.00    +0.000 A 
ATOM     17  C   UNL     1       1.036   2.804  21.130  0.00  0.00    +0.000 A 
ATOM     18  C   UNL     1       2.200   2.328  21.739  0.00  0.00    +0.000 A 
ATOM     19  C   UNL     1       3.431   2.495  21.113  0.00  0.00    +0.000 A 
ATOM     20  C   UNL     1       3.496   3.157  19.882  0.00  0.00    +0.000 A 
ENDBRANCH  12  15
ENDBRANCH   1  12
BRANCH   1  21
ATOM     21  C   UNL     1       4.864   5.830  18.408  0.00  0.00    +0.000 C 
BRANCH  21  22
ATOM     22  C   UNL     1       5.818   6.392  17.384  0.00  0.00    +0.000 C 
ATOM     23  C   UNL     1       7.252   6.584  17.840  0.00  0.00    +0.000 C 
ATOM     24  C   UNL     1       6.946   5.614  16.739  0.00  0.00    +0.000 C 
ENDBRANCH  21  22
ENDBRANCH   1  21
TORSDOF 5
ENDMDL
MODEL 6
REMARK VINA RESULT:      -6.7      1.948      4.762
REMARK  Name = 
REMARK  6 active torsions:
REMARK  status: ('A' for Active; 'I' for Inactive)
REMARK    1  A    between atoms: C_1  and  C_2
REMARK    2  A    between atoms: C_3  and  N_4
REMARK    3  A    between atoms: N_4  and  C_5
REMARK    4  A    between atoms: N_4  and  S_9
REMARK    5  A    between atoms: C_5  and  C_6
REMARK    6  A    between atoms: S_9  and  C_12
REMARK                            x       y       z     vdW  Elec       q    Type
REMARK                         _______ _______ _______ _____ _____    ______ ____
ROOT
ATOM      1  N   UNL     1       3.404   6.085  18.055  0.00  0.00    +0.000 N 
ENDROOT
BRANCH   1   4
ATOM      2  C   UNL     1       2.137   6.408  21.085  0.00  0.00    +0.000 C 
ATOM      3  C   UNL     1       2.089   7.328  19.900  0.00  0.00    +0.000 A 
ATOM      4  C   UNL     1       2.618   7.153  18.620  0.00  0.00    +0.000 A 
ATOM      5  S   UNL     1       2.235   8.457  17.588  0.00  0.00    +0.000 S 
ATOM      6  C   UNL     1       1.393   9.312  18.803  0.00  0.00    +0.000 A 
ATOM      7  C   UNL     1       0.775  10.570  18.659  0.00  0.00    +0.000 A 
ATOM      8  C   UNL     1       0.124  11.141  19.753  0.00  0.00    +0.000 A 
ATOM      9  C   UNL     1       0.082  10.472  20.966  0.00  0.00    +0.000 A 
ATOM     10  C   UNL     1       0.694   9.217  21.101  0.00  0.00    +0.000 A 
ATOM     11  C   UNL     1       1.377   8.611  20.005  0.00  0.00    +0.000 A 
ENDBRANCH   1   4
BRANCH   1  12
ATOM     12  S   UNL     1       2.580   4.612  17.773  0.00  0.00    +0.000 S 
ATOM     13  O   UNL     1       1.214   4.925  17.393  0.00  0.00    +0.000 OA
ATOM     14  O   UNL     1       3.399   3.772  16.918  0.00  0.00    +0.000 OA
BRANCH  12  15
ATOM     15  C   UNL     1       2.455   3.738  19.343  0.00  0.00    +0.000 A 
ATOM     16  C   UNL     1       3.542   3.173  20.021  0.00  0.00    +0.000 A 
ATOM     17  C   UNL     1       3.307   2.431  21.197  0.00  0.00    +0.000 A 
ATOM     18  C   UNL     1       2.011   2.264  21.690  0.00  0.00    +0.000 A 
ATOM     19  C   UNL     1       0.934   2.845  21.029  0.00  0.00    +0.000 A 
ATOM     20  C   UNL     1       1.157   3.580  19.858  0.00  0.00    +0.000 A 
ENDBRANCH  12  15
ENDBRANCH   1  12
BRANCH   1  21
ATOM     21  C   UNL     1       4.867   5.942  18.248  0.00  0.00    +0.000 C 
BRANCH  21  22
ATOM     22  C   UNL     1       5.736   6.387  17.099  0.00  0.00    +0.000 C 
ATOM     23  C   UNL     1       6.870   7.332  17.445  0.00  0.00    +0.000 C 
ATOM     24  C   UNL     1       7.178   5.971  16.898  0.00  0.00    +0.000 C 
ENDBRANCH  21  22
ENDBRANCH   1  21
TORSDOF 5
ENDMDL
MODEL 7
REMARK VINA RESULT:      -6.7      4.234      8.777
REMARK  Name = 
REMARK  6 active torsions:
REMARK  status: ('A' for Active; 'I' for Inactive)
REMARK    1  A    between atoms: C_1  and  C_2
REMARK    2  A    between atoms: C_3  and  N_4
REMARK    3  A    between atoms: N_4  and  C_5
REMARK    4  A    between atoms: N_4  and  S_9
REMARK    5  A    between atoms: C_5  and  C_6
REMARK    6  A    between atoms: S_9  and  C_12
REMARK                            x       y       z     vdW  Elec       q    Type
REMARK                         _______ _______ _______ _____ _____    ______ ____
ROOT
ATOM      1  N   UNL     1      -0.023  11.029  19.221  0.00  0.00    +0.000 N 
ENDROOT
BRANCH   1   4
ATOM      2  C   UNL     1       0.171   8.577  21.421  0.00  0.00    +0.000 C 
ATOM      3  C   UNL     1       0.878   8.777  20.113  0.00  0.00    +0.000 A 
ATOM      4  C   UNL     1       0.791   9.839  19.212  0.00  0.00    +0.000 A 
ATOM      5  S   UNL     1       1.855   9.645  17.892  0.00  0.00    +0.000 S 
ATOM      6  C   UNL     1       2.438   8.137  18.443  0.00  0.00    +0.000 A 
ATOM      7  C   UNL     1       3.396   7.329  17.802  0.00  0.00    +0.000 A 
ATOM      8  C   UNL     1       3.767   6.116  18.382  0.00  0.00    +0.000 A 
ATOM      9  C   UNL     1       3.202   5.716  19.583  0.00  0.00    +0.000 A 
ATOM     10  C   UNL     1       2.253   6.528  20.220  0.00  0.00    +0.000 A 
ATOM     11  C   UNL     1       1.843   7.769  19.647  0.00  0.00    +0.000 A 
ENDBRANCH   1   4
BRANCH   1  12
ATOM     12  S   UNL     1       0.420  12.234  20.351  0.00  0.00    +0.000 S 
ATOM     13  O   UNL     1       1.526  11.725  21.144  0.00  0.00    +0.000 OA
ATOM     14  O   UNL     1       0.545  13.504  19.660  0.00  0.00    +0.000 OA
BRANCH  12  15
ATOM     15  C   UNL     1      -0.946  12.440  21.507  0.00  0.00    +0.000 A 
ATOM     16  C   UNL     1      -1.199  11.588  22.590  0.00  0.00    +0.000 A 
ATOM     17  C   UNL     1      -2.354  11.795  23.371  0.00  0.00    +0.000 A 
ATOM     18  C   UNL     1      -3.235  12.840  23.082  0.00  0.00    +0.000 A 
ATOM     19  C   UNL     1      -2.970  13.700  22.021  0.00  0.00    +0.000 A 
ATOM     20  C   UNL     1      -1.828  13.499  21.237  0.00  0.00    +0.000 A 
ENDBRANCH  12  15
ENDBRANCH   1  12
BRANCH   1  21
ATOM     21  C   UNL     1      -1.449  11.060  18.820  0.00  0.00    +0.000 C 
BRANCH  21  22
ATOM     22  C   UNL     1      -1.840  10.146  17.686  0.00  0.00    +0.000 C 
ATOM     23  C   UNL     1      -3.322   9.857  17.541  0.00  0.00    +0.000 C 
ATOM     24  C   UNL     1      -2.597  10.584  16.449  0.00  0.00    +0.000 C 
ENDBRANCH  21  22
ENDBRANCH   1  21
TORSDOF 5
ENDMDL
MODEL 8
REMARK VINA RESULT:      -6.6      1.861      4.530
REMARK  Name = 
REMARK  6 active torsions:
REMARK  status: ('A' for Active; 'I' for Inactive)
REMARK    1  A    between atoms: C_1  and  C_2
REMARK    2  A    between atoms: C_3  and  N_4
REMARK    3  A    between atoms: N_4  and  C_5
REMARK    4  A    between atoms: N_4  and  S_9
REMARK    5  A    between atoms: C_5  and  C_6
REMARK    6  A    between atoms: S_9  and  C_12
REMARK                            x       y       z     vdW  Elec       q    Type
REMARK                         _______ _______ _______ _____ _____    ______ ____
ROOT
ATOM      1  N   UNL     1       3.312   6.136  18.288  0.00  0.00    +0.000 N 
ENDROOT
BRANCH   1   4
ATOM      2  C   UNL     1       2.187   9.094  17.352  0.00  0.00    +0.000 C 
ATOM      3  C   UNL     1       2.025   8.349  18.644  0.00  0.00    +0.000 A 
ATOM      4  C   UNL     1       2.534   7.104  19.019  0.00  0.00    +0.000 A 
ATOM      5  S   UNL     1       2.136   6.713  20.631  0.00  0.00    +0.000 S 
ATOM      6  C   UNL     1       1.249   8.151  20.877  0.00  0.00    +0.000 A 
ATOM      7  C   UNL     1       0.577   8.524  22.057  0.00  0.00    +0.000 A 
ATOM      8  C   UNL     1      -0.108   9.738  22.099  0.00  0.00    +0.000 A 
ATOM      9  C   UNL     1      -0.120  10.571  20.991  0.00  0.00    +0.000 A 
ATOM     10  C   UNL     1       0.556  10.197  19.821  0.00  0.00    +0.000 A 
ATOM     11  C   UNL     1       1.258   8.957  19.742  0.00  0.00    +0.000 A 
ENDBRANCH   1   4
BRANCH   1  12
ATOM     12  S   UNL     1       2.506   4.688  17.865  0.00  0.00    +0.000 S 
ATOM     13  O   UNL     1       1.161   5.029  17.436  0.00  0.00    +0.000 OA
ATOM     14  O   UNL     1       3.370   3.905  17.000  0.00  0.00    +0.000 OA
BRANCH  12  15
ATOM     15  C   UNL     1       2.299   3.711  19.364  0.00  0.00    +0.000 A 
ATOM     16  C   UNL     1       1.080   3.537  20.031  0.00  0.00    +0.000 A 
ATOM     17  C   UNL     1       1.059   2.827  21.248  0.00  0.00    +0.000 A 
ATOM     18  C   UNL     1       2.233   2.291  21.785  0.00  0.00    +0.000 A 
ATOM     19  C   UNL     1       3.439   2.444  21.109  0.00  0.00    +0.000 A 
ATOM     20  C   UNL     1       3.471   3.152  19.902  0.00  0.00    +0.000 A 
ENDBRANCH  12  15
ENDBRANCH   1  12
BRANCH   1  21
ATOM     21  C   UNL     1       4.786   6.011  18.391  0.00  0.00    +0.000 C 
BRANCH  21  22
ATOM     22  C   UNL     1       5.585   6.621  17.267  0.00  0.00    +0.000 C 
ATOM     23  C   UNL     1       7.061   6.837  17.537  0.00  0.00    +0.000 C 
ATOM     24  C   UNL     1       6.635   5.886  16.460  0.00  0.00    +0.000 C 
ENDBRANCH  21  22
ENDBRANCH   1  21
TORSDOF 5
ENDMDL
MODEL 9
REMARK VINA RESULT:      -6.6      4.238      8.796
REMARK  Name = 
REMARK  6 active torsions:
REMARK  status: ('A' for Active; 'I' for Inactive)
REMARK    1  A    between atoms: C_1  and  C_2
REMARK    2  A    between atoms: C_3  and  N_4
REMARK    3  A    between atoms: N_4  and  C_5
REMARK    4  A    between atoms: N_4  and  S_9
REMARK    5  A    between atoms: C_5  and  C_6
REMARK    6  A    between atoms: S_9  and  C_12
REMARK                            x       y       z     vdW  Elec       q    Type
REMARK                         _______ _______ _______ _____ _____    ______ ____
ROOT
ATOM      1  N   UNL     1       0.041  11.123  19.222  0.00  0.00    +0.000 N 
ENDROOT
BRANCH   1   4
ATOM      2  C   UNL     1       0.162   8.633  21.384  0.00  0.00    +0.000 C 
ATOM      3  C   UNL     1       0.886   8.839  20.085  0.00  0.00    +0.000 A 
ATOM      4  C   UNL     1       0.830   9.917  19.201  0.00  0.00    +0.000 A 
ATOM      5  S   UNL     1       1.903   9.722  17.888  0.00  0.00    +0.000 S 
ATOM      6  C   UNL     1       2.449   8.194  18.421  0.00  0.00    +0.000 A 
ATOM      7  C   UNL     1       3.397   7.377  17.775  0.00  0.00    +0.000 A 
ATOM      8  C   UNL     1       3.738   6.148  18.340  0.00  0.00    +0.000 A 
ATOM      9  C   UNL     1       3.153   5.740  19.529  0.00  0.00    +0.000 A 
ATOM     10  C   UNL     1       2.214   6.561  20.170  0.00  0.00    +0.000 A 
ATOM     11  C   UNL     1       1.836   7.819  19.613  0.00  0.00    +0.000 A 
ENDBRANCH   1   4
BRANCH   1  12
ATOM     12  S   UNL     1       0.452  12.271  20.422  0.00  0.00    +0.000 S 
ATOM     13  O   UNL     1       1.413  11.658  21.321  0.00  0.00    +0.000 OA
ATOM     14  O   UNL     1       0.760  13.534  19.778  0.00  0.00    +0.000 OA
BRANCH  12  15
ATOM     15  C   UNL     1      -1.015  12.576  21.423  0.00  0.00    +0.000 A 
ATOM     16  C   UNL     1      -1.848  13.693  21.283  0.00  0.00    +0.000 A 
ATOM     17  C   UNL     1      -2.915  13.871  22.187  0.00  0.00    +0.000 A 
ATOM     18  C   UNL     1      -3.151  12.945  23.205  0.00  0.00    +0.000 A 
ATOM     19  C   UNL     1      -2.338  11.823  23.328  0.00  0.00    +0.000 A 
ATOM     20  C   UNL     1      -1.273  11.640  22.439  0.00  0.00    +0.000 A 
ENDBRANCH  12  15
ENDBRANCH   1  12
BRANCH   1  21
ATOM     21  C   UNL     1      -1.363  11.202  18.754  0.00  0.00    +0.000 C 
BRANCH  21  22
ATOM     22  C   UNL     1      -1.873  10.013  17.979  0.00  0.00    +0.000 C 
ATOM     23  C   UNL     1      -3.360   9.997  17.681  0.00  0.00    +0.000 C 
ATOM     24  C   UNL     1      -2.377  10.067  16.552  0.00  0.00    +0.000 C 
ENDBRANCH  21  22
ENDBRANCH   1  21
TORSDOF 5
ENDMDL
