MODEL 1
REMARK VINA RESULT:      -7.6      0.000      0.000
REMARK  Name = 
REMARK  3 active torsions:
REMARK  status: ('A' for Active; 'I' for Inactive)
REMARK    1  A    between atoms: C_2  and  C_3
REMARK    2  A    between atoms: C_4  and  C_5
REMARK    3  A    between atoms: N_11  and  C_12
REMARK                            x       y       z     vdW  Elec       q    Type
REMARK                         _______ _______ _______ _____ _____    ______ ____
ROOT
ATOM      1  O   UNL     1       8.313   7.068  18.728  0.00  0.00    +0.000 OA
ATOM      2  C   UNL     1       7.874   7.920  17.964  0.00  0.00    +0.000 C 
ATOM      3  N   UNL     1       6.917   7.727  16.987  0.00  0.00    +0.000 N 
ATOM      4  H   UNL     1       6.769   8.476  16.321  0.00  0.00    +0.000 HD
ENDROOT
BRANCH   3   5
ATOM      5  C   UNL     1       6.129   6.566  16.808  0.00  0.00    +0.000 A 
ATOM      6  C   UNL     1       5.024   6.261  17.611  0.00  0.00    +0.000 A 
ATOM      7  C   UNL     1       4.259   5.120  17.356  0.00  0.00    +0.000 A 
ATOM      8 CL   UNL     1       2.885   4.781  18.336  0.00  0.00    +0.000 Cl
ATOM      9  C   UNL     1       4.584   4.264  16.310  0.00  0.00    +0.000 A 
ATOM     10  C   UNL     1       5.684   4.562  15.515  0.00  0.00    +0.000 A 
ATOM     11 CL   UNL     1       6.106   3.505  14.222  0.00  0.00    +0.000 Cl
ATOM     12  C   UNL     1       6.449   5.709  15.749  0.00  0.00    +0.000 A 
ENDBRANCH   3   5
BRANCH   2  13
ATOM     13  C   UNL     1       8.365   9.323  18.020  0.00  0.00    +0.000 C 
ATOM     14  C   UNL     1       9.094   9.723  19.074  0.00  0.00    +0.000 C 
BRANCH  14  15
ATOM     15  C   UNL     1       9.517  11.114  19.227  0.00  0.00    +0.000 A 
ATOM     16  C   UNL     1      10.129  11.525  20.416  0.00  0.00    +0.000 A 
ATOM     17  C   UNL     1      10.515  12.856  20.585  0.00  0.00    +0.000 A 
ATOM     18  C   UNL     1      10.291  13.781  19.567  0.00  0.00    +0.000 A 
ATOM     19  C   UNL     1       9.687  13.375  18.376  0.00  0.00    +0.000 A 
ATOM     20  C   UNL     1       9.300  12.044  18.206  0.00  0.00    +0.000 A 
ENDBRANCH  14  15
ENDBRANCH   2  13
TORSDOF 3
ENDMDL
MODEL 2
REMARK VINA RESULT:      -7.6      0.103      1.113
REMARK  Name = 
REMARK  3 active torsions:
REMARK  status: ('A' for Active; 'I' for Inactive)
REMARK    1  A    between atoms: C_2  and  C_3
REMARK    2  A    between atoms: C_4  and  C_5
REMARK    3  A    between atoms: N_11  and  C_12
REMARK                            x       y       z     vdW  Elec       q    Type
REMARK                         _______ _______ _______ _____ _____    ______ ____
ROOT
ATOM      1  O   UNL     1       8.318   7.123  18.763  0.00  0.00    +0.000 OA
ATOM      2  C   UNL     1       7.889   7.967  17.984  0.00  0.00    +0.000 C 
ATOM      3  N   UNL     1       6.934   7.768  17.007  0.00  0.00    +0.000 N 
ATOM      4  H   UNL     1       6.795   8.508  16.329  0.00  0.00    +0.000 HD
ENDROOT
BRANCH   3   5
ATOM      5  C   UNL     1       6.137   6.611  16.843  0.00  0.00    +0.000 A 
ATOM      6  C   UNL     1       5.018   6.335  17.637  0.00  0.00    +0.000 A 
ATOM      7  C   UNL     1       4.244   5.197  17.396  0.00  0.00    +0.000 A 
ATOM      8 CL   UNL     1       2.852   4.894  18.363  0.00  0.00    +0.000 Cl
ATOM      9  C   UNL     1       4.575   4.314  16.374  0.00  0.00    +0.000 A 
ATOM     10  C   UNL     1       5.689   4.583  15.589  0.00  0.00    +0.000 A 
ATOM     11 CL   UNL     1       6.118   3.493  14.326  0.00  0.00    +0.000 Cl
ATOM     12  C   UNL     1       6.463   5.727  15.808  0.00  0.00    +0.000 A 
ENDBRANCH   3   5
BRANCH   2  13
ATOM     13  C   UNL     1       8.393   9.366  18.021  0.00  0.00    +0.000 C 
ATOM     14  C   UNL     1       9.122   9.776  19.071  0.00  0.00    +0.000 C 
BRANCH  14  15
ATOM     15  C   UNL     1       9.557  11.165  19.204  0.00  0.00    +0.000 A 
ATOM     16  C   UNL     1       9.316  12.069  18.163  0.00  0.00    +0.000 A 
ATOM     17  C   UNL     1       9.748  13.392  18.267  0.00  0.00    +0.000 A 
ATOM     18  C   UNL     1      10.421  13.818  19.410  0.00  0.00    +0.000 A 
ATOM     19  C   UNL     1      10.657  12.923  20.454  0.00  0.00    +0.000 A 
ATOM     20  C   UNL     1      10.226  11.598  20.352  0.00  0.00    +0.000 A 
ENDBRANCH  14  15
ENDBRANCH   2  13
TORSDOF 3
ENDMDL
MODEL 3
REMARK VINA RESULT:      -7.6      6.213      7.575
REMARK  Name = 
REMARK  3 active torsions:
REMARK  status: ('A' for Active; 'I' for Inactive)
REMARK    1  A    between atoms: C_2  and  C_3
REMARK    2  A    between atoms: C_4  and  C_5
REMARK    3  A    between atoms: N_11  and  C_12
REMARK                            x       y       z     vdW  Elec       q    Type
REMARK                         _______ _______ _______ _____ _____    ______ ____
ROOT
ATOM      1  O   UNL     1       6.308   4.420  19.042  0.00  0.00    +0.000 OA
ATOM      2  C   UNL     1       5.663   4.483  18.002  0.00  0.00    +0.000 C 
ATOM      3  N   UNL     1       4.291   4.608  17.896  0.00  0.00    +0.000 N 
ATOM      4  H   UNL     1       3.878   4.482  16.980  0.00  0.00    +0.000 HD
ENDROOT
BRANCH   3   5
ATOM      5  C   UNL     1       3.394   4.877  18.956  0.00  0.00    +0.000 A 
ATOM      6  C   UNL     1       2.963   6.168  19.284  0.00  0.00    +0.000 A 
ATOM      7  C   UNL     1       2.040   6.364  20.315  0.00  0.00    +0.000 A 
ATOM      8 CL   UNL     1       1.499   7.957  20.679  0.00  0.00    +0.000 Cl
ATOM      9  C   UNL     1       1.542   5.287  21.039  0.00  0.00    +0.000 A 
ATOM     10  C   UNL     1       1.973   4.005  20.719  0.00  0.00    +0.000 A 
ATOM     11 CL   UNL     1       1.374   2.662  21.614  0.00  0.00    +0.000 Cl
ATOM     12  C   UNL     1       2.884   3.793  19.679  0.00  0.00    +0.000 A 
ENDBRANCH   3   5
BRANCH   2  13
ATOM     13  C   UNL     1       6.340   4.421  16.679  0.00  0.00    +0.000 C 
ATOM     14  C   UNL     1       5.613   4.573  15.560  0.00  0.00    +0.000 C 
BRANCH  14  15
ATOM     15  C   UNL     1       6.211   4.423  14.235  0.00  0.00    +0.000 A 
ATOM     16  C   UNL     1       7.317   5.204  13.881  0.00  0.00    +0.000 A 
ATOM     17  C   UNL     1       7.881   5.089  12.610  0.00  0.00    +0.000 A 
ATOM     18  C   UNL     1       7.344   4.193  11.687  0.00  0.00    +0.000 A 
ATOM     19  C   UNL     1       6.246   3.407  12.037  0.00  0.00    +0.000 A 
ATOM     20  C   UNL     1       5.680   3.521  13.308  0.00  0.00    +0.000 A 
ENDBRANCH  14  15
ENDBRANCH   2  13
TORSDOF 3
ENDMDL
MODEL 4
REMARK VINA RESULT:      -7.6      6.263      7.613
REMARK  Name = 
REMARK  3 active torsions:
REMARK  status: ('A' for Active; 'I' for Inactive)
REMARK    1  A    between atoms: C_2  and  C_3
REMARK    2  A    between atoms: C_4  and  C_5
REMARK    3  A    between atoms: N_11  and  C_12
REMARK                            x       y       z     vdW  Elec       q    Type
REMARK                         _______ _______ _______ _____ _____    ______ ____
ROOT
ATOM      1  O   UNL     1       6.242   4.299  18.977  0.00  0.00    +0.000 OA
ATOM      2  C   UNL     1       5.610   4.419  17.934  0.00  0.00    +0.000 C 
ATOM      3  N   UNL     1       4.240   4.551  17.818  0.00  0.00    +0.000 N 
ATOM      4  H   UNL     1       3.838   4.475  16.891  0.00  0.00    +0.000 HD
ENDROOT
BRANCH   3   5
ATOM      5  C   UNL     1       3.329   4.762  18.880  0.00  0.00    +0.000 A 
ATOM      6  C   UNL     1       2.829   3.725  19.676  0.00  0.00    +0.000 A 
ATOM      7  C   UNL     1       1.967   4.004  20.740  0.00  0.00    +0.000 A 
ATOM      8 CL   UNL     1       1.390   2.717  21.726  0.00  0.00    +0.000 Cl
ATOM      9  C   UNL     1       1.583   5.310  21.021  0.00  0.00    +0.000 A 
ATOM     10  C   UNL     1       2.074   6.341  20.228  0.00  0.00    +0.000 A 
ATOM     11 CL   UNL     1       1.599   7.963  20.558  0.00  0.00    +0.000 Cl
ATOM     12  C   UNL     1       2.951   6.078  19.171  0.00  0.00    +0.000 A 
ENDBRANCH   3   5
BRANCH   2  13
ATOM     13  C   UNL     1       6.303   4.429  16.617  0.00  0.00    +0.000 C 
ATOM     14  C   UNL     1       5.575   4.449  15.490  0.00  0.00    +0.000 C 
BRANCH  14  15
ATOM     15  C   UNL     1       6.202   4.360  14.173  0.00  0.00    +0.000 A 
ATOM     16  C   UNL     1       7.309   5.164  13.878  0.00  0.00    +0.000 A 
ATOM     17  C   UNL     1       7.903   5.108  12.616  0.00  0.00    +0.000 A 
ATOM     18  C   UNL     1       7.394   4.248  11.644  0.00  0.00    +0.000 A 
ATOM     19  C   UNL     1       6.294   3.439  11.936  0.00  0.00    +0.000 A 
ATOM     20  C   UNL     1       5.699   3.495  13.198  0.00  0.00    +0.000 A 
ENDBRANCH  14  15
ENDBRANCH   2  13
TORSDOF 3
ENDMDL
MODEL 5
REMARK VINA RESULT:      -7.5      6.157      7.619
REMARK  Name = 
REMARK  3 active torsions:
REMARK  status: ('A' for Active; 'I' for Inactive)
REMARK    1  A    between atoms: C_2  and  C_3
REMARK    2  A    between atoms: C_4  and  C_5
REMARK    3  A    between atoms: N_11  and  C_12
REMARK                            x       y       z     vdW  Elec       q    Type
REMARK                         _______ _______ _______ _____ _____    ______ ____
ROOT
ATOM      1  O   UNL     1       6.308   4.669  19.012  0.00  0.00    +0.000 OA
ATOM      2  C   UNL     1       5.656   4.592  17.977  0.00  0.00    +0.000 C 
ATOM      3  N   UNL     1       4.280   4.521  17.880  0.00  0.00    +0.000 N 
ATOM      4  H   UNL     1       3.885   4.295  16.975  0.00  0.00    +0.000 HD
ENDROOT
BRANCH   3   5
ATOM      5  C   UNL     1       3.358   4.713  18.936  0.00  0.00    +0.000 A 
ATOM      6  C   UNL     1       2.870   3.665  19.724  0.00  0.00    +0.000 A 
ATOM      7  C   UNL     1       1.995   3.926  20.782  0.00  0.00    +0.000 A 
ATOM      8 CL   UNL     1       1.432   2.625  21.760  0.00  0.00    +0.000 Cl
ATOM      9  C   UNL     1       1.587   5.224  21.066  0.00  0.00    +0.000 A 
ATOM     10  C   UNL     1       2.067   6.265  20.280  0.00  0.00    +0.000 A 
ATOM     11 CL   UNL     1       1.562   7.878  20.612  0.00  0.00    +0.000 Cl
ATOM     12  C   UNL     1       2.955   6.021  19.228  0.00  0.00    +0.000 A 
ENDBRANCH   3   5
BRANCH   2  13
ATOM     13  C   UNL     1       6.330   4.562  16.651  0.00  0.00    +0.000 C 
ATOM     14  C   UNL     1       5.585   4.583  15.534  0.00  0.00    +0.000 C 
BRANCH  14  15
ATOM     15  C   UNL     1       6.191   4.455  14.210  0.00  0.00    +0.000 A 
ATOM     16  C   UNL     1       5.642   3.564  13.280  0.00  0.00    +0.000 A 
ATOM     17  C   UNL     1       6.225   3.415  12.021  0.00  0.00    +0.000 A 
ATOM     18  C   UNL     1       7.358   4.153  11.685  0.00  0.00    +0.000 A 
ATOM     19  C   UNL     1       7.905   5.048  12.605  0.00  0.00    +0.000 A 
ATOM     20  C   UNL     1       7.323   5.199  13.866  0.00  0.00    +0.000 A 
ENDBRANCH  14  15
ENDBRANCH   2  13
TORSDOF 3
ENDMDL
MODEL 6
REMARK VINA RESULT:      -7.5      1.464      1.482
REMARK  Name = 
REMARK  3 active torsions:
REMARK  status: ('A' for Active; 'I' for Inactive)
REMARK    1  A    between atoms: C_2  and  C_3
REMARK    2  A    between atoms: C_4  and  C_5
REMARK    3  A    between atoms: N_11  and  C_12
REMARK                            x       y       z     vdW  Elec       q    Type
REMARK                         _______ _______ _______ _____ _____    ______ ____
ROOT
ATOM      1  O   UNL     1       6.521   8.401  17.015  0.00  0.00    +0.000 OA
ATOM      2  C   UNL     1       7.415   7.823  17.623  0.00  0.00    +0.000 C 
ATOM      3  N   UNL     1       7.528   6.459  17.811  0.00  0.00    +0.000 N 
ATOM      4  H   UNL     1       8.224   6.132  18.470  0.00  0.00    +0.000 HD
ENDROOT
BRANCH   3   5
ATOM      5  C   UNL     1       6.743   5.464  17.183  0.00  0.00    +0.000 A 
ATOM      6  C   UNL     1       5.713   4.777  17.836  0.00  0.00    +0.000 A 
ATOM      7  C   UNL     1       4.944   3.835  17.146  0.00  0.00    +0.000 A 
ATOM      8 CL   UNL     1       3.661   3.026  17.961  0.00  0.00    +0.000 Cl
ATOM      9  C   UNL     1       5.192   3.556  15.808  0.00  0.00    +0.000 A 
ATOM     10  C   UNL     1       6.218   4.233  15.159  0.00  0.00    +0.000 A 
ATOM     11 CL   UNL     1       6.545   3.890  13.503  0.00  0.00    +0.000 Cl
ATOM     12  C   UNL     1       6.985   5.189  15.832  0.00  0.00    +0.000 A 
ENDBRANCH   3   5
BRANCH   2  13
ATOM     13  C   UNL     1       8.526   8.585  18.254  0.00  0.00    +0.000 C 
ATOM     14  C   UNL     1       8.540   9.925  18.165  0.00  0.00    +0.000 C 
BRANCH  14  15
ATOM     15  C   UNL     1       9.657  10.713  18.681  0.00  0.00    +0.000 A 
ATOM     16  C   UNL     1       9.718  11.017  20.046  0.00  0.00    +0.000 A 
ATOM     17  C   UNL     1      10.766  11.790  20.548  0.00  0.00    +0.000 A 
ATOM     18  C   UNL     1      11.756  12.264  19.689  0.00  0.00    +0.000 A 
ATOM     19  C   UNL     1      11.704  11.958  18.329  0.00  0.00    +0.000 A 
ATOM     20  C   UNL     1      10.656  11.185  17.824  0.00  0.00    +0.000 A 
ENDBRANCH  14  15
ENDBRANCH   2  13
TORSDOF 3
ENDMDL
MODEL 7
REMARK VINA RESULT:      -7.5      0.145      2.064
REMARK  Name = 
REMARK  3 active torsions:
REMARK  status: ('A' for Active; 'I' for Inactive)
REMARK    1  A    between atoms: C_2  and  C_3
REMARK    2  A    between atoms: C_4  and  C_5
REMARK    3  A    between atoms: N_11  and  C_12
REMARK                            x       y       z     vdW  Elec       q    Type
REMARK                         _______ _______ _______ _____ _____    ______ ____
ROOT
ATOM      1  O   UNL     1       8.259   7.035  18.729  0.00  0.00    +0.000 OA
ATOM      2  C   UNL     1       7.867   7.889  17.942  0.00  0.00    +0.000 C 
ATOM      3  N   UNL     1       6.971   7.700  16.908  0.00  0.00    +0.000 N 
ATOM      4  H   UNL     1       6.863   8.450  16.237  0.00  0.00    +0.000 HD
ENDROOT
BRANCH   3   5
ATOM      5  C   UNL     1       6.195   6.539  16.680  0.00  0.00    +0.000 A 
ATOM      6  C   UNL     1       6.415   5.672  15.604  0.00  0.00    +0.000 A 
ATOM      7  C   UNL     1       5.643   4.516  15.458  0.00  0.00    +0.000 A 
ATOM      8 CL   UNL     1       5.953   3.446  14.145  0.00  0.00    +0.000 Cl
ATOM      9  C   UNL     1       4.639   4.212  16.370  0.00  0.00    +0.000 A 
ATOM     10  C   UNL     1       4.414   5.074  17.436  0.00  0.00    +0.000 A 
ATOM     11 CL   UNL     1       3.166   4.717  18.567  0.00  0.00    +0.000 Cl
ATOM     12  C   UNL     1       5.190   6.226  17.603  0.00  0.00    +0.000 A 
ENDBRANCH   3   5
BRANCH   2  13
ATOM     13  C   UNL     1       8.354   9.292  18.032  0.00  0.00    +0.000 C 
ATOM     14  C   UNL     1       9.109   9.662  19.078  0.00  0.00    +0.000 C 
BRANCH  14  15
ATOM     15  C   UNL     1       9.530  11.049  19.265  0.00  0.00    +0.000 A 
ATOM     16  C   UNL     1      10.064  11.450  20.495  0.00  0.00    +0.000 A 
ATOM     17  C   UNL     1      10.447  12.777  20.696  0.00  0.00    +0.000 A 
ATOM     18  C   UNL     1      10.299  13.708  19.669  0.00  0.00    +0.000 A 
ATOM     19  C   UNL     1       9.774  13.311  18.438  0.00  0.00    +0.000 A 
ATOM     20  C   UNL     1       9.390  11.984  18.236  0.00  0.00    +0.000 A 
ENDBRANCH  14  15
ENDBRANCH   2  13
TORSDOF 3
ENDMDL
MODEL 8
REMARK VINA RESULT:      -7.5      1.444      1.737
REMARK  Name = 
REMARK  3 active torsions:
REMARK  status: ('A' for Active; 'I' for Inactive)
REMARK    1  A    between atoms: C_2  and  C_3
REMARK    2  A    between atoms: C_4  and  C_5
REMARK    3  A    between atoms: N_11  and  C_12
REMARK                            x       y       z     vdW  Elec       q    Type
REMARK                         _______ _______ _______ _____ _____    ______ ____
ROOT
ATOM      1  O   UNL     1       6.980   8.436  16.912  0.00  0.00    +0.000 OA
ATOM      2  C   UNL     1       7.662   7.959  17.812  0.00  0.00    +0.000 C 
ATOM      3  N   UNL     1       7.545   6.689  18.342  0.00  0.00    +0.000 N 
ATOM      4  H   UNL     1       8.060   6.485  19.189  0.00  0.00    +0.000 HD
ENDROOT
BRANCH   3   5
ATOM      5  C   UNL     1       6.751   5.639  17.823  0.00  0.00    +0.000 A 
ATOM      6  C   UNL     1       5.789   4.962  18.581  0.00  0.00    +0.000 A 
ATOM      7  C   UNL     1       5.004   3.964  17.998  0.00  0.00    +0.000 A 
ATOM      8 CL   UNL     1       3.803   3.167  18.940  0.00  0.00    +0.000 Cl
ATOM      9  C   UNL     1       5.170   3.617  16.662  0.00  0.00    +0.000 A 
ATOM     10  C   UNL     1       6.129   4.284  15.909  0.00  0.00    +0.000 A 
ATOM     11 CL   UNL     1       6.354   3.858  14.256  0.00  0.00    +0.000 Cl
ATOM     12  C   UNL     1       6.910   5.296  16.475  0.00  0.00    +0.000 A 
ENDBRANCH   3   5
BRANCH   2  13
ATOM     13  C   UNL     1       8.740   8.756  18.458  0.00  0.00    +0.000 C 
ATOM     14  C   UNL     1       8.736  10.092  18.333  0.00  0.00    +0.000 C 
BRANCH  14  15
ATOM     15  C   UNL     1       9.823  10.912  18.863  0.00  0.00    +0.000 A 
ATOM     16  C   UNL     1      10.876  11.293  18.022  0.00  0.00    +0.000 A 
ATOM     17  C   UNL     1      11.933  12.056  18.522  0.00  0.00    +0.000 A 
ATOM     18  C   UNL     1      11.944  12.441  19.861  0.00  0.00    +0.000 A 
ATOM     19  C   UNL     1      10.893  12.069  20.701  0.00  0.00    +0.000 A 
ATOM     20  C   UNL     1       9.834  11.306  20.204  0.00  0.00    +0.000 A 
ENDBRANCH  14  15
ENDBRANCH   2  13
TORSDOF 3
ENDMDL
MODEL 9
REMARK VINA RESULT:      -7.4      0.392      2.335
REMARK  Name = 
REMARK  3 active torsions:
REMARK  status: ('A' for Active; 'I' for Inactive)
REMARK    1  A    between atoms: C_2  and  C_3
REMARK    2  A    between atoms: C_4  and  C_5
REMARK    3  A    between atoms: N_11  and  C_12
REMARK                            x       y       z     vdW  Elec       q    Type
REMARK                         _______ _______ _______ _____ _____    ______ ____
ROOT
ATOM      1  O   UNL     1       8.201   6.958  18.676  0.00  0.00    +0.000 OA
ATOM      2  C   UNL     1       7.824   7.845  17.918  0.00  0.00    +0.000 C 
ATOM      3  N   UNL     1       6.915   7.709  16.887  0.00  0.00    +0.000 N 
ATOM      4  H   UNL     1       6.820   8.481  16.239  0.00  0.00    +0.000 HD
ENDROOT
BRANCH   3   5
ATOM      5  C   UNL     1       6.109   6.574  16.631  0.00  0.00    +0.000 A 
ATOM      6  C   UNL     1       6.376   5.663  15.603  0.00  0.00    +0.000 A 
ATOM      7  C   UNL     1       5.567   4.537  15.429  0.00  0.00    +0.000 A 
ATOM      8 CL   UNL     1       5.934   3.411  14.179  0.00  0.00    +0.000 Cl
ATOM      9  C   UNL     1       4.480   4.306  16.264  0.00  0.00    +0.000 A 
ATOM     10  C   UNL     1       4.210   5.212  17.282  0.00  0.00    +0.000 A 
ATOM     11 CL   UNL     1       2.859   4.945  18.317  0.00  0.00    +0.000 Cl
ATOM     12  C   UNL     1       5.020   6.335  17.477  0.00  0.00    +0.000 A 
ENDBRANCH   3   5
BRANCH   2  13
ATOM     13  C   UNL     1       8.346   9.232  18.046  0.00  0.00    +0.000 C 
ATOM     14  C   UNL     1       9.224   9.519  19.020  0.00  0.00    +0.000 C 
BRANCH  14  15
ATOM     15  C   UNL     1       9.692  10.884  19.250  0.00  0.00    +0.000 A 
ATOM     16  C   UNL     1      10.150  11.650  18.173  0.00  0.00    +0.000 A 
ATOM     17  C   UNL     1      10.622  12.947  18.383  0.00  0.00    +0.000 A 
ATOM     18  C   UNL     1      10.640  13.483  19.669  0.00  0.00    +0.000 A 
ATOM     19  C   UNL     1      10.177  12.725  20.746  0.00  0.00    +0.000 A 
ATOM     20  C   UNL     1       9.704  11.428  20.538  0.00  0.00    +0.000 A 
ENDBRANCH  14  15
ENDBRANCH   2  13
TORSDOF 3
ENDMDL
