MODEL 1
REMARK VINA RESULT:      -7.6      0.000      0.000
REMARK  Name = 
REMARK  9 active torsions:
REMARK  status: ('A' for Active; 'I' for Inactive)
REMARK    1  A    between atoms: C_1  and  C_2
REMARK    2  A    between atoms: C_3  and  C_4
REMARK    3  A    between atoms: C_4  and  C_5
REMARK    4  A    between atoms: C_5  and  C_6
REMARK    5  A    between atoms: C_6  and  C_7
REMARK    6  A    between atoms: C_7  and  C_8
REMARK    7  A    between atoms: N_10  and  C_11
REMARK    8  A    between atoms: C_11  and  C_12
REMARK    9  A    between atoms: C_12  and  C_13
REMARK                            x       y       z     vdW  Elec       q    Type
REMARK                         _______ _______ _______ _____ _____    ______ ____
ROOT
ATOM      1  C   UNL     1       2.960   7.866  17.809  0.00  0.00    +0.000 C 
ATOM      2  C   UNL     1       3.135   6.445  18.273  0.00  0.00    +0.000 C 
ATOM      3  C   UNL     1       3.796   5.483  17.602  0.00  0.00    +0.000 C 
ATOM      4  C   UNL     1       3.941   4.109  18.174  0.00  0.00    +0.000 C 
ATOM      5  O   UNL     1       4.590   3.242  17.597  0.00  0.00    +0.000 OA
ATOM      6  C   UNL     1       3.283   3.808  19.456  0.00  0.00    +0.000 A 
ATOM      7  C   UNL     1       3.368   2.515  19.997  0.00  0.00    +0.000 A 
ATOM      8  C   UNL     1       2.728   2.216  21.201  0.00  0.00    +0.000 A 
ATOM      9  C   UNL     1       2.008   3.203  21.871  0.00  0.00    +0.000 A 
ATOM     10  C   UNL     1       1.932   4.491  21.340  0.00  0.00    +0.000 A 
ATOM     11  C   UNL     1       2.574   4.794  20.131  0.00  0.00    +0.000 A 
ATOM     12  C   UNL     1       2.492   6.160  19.589  0.00  0.00    +0.000 C 
ATOM     13  O   UNL     1       1.905   7.038  20.210  0.00  0.00    +0.000 OA
ENDROOT
BRANCH   3  14
ATOM     14  C   UNL     1       4.494   5.699  16.281  0.00  0.00    +0.000 C 
BRANCH  14  15
ATOM     15  C   UNL     1       5.756   6.561  16.409  0.00  0.00    +0.000 C 
BRANCH  15  16
ATOM     16  C   UNL     1       6.940   5.773  16.979  0.00  0.00    +0.000 C 
BRANCH  16  17
ATOM     17  C   UNL     1       7.214   4.484  16.207  0.00  0.00    +0.000 C 
BRANCH  17  18
ATOM     18  C   UNL     1       7.211   4.707  14.709  0.00  0.00    +0.000 C 
ATOM     19  O   UNL     1       7.869   5.571  14.140  0.00  0.00    +0.000 OA
ATOM     20  N   UNL     1       6.409   3.814  14.033  0.00  0.00    +0.000 N 
ATOM     21  H   UNL     1       5.985   3.047  14.546  0.00  0.00    +0.000 HD
BRANCH  20  22
ATOM     22  C   UNL     1       6.314   3.833  12.586  0.00  0.00    +0.000 C 
BRANCH  22  23
ATOM     23  C   UNL     1       5.602   2.613  12.006  0.00  0.00    +0.000 C 
BRANCH  23  24
ATOM     24  C   UNL     1       4.415   3.013  11.240  0.00  0.00    +0.000 C 
ATOM     25  N   UNL     1       3.473   3.344  10.651  0.00  0.00    +0.000 NA
ENDBRANCH  23  24
ENDBRANCH  22  23
ENDBRANCH  20  22
ENDBRANCH  17  18
ENDBRANCH  16  17
ENDBRANCH  15  16
ENDBRANCH  14  15
ENDBRANCH   3  14
TORSDOF 8
ENDMDL
MODEL 2
REMARK VINA RESULT:      -7.5      1.318      1.653
REMARK  Name = 
REMARK  9 active torsions:
REMARK  status: ('A' for Active; 'I' for Inactive)
REMARK    1  A    between atoms: C_1  and  C_2
REMARK    2  A    between atoms: C_3  and  C_4
REMARK    3  A    between atoms: C_4  and  C_5
REMARK    4  A    between atoms: C_5  and  C_6
REMARK    5  A    between atoms: C_6  and  C_7
REMARK    6  A    between atoms: C_7  and  C_8
REMARK    7  A    between atoms: N_10  and  C_11
REMARK    8  A    between atoms: C_11  and  C_12
REMARK    9  A    between atoms: C_12  and  C_13
REMARK                            x       y       z     vdW  Elec       q    Type
REMARK                         _______ _______ _______ _____ _____    ______ ____
ROOT
ATOM      1  C   UNL     1       3.174   8.067  17.805  0.00  0.00    +0.000 C 
ATOM      2  C   UNL     1       3.581   6.710  18.311  0.00  0.00    +0.000 C 
ATOM      3  C   UNL     1       4.676   6.029  17.920  0.00  0.00    +0.000 C 
ATOM      4  C   UNL     1       5.006   4.698  18.516  0.00  0.00    +0.000 C 
ATOM      5  O   UNL     1       6.031   4.097  18.209  0.00  0.00    +0.000 OA
ATOM      6  C   UNL     1       4.070   4.112  19.490  0.00  0.00    +0.000 A 
ATOM      7  C   UNL     1       4.334   2.846  20.035  0.00  0.00    +0.000 A 
ATOM      8  C   UNL     1       3.441   2.273  20.942  0.00  0.00    +0.000 A 
ATOM      9  C   UNL     1       2.286   2.961  21.311  0.00  0.00    +0.000 A 
ATOM     10  C   UNL     1       2.028   4.225  20.778  0.00  0.00    +0.000 A 
ATOM     11  C   UNL     1       2.925   4.801  19.867  0.00  0.00    +0.000 A 
ATOM     12  C   UNL     1       2.643   6.139  19.321  0.00  0.00    +0.000 C 
ATOM     13  O   UNL     1       1.655   6.763  19.692  0.00  0.00    +0.000 OA
ENDROOT
BRANCH   3  14
ATOM     14  C   UNL     1       5.684   6.548  16.925  0.00  0.00    +0.000 C 
BRANCH  14  15
ATOM     15  C   UNL     1       5.505   5.946  15.526  0.00  0.00    +0.000 C 
BRANCH  15  16
ATOM     16  C   UNL     1       6.647   4.995  15.155  0.00  0.00    +0.000 C 
BRANCH  16  17
ATOM     17  C   UNL     1       6.147   3.683  14.552  0.00  0.00    +0.000 C 
BRANCH  17  18
ATOM     18  C   UNL     1       6.107   3.732  13.039  0.00  0.00    +0.000 C 
ATOM     19  O   UNL     1       7.082   3.960  12.331  0.00  0.00    +0.000 OA
ATOM     20  N   UNL     1       4.858   3.462  12.525  0.00  0.00    +0.000 N 
ATOM     21  H   UNL     1       4.120   3.162  13.155  0.00  0.00    +0.000 HD
BRANCH  20  22
ATOM     22  C   UNL     1       4.628   3.410  11.094  0.00  0.00    +0.000 C 
BRANCH  22  23
ATOM     23  C   UNL     1       3.153   3.292  10.717  0.00  0.00    +0.000 C 
BRANCH  23  24
ATOM     24  C   UNL     1       2.852   4.087   9.520  0.00  0.00    +0.000 C 
ATOM     25  N   UNL     1       2.629   4.728   8.580  0.00  0.00    +0.000 NA
ENDBRANCH  23  24
ENDBRANCH  22  23
ENDBRANCH  20  22
ENDBRANCH  17  18
ENDBRANCH  16  17
ENDBRANCH  15  16
ENDBRANCH  14  15
ENDBRANCH   3  14
TORSDOF 8
ENDMDL
MODEL 3
REMARK VINA RESULT:      -6.9      3.332      6.381
REMARK  Name = 
REMARK  9 active torsions:
REMARK  status: ('A' for Active; 'I' for Inactive)
REMARK    1  A    between atoms: C_1  and  C_2
REMARK    2  A    between atoms: C_3  and  C_4
REMARK    3  A    between atoms: C_4  and  C_5
REMARK    4  A    between atoms: C_5  and  C_6
REMARK    5  A    between atoms: C_6  and  C_7
REMARK    6  A    between atoms: C_7  and  C_8
REMARK    7  A    between atoms: N_10  and  C_11
REMARK    8  A    between atoms: C_11  and  C_12
REMARK    9  A    between atoms: C_12  and  C_13
REMARK                            x       y       z     vdW  Elec       q    Type
REMARK                         _______ _______ _______ _____ _____    ______ ____
ROOT
ATOM      1  C   UNL     1       2.991   7.166  17.872  0.00  0.00    +0.000 C 
ATOM      2  C   UNL     1       2.169   7.950  18.859  0.00  0.00    +0.000 C 
ATOM      3  C   UNL     1       1.829   7.532  20.094  0.00  0.00    +0.000 C 
ATOM      4  C   UNL     1       1.036   8.408  21.010  0.00  0.00    +0.000 C 
ATOM      5  O   UNL     1       0.771   8.059  22.156  0.00  0.00    +0.000 OA
ATOM      6  C   UNL     1       0.574   9.713  20.510  0.00  0.00    +0.000 A 
ATOM      7  C   UNL     1      -0.205  10.540  21.334  0.00  0.00    +0.000 A 
ATOM      8  C   UNL     1      -0.667  11.769  20.859  0.00  0.00    +0.000 A 
ATOM      9  C   UNL     1      -0.349  12.179  19.566  0.00  0.00    +0.000 A 
ATOM     10  C   UNL     1       0.435  11.363  18.749  0.00  0.00    +0.000 A 
ATOM     11  C   UNL     1       0.899  10.129  19.224  0.00  0.00    +0.000 A 
ATOM     12  C   UNL     1       1.733   9.284  18.354  0.00  0.00    +0.000 C 
ATOM     13  O   UNL     1       2.056   9.675  17.238  0.00  0.00    +0.000 OA
ENDROOT
BRANCH   3  14
ATOM     14  C   UNL     1       2.252   6.210  20.686  0.00  0.00    +0.000 C 
BRANCH  14  15
ATOM     15  C   UNL     1       1.182   5.121  20.536  0.00  0.00    +0.000 C 
BRANCH  15  16
ATOM     16  C   UNL     1       1.666   3.948  19.678  0.00  0.00    +0.000 C 
BRANCH  16  17
ATOM     17  C   UNL     1       2.677   3.065  20.407  0.00  0.00    +0.000 C 
BRANCH  17  18
ATOM     18  C   UNL     1       4.024   3.054  19.716  0.00  0.00    +0.000 C 
ATOM     19  O   UNL     1       4.982   2.382  20.083  0.00  0.00    +0.000 OA
ATOM     20  N   UNL     1       4.063   3.861  18.600  0.00  0.00    +0.000 N 
ATOM     21  H   UNL     1       3.204   4.298  18.277  0.00  0.00    +0.000 HD
BRANCH  20  22
ATOM     22  C   UNL     1       5.251   3.944  17.772  0.00  0.00    +0.000 C 
BRANCH  22  23
ATOM     23  C   UNL     1       6.200   5.070  18.179  0.00  0.00    +0.000 C 
BRANCH  23  24
ATOM     24  C   UNL     1       6.876   5.637  17.005  0.00  0.00    +0.000 C 
ATOM     25  N   UNL     1       7.403   6.104  16.085  0.00  0.00    +0.000 NA
ENDBRANCH  23  24
ENDBRANCH  22  23
ENDBRANCH  20  22
ENDBRANCH  17  18
ENDBRANCH  16  17
ENDBRANCH  15  16
ENDBRANCH  14  15
ENDBRANCH   3  14
TORSDOF 8
ENDMDL
MODEL 4
REMARK VINA RESULT:      -6.8      4.212      6.993
REMARK  Name = 
REMARK  9 active torsions:
REMARK  status: ('A' for Active; 'I' for Inactive)
REMARK    1  A    between atoms: C_1  and  C_2
REMARK    2  A    between atoms: C_3  and  C_4
REMARK    3  A    between atoms: C_4  and  C_5
REMARK    4  A    between atoms: C_5  and  C_6
REMARK    5  A    between atoms: C_6  and  C_7
REMARK    6  A    between atoms: C_7  and  C_8
REMARK    7  A    between atoms: N_10  and  C_11
REMARK    8  A    between atoms: C_11  and  C_12
REMARK    9  A    between atoms: C_12  and  C_13
REMARK                            x       y       z     vdW  Elec       q    Type
REMARK                         _______ _______ _______ _____ _____    ______ ____
ROOT
ATOM      1  C   UNL     1       4.764   7.094  16.712  0.00  0.00    +0.000 C 
ATOM      2  C   UNL     1       3.952   6.149  17.556  0.00  0.00    +0.000 C 
ATOM      3  C   UNL     1       3.062   6.515  18.498  0.00  0.00    +0.000 C 
ATOM      4  C   UNL     1       2.280   5.490  19.256  0.00  0.00    +0.000 C 
ATOM      5  O   UNL     1       1.427   5.815  20.076  0.00  0.00    +0.000 OA
ATOM      6  C   UNL     1       2.556   4.067  19.002  0.00  0.00    +0.000 A 
ATOM      7  C   UNL     1       1.866   3.083  19.728  0.00  0.00    +0.000 A 
ATOM      8  C   UNL     1       2.136   1.731  19.508  0.00  0.00    +0.000 A 
ATOM      9  C   UNL     1       3.090   1.356  18.564  0.00  0.00    +0.000 A 
ATOM     10  C   UNL     1       3.768   2.333  17.833  0.00  0.00    +0.000 A 
ATOM     11  C   UNL     1       3.498   3.691  18.053  0.00  0.00    +0.000 A 
ATOM     12  C   UNL     1       4.215   4.709  17.267  0.00  0.00    +0.000 C 
ATOM     13  O   UNL     1       5.011   4.372  16.399  0.00  0.00    +0.000 OA
ENDROOT
BRANCH   3  14
ATOM     14  C   UNL     1       2.722   7.948  18.830  0.00  0.00    +0.000 C 
BRANCH  14  15
ATOM     15  C   UNL     1       1.831   8.608  17.771  0.00  0.00    +0.000 C 
BRANCH  15  16
ATOM     16  C   UNL     1       1.876  10.137  17.849  0.00  0.00    +0.000 C 
BRANCH  16  17
ATOM     17  C   UNL     1       1.150  10.685  19.077  0.00  0.00    +0.000 C 
BRANCH  17  18
ATOM     18  C   UNL     1      -0.355  10.632  18.917  0.00  0.00    +0.000 C 
ATOM     19  O   UNL     1      -1.126  10.240  19.786  0.00  0.00    +0.000 OA
ATOM     20  N   UNL     1      -0.784  11.101  17.695  0.00  0.00    +0.000 N 
ATOM     21  H   UNL     1      -0.109  11.523  17.064  0.00  0.00    +0.000 HD
BRANCH  20  22
ATOM     22  C   UNL     1      -2.196  11.179  17.371  0.00  0.00    +0.000 C 
BRANCH  22  23
ATOM     23  C   UNL     1      -2.727   9.938  16.657  0.00  0.00    +0.000 C 
BRANCH  23  24
ATOM     24  C   UNL     1      -2.871  10.183  15.216  0.00  0.00    +0.000 C 
ATOM     25  N   UNL     1      -3.005  10.375  14.082  0.00  0.00    +0.000 NA
ENDBRANCH  23  24
ENDBRANCH  22  23
ENDBRANCH  20  22
ENDBRANCH  17  18
ENDBRANCH  16  17
ENDBRANCH  15  16
ENDBRANCH  14  15
ENDBRANCH   3  14
TORSDOF 8
ENDMDL
MODEL 5
REMARK VINA RESULT:      -6.8      3.796      5.445
REMARK  Name = 
REMARK  9 active torsions:
REMARK  status: ('A' for Active; 'I' for Inactive)
REMARK    1  A    between atoms: C_1  and  C_2
REMARK    2  A    between atoms: C_3  and  C_4
REMARK    3  A    between atoms: C_4  and  C_5
REMARK    4  A    between atoms: C_5  and  C_6
REMARK    5  A    between atoms: C_6  and  C_7
REMARK    6  A    between atoms: C_7  and  C_8
REMARK    7  A    between atoms: N_10  and  C_11
REMARK    8  A    between atoms: C_11  and  C_12
REMARK    9  A    between atoms: C_12  and  C_13
REMARK                            x       y       z     vdW  Elec       q    Type
REMARK                         _______ _______ _______ _____ _____    ______ ____
ROOT
ATOM      1  C   UNL     1       3.032   8.035  17.734  0.00  0.00    +0.000 C 
ATOM      2  C   UNL     1       3.201   6.610  18.187  0.00  0.00    +0.000 C 
ATOM      3  C   UNL     1       3.846   5.647  17.501  0.00  0.00    +0.000 C 
ATOM      4  C   UNL     1       3.987   4.268  18.062  0.00  0.00    +0.000 C 
ATOM      5  O   UNL     1       4.621   3.399  17.471  0.00  0.00    +0.000 OA
ATOM      6  C   UNL     1       3.344   3.964  19.351  0.00  0.00    +0.000 A 
ATOM      7  C   UNL     1       3.427   2.668  19.883  0.00  0.00    +0.000 A 
ATOM      8  C   UNL     1       2.802   2.365  21.094  0.00  0.00    +0.000 A 
ATOM      9  C   UNL     1       2.098   3.354  21.781  0.00  0.00    +0.000 A 
ATOM     10  C   UNL     1       2.026   4.646  21.258  0.00  0.00    +0.000 A 
ATOM     11  C   UNL     1       2.653   4.951  20.042  0.00  0.00    +0.000 A 
ATOM     12  C   UNL     1       2.575   6.321  19.510  0.00  0.00    +0.000 C 
ATOM     13  O   UNL     1       2.003   7.200  20.145  0.00  0.00    +0.000 OA
ENDROOT
BRANCH   3  14
ATOM     14  C   UNL     1       4.527   5.865  16.172  0.00  0.00    +0.000 C 
BRANCH  14  15
ATOM     15  C   UNL     1       6.057   5.851  16.278  0.00  0.00    +0.000 C 
BRANCH  15  16
ATOM     16  C   UNL     1       6.561   6.661  17.477  0.00  0.00    +0.000 C 
BRANCH  16  17
ATOM     17  C   UNL     1       7.555   7.748  17.074  0.00  0.00    +0.000 C 
BRANCH  17  18
ATOM     18  C   UNL     1       8.322   8.285  18.265  0.00  0.00    +0.000 C 
ATOM     19  O   UNL     1       8.687   7.601  19.215  0.00  0.00    +0.000 OA
ATOM     20  N   UNL     1       8.602   9.630  18.163  0.00  0.00    +0.000 N 
ATOM     21  H   UNL     1       8.380  10.116  17.299  0.00  0.00    +0.000 HD
BRANCH  20  22
ATOM     22  C   UNL     1       9.374  10.318  19.180  0.00  0.00    +0.000 C 
BRANCH  22  23
ATOM     23  C   UNL     1      10.278  11.415  18.621  0.00  0.00    +0.000 C 
BRANCH  23  24
ATOM     24  C   UNL     1       9.486  12.557  18.146  0.00  0.00    +0.000 C 
ATOM     25  N   UNL     1       8.877  13.464  17.760  0.00  0.00    +0.000 NA
ENDBRANCH  23  24
ENDBRANCH  22  23
ENDBRANCH  20  22
ENDBRANCH  17  18
ENDBRANCH  16  17
ENDBRANCH  15  16
ENDBRANCH  14  15
ENDBRANCH   3  14
TORSDOF 8
ENDMDL
MODEL 6
REMARK VINA RESULT:      -6.8      2.389      3.976
REMARK  Name = 
REMARK  9 active torsions:
REMARK  status: ('A' for Active; 'I' for Inactive)
REMARK    1  A    between atoms: C_1  and  C_2
REMARK    2  A    between atoms: C_3  and  C_4
REMARK    3  A    between atoms: C_4  and  C_5
REMARK    4  A    between atoms: C_5  and  C_6
REMARK    5  A    between atoms: C_6  and  C_7
REMARK    6  A    between atoms: C_7  and  C_8
REMARK    7  A    between atoms: N_10  and  C_11
REMARK    8  A    between atoms: C_11  and  C_12
REMARK    9  A    between atoms: C_12  and  C_13
REMARK                            x       y       z     vdW  Elec       q    Type
REMARK                         _______ _______ _______ _____ _____    ______ ____
ROOT
ATOM      1  C   UNL     1       3.785   6.865  16.689  0.00  0.00    +0.000 C 
ATOM      2  C   UNL     1       3.029   6.974  17.985  0.00  0.00    +0.000 C 
ATOM      3  C   UNL     1       2.874   5.981  18.881  0.00  0.00    +0.000 C 
ATOM      4  C   UNL     1       2.131   6.209  20.159  0.00  0.00    +0.000 C 
ATOM      5  O   UNL     1       2.033   5.327  21.007  0.00  0.00    +0.000 OA
ATOM      6  C   UNL     1       1.510   7.524  20.387  0.00  0.00    +0.000 A 
ATOM      7  C   UNL     1       0.773   7.754  21.559  0.00  0.00    +0.000 A 
ATOM      8  C   UNL     1       0.163   8.991  21.773  0.00  0.00    +0.000 A 
ATOM      9  C   UNL     1       0.289  10.003  20.823  0.00  0.00    +0.000 A 
ATOM     10  C   UNL     1       1.031   9.779  19.662  0.00  0.00    +0.000 A 
ATOM     11  C   UNL     1       1.645   8.537  19.446  0.00  0.00    +0.000 A 
ATOM     12  C   UNL     1       2.432   8.321  18.221  0.00  0.00    +0.000 C 
ATOM     13  O   UNL     1       2.586   9.232  17.416  0.00  0.00    +0.000 OA
ENDROOT
BRANCH   3  14
ATOM     14  C   UNL     1       3.467   4.602  18.728  0.00  0.00    +0.000 C 
BRANCH  14  15
ATOM     15  C   UNL     1       4.862   4.482  19.354  0.00  0.00    +0.000 C 
BRANCH  15  16
ATOM     16  C   UNL     1       5.666   5.781  19.230  0.00  0.00    +0.000 C 
BRANCH  16  17
ATOM     17  C   UNL     1       7.173   5.538  19.179  0.00  0.00    +0.000 C 
BRANCH  17  18
ATOM     18  C   UNL     1       7.600   4.889  17.879  0.00  0.00    +0.000 C 
ATOM     19  O   UNL     1       8.466   4.026  17.792  0.00  0.00    +0.000 OA
ATOM     20  N   UNL     1       6.888   5.345  16.791  0.00  0.00    +0.000 N 
ATOM     21  H   UNL     1       6.102   5.971  16.943  0.00  0.00    +0.000 HD
BRANCH  20  22
ATOM     22  C   UNL     1       7.115   4.807  15.464  0.00  0.00    +0.000 C 
BRANCH  22  23
ATOM     23  C   UNL     1       5.866   4.195  14.832  0.00  0.00    +0.000 C 
BRANCH  23  24
ATOM     24  C   UNL     1       6.127   3.781  13.448  0.00  0.00    +0.000 C 
ATOM     25  N   UNL     1       6.343   3.473  12.352  0.00  0.00    +0.000 NA
ENDBRANCH  23  24
ENDBRANCH  22  23
ENDBRANCH  20  22
ENDBRANCH  17  18
ENDBRANCH  16  17
ENDBRANCH  15  16
ENDBRANCH  14  15
ENDBRANCH   3  14
TORSDOF 8
ENDMDL
MODEL 7
REMARK VINA RESULT:      -6.7      1.860      2.126
REMARK  Name = 
REMARK  9 active torsions:
REMARK  status: ('A' for Active; 'I' for Inactive)
REMARK    1  A    between atoms: C_1  and  C_2
REMARK    2  A    between atoms: C_3  and  C_4
REMARK    3  A    between atoms: C_4  and  C_5
REMARK    4  A    between atoms: C_5  and  C_6
REMARK    5  A    between atoms: C_6  and  C_7
REMARK    6  A    between atoms: C_7  and  C_8
REMARK    7  A    between atoms: N_10  and  C_11
REMARK    8  A    between atoms: C_11  and  C_12
REMARK    9  A    between atoms: C_12  and  C_13
REMARK                            x       y       z     vdW  Elec       q    Type
REMARK                         _______ _______ _______ _____ _____    ______ ____
ROOT
ATOM      1  C   UNL     1       4.417   7.399  17.078  0.00  0.00    +0.000 C 
ATOM      2  C   UNL     1       4.236   6.154  17.902  0.00  0.00    +0.000 C 
ATOM      3  C   UNL     1       5.234   5.403  18.408  0.00  0.00    +0.000 C 
ATOM      4  C   UNL     1       4.941   4.200  19.247  0.00  0.00    +0.000 C 
ATOM      5  O   UNL     1       5.842   3.544  19.759  0.00  0.00    +0.000 OA
ATOM      6  C   UNL     1       3.536   3.811  19.451  0.00  0.00    +0.000 A 
ATOM      7  C   UNL     1       3.232   2.663  20.201  0.00  0.00    +0.000 A 
ATOM      8  C   UNL     1       1.904   2.274  20.380  0.00  0.00    +0.000 A 
ATOM      9  C   UNL     1       0.875   3.029  19.819  0.00  0.00    +0.000 A 
ATOM     10  C   UNL     1       1.175   4.176  19.083  0.00  0.00    +0.000 A 
ATOM     11  C   UNL     1       2.509   4.568  18.901  0.00  0.00    +0.000 A 
ATOM     12  C   UNL     1       2.808   5.786  18.131  0.00  0.00    +0.000 C 
ATOM     13  O   UNL     1       1.898   6.477  17.687  0.00  0.00    +0.000 OA
ENDROOT
BRANCH   3  14
ATOM     14  C   UNL     1       6.700   5.722  18.244  0.00  0.00    +0.000 C 
BRANCH  14  15
ATOM     15  C   UNL     1       7.465   4.631  17.485  0.00  0.00    +0.000 C 
BRANCH  15  16
ATOM     16  C   UNL     1       7.178   4.664  15.980  0.00  0.00    +0.000 C 
BRANCH  16  17
ATOM     17  C   UNL     1       6.024   3.747  15.581  0.00  0.00    +0.000 C 
BRANCH  17  18
ATOM     18  C   UNL     1       5.690   3.861  14.108  0.00  0.00    +0.000 C 
ATOM     19  O   UNL     1       4.754   4.516  13.663  0.00  0.00    +0.000 OA
ATOM     20  N   UNL     1       6.571   3.175  13.302  0.00  0.00    +0.000 N 
ATOM     21  H   UNL     1       7.395   2.752  13.720  0.00  0.00    +0.000 HD
BRANCH  20  22
ATOM     22  C   UNL     1       6.451   3.205  11.857  0.00  0.00    +0.000 C 
BRANCH  22  23
ATOM     23  C   UNL     1       7.287   2.139  11.152  0.00  0.00    +0.000 C 
BRANCH  23  24
ATOM     24  C   UNL     1       6.577   0.855  11.113  0.00  0.00    +0.000 C 
ATOM     25  N   UNL     1       6.010  -0.156  11.101  0.00  0.00    +0.000 NA
ENDBRANCH  23  24
ENDBRANCH  22  23
ENDBRANCH  20  22
ENDBRANCH  17  18
ENDBRANCH  16  17
ENDBRANCH  15  16
ENDBRANCH  14  15
ENDBRANCH   3  14
TORSDOF 8
ENDMDL
MODEL 8
REMARK VINA RESULT:      -6.7      4.350      7.026
REMARK  Name = 
REMARK  9 active torsions:
REMARK  status: ('A' for Active; 'I' for Inactive)
REMARK    1  A    between atoms: C_1  and  C_2
REMARK    2  A    between atoms: C_3  and  C_4
REMARK    3  A    between atoms: C_4  and  C_5
REMARK    4  A    between atoms: C_5  and  C_6
REMARK    5  A    between atoms: C_6  and  C_7
REMARK    6  A    between atoms: C_7  and  C_8
REMARK    7  A    between atoms: N_10  and  C_11
REMARK    8  A    between atoms: C_11  and  C_12
REMARK    9  A    between atoms: C_12  and  C_13
REMARK                            x       y       z     vdW  Elec       q    Type
REMARK                         _______ _______ _______ _____ _____    ______ ____
ROOT
ATOM      1  C   UNL     1       1.412   9.300  17.709  0.00  0.00    +0.000 C 
ATOM      2  C   UNL     1       0.924   9.524  19.115  0.00  0.00    +0.000 C 
ATOM      3  C   UNL     1       1.302   8.810  20.193  0.00  0.00    +0.000 C 
ATOM      4  C   UNL     1       0.780   9.142  21.555  0.00  0.00    +0.000 C 
ATOM      5  O   UNL     1       1.162   8.534  22.550  0.00  0.00    +0.000 OA
ATOM      6  C   UNL     1      -0.213  10.221  21.684  0.00  0.00    +0.000 A 
ATOM      7  C   UNL     1      -0.750  10.527  22.944  0.00  0.00    +0.000 A 
ATOM      8  C   UNL     1      -1.708  11.535  23.072  0.00  0.00    +0.000 A 
ATOM      9  C   UNL     1      -2.129  12.242  21.947  0.00  0.00    +0.000 A 
ATOM     10  C   UNL     1      -1.587  11.946  20.695  0.00  0.00    +0.000 A 
ATOM     11  C   UNL     1      -0.625  10.935  20.565  0.00  0.00    +0.000 A 
ATOM     12  C   UNL     1      -0.057  10.641  19.240  0.00  0.00    +0.000 C 
ATOM     13  O   UNL     1      -0.389  11.304  18.264  0.00  0.00    +0.000 OA
ENDROOT
BRANCH   3  14
ATOM     14  C   UNL     1       2.306   7.685  20.153  0.00  0.00    +0.000 C 
BRANCH  14  15
ATOM     15  C   UNL     1       1.709   6.373  19.628  0.00  0.00    +0.000 C 
BRANCH  15  16
ATOM     16  C   UNL     1       1.676   5.281  20.703  0.00  0.00    +0.000 C 
BRANCH  16  17
ATOM     17  C   UNL     1       0.982   4.008  20.225  0.00  0.00    +0.000 C 
BRANCH  17  18
ATOM     18  C   UNL     1       1.557   3.503  18.918  0.00  0.00    +0.000 C 
ATOM     19  O   UNL     1       0.948   3.497  17.854  0.00  0.00    +0.000 OA
ATOM     20  N   UNL     1       2.861   3.073  19.035  0.00  0.00    +0.000 N 
ATOM     21  H   UNL     1       3.350   3.215  19.913  0.00  0.00    +0.000 HD
BRANCH  20  22
ATOM     22  C   UNL     1       3.604   2.602  17.882  0.00  0.00    +0.000 C 
BRANCH  22  23
ATOM     23  C   UNL     1       4.559   3.645  17.304  0.00  0.00    +0.000 C 
BRANCH  23  24
ATOM     24  C   UNL     1       4.962   4.614  18.330  0.00  0.00    +0.000 C 
ATOM     25  N   UNL     1       5.261   5.375  19.151  0.00  0.00    +0.000 NA
ENDBRANCH  23  24
ENDBRANCH  22  23
ENDBRANCH  20  22
ENDBRANCH  17  18
ENDBRANCH  16  17
ENDBRANCH  15  16
ENDBRANCH  14  15
ENDBRANCH   3  14
TORSDOF 8
ENDMDL
MODEL 9
REMARK VINA RESULT:      -6.7      3.158      5.897
REMARK  Name = 
REMARK  9 active torsions:
REMARK  status: ('A' for Active; 'I' for Inactive)
REMARK    1  A    between atoms: C_1  and  C_2
REMARK    2  A    between atoms: C_3  and  C_4
REMARK    3  A    between atoms: C_4  and  C_5
REMARK    4  A    between atoms: C_5  and  C_6
REMARK    5  A    between atoms: C_6  and  C_7
REMARK    6  A    between atoms: C_7  and  C_8
REMARK    7  A    between atoms: N_10  and  C_11
REMARK    8  A    between atoms: C_11  and  C_12
REMARK    9  A    between atoms: C_12  and  C_13
REMARK                            x       y       z     vdW  Elec       q    Type
REMARK                         _______ _______ _______ _____ _____    ______ ____
ROOT
ATOM      1  C   UNL     1       3.366   7.512  17.274  0.00  0.00    +0.000 C 
ATOM      2  C   UNL     1       2.493   8.016  18.391  0.00  0.00    +0.000 C 
ATOM      3  C   UNL     1       2.194   7.333  19.514  0.00  0.00    +0.000 C 
ATOM      4  C   UNL     1       1.344   7.945  20.581  0.00  0.00    +0.000 C 
ATOM      5  O   UNL     1       1.113   7.353  21.631  0.00  0.00    +0.000 OA
ATOM      6  C   UNL     1       0.778   9.284  20.348  0.00  0.00    +0.000 A 
ATOM      7  C   UNL     1      -0.056   9.866  21.315  0.00  0.00    +0.000 A 
ATOM      8  C   UNL     1      -0.614  11.126  21.093  0.00  0.00    +0.000 A 
ATOM      9  C   UNL     1      -0.338  11.811  19.911  0.00  0.00    +0.000 A 
ATOM     10  C   UNL     1       0.501  11.239  18.954  0.00  0.00    +0.000 A 
ATOM     11  C   UNL     1       1.062   9.973  19.176  0.00  0.00    +0.000 A 
ATOM     12  C   UNL     1       1.952   9.387  18.160  0.00  0.00    +0.000 C 
ATOM     13  O   UNL     1       2.236  10.018  17.149  0.00  0.00    +0.000 OA
ENDROOT
BRANCH   3  14
ATOM     14  C   UNL     1       2.722   5.956  19.832  0.00  0.00    +0.000 C 
BRANCH  14  15
ATOM     15  C   UNL     1       1.778   4.837  19.375  0.00  0.00    +0.000 C 
BRANCH  15  16
ATOM     16  C   UNL     1       2.305   4.106  18.136  0.00  0.00    +0.000 C 
BRANCH  16  17
ATOM     17  C   UNL     1       3.288   2.990  18.486  0.00  0.00    +0.000 C 
BRANCH  17  18
ATOM     18  C   UNL     1       4.712   3.498  18.584  0.00  0.00    +0.000 C 
ATOM     19  O   UNL     1       5.392   3.450  19.603  0.00  0.00    +0.000 OA
ATOM     20  N   UNL     1       5.188   3.998  17.392  0.00  0.00    +0.000 N 
ATOM     21  H   UNL     1       4.621   3.901  16.554  0.00  0.00    +0.000 HD
BRANCH  20  22
ATOM     22  C   UNL     1       6.549   4.484  17.269  0.00  0.00    +0.000 C 
BRANCH  22  23
ATOM     23  C   UNL     1       6.702   5.619  16.258  0.00  0.00    +0.000 C 
BRANCH  23  24
ATOM     24  C   UNL     1       7.213   6.834  16.906  0.00  0.00    +0.000 C 
ATOM     25  N   UNL     1       7.629   7.780  17.430  0.00  0.00    +0.000 NA
ENDBRANCH  23  24
ENDBRANCH  22  23
ENDBRANCH  20  22
ENDBRANCH  17  18
ENDBRANCH  16  17
ENDBRANCH  15  16
ENDBRANCH  14  15
ENDBRANCH   3  14
TORSDOF 8
ENDMDL
