MODEL 1
REMARK VINA RESULT:      -7.3      0.000      0.000
REMARK  Name = 
REMARK  7 active torsions:
REMARK  status: ('A' for Active; 'I' for Inactive)
REMARK    1  A    between atoms: C_1  and  C_2
REMARK    2  A    between atoms: C_5  and  C_6
REMARK    3  A    between atoms: N_8  and  C_9
REMARK    4  A    between atoms: C_9  and  C_10
REMARK    5  A    between atoms: N_14  and  C_15
REMARK    6  A    between atoms: C_15  and  C_16
REMARK    7  A    between atoms: C_17  and  C_18
REMARK                            x       y       z     vdW  Elec       q    Type
REMARK                         _______ _______ _______ _____ _____    ______ ____
ROOT
ATOM      1  C   UNL     1       2.993   3.382  17.991  0.00  0.00    +0.000 C 
ATOM      2  C   UNL     1       2.155   2.087  18.098  0.00  0.00    +0.000 C 
ATOM      3  C   UNL     1       0.834   2.282  18.820  0.00  0.00    +0.000 C 
ATOM      4  C   UNL     1       1.045   3.007  20.135  0.00  0.00    +0.000 C 
ATOM      5  N   UNL     1       1.625   4.323  19.828  0.00  0.00    +0.000 NA
ATOM      6  C   UNL     1       3.016   4.149  19.344  0.00  0.00    +0.000 C 
ENDROOT
BRANCH   1   7
ATOM      7  C   UNL     1       4.367   2.951  17.436  0.00  0.00    +0.000 C 
BRANCH   7  10
ATOM      8  C   UNL     1       5.711   4.902  16.748  0.00  0.00    +0.000 C 
ATOM      9  O   UNL     1       5.241   4.958  15.618  0.00  0.00    +0.000 OA
ATOM     10  N   UNL     1       5.471   3.863  17.627  0.00  0.00    +0.000 N 
ATOM     11  H   UNL     1       5.821   4.012  18.571  0.00  0.00    +0.000 HD
BRANCH   8  16
ATOM     12  C   UNL     1       8.927   9.163  18.695  0.00  0.00    +0.000 C 
ATOM     13  C   UNL     1       8.071   8.038  18.202  0.00  0.00    +0.000 A 
ATOM     14  C   UNL     1       8.175   6.752  18.731  0.00  0.00    +0.000 A 
ATOM     15  N   UNL     1       7.437   5.700  18.290  0.00  0.00    +0.000 NA
ATOM     16  C   UNL     1       6.567   6.001  17.283  0.00  0.00    +0.000 A 
ATOM     17  C   UNL     1       6.440   7.280  16.766  0.00  0.00    +0.000 A 
ATOM     18  N   UNL     1       7.191   8.323  17.208  0.00  0.00    +0.000 NA
ENDBRANCH   8  16
ENDBRANCH   7  10
ENDBRANCH   1   7
BRANCH   5  19
ATOM     19  C   UNL     1       1.454   5.264  20.945  0.00  0.00    +0.000 C 
BRANCH  19  20
ATOM     20  C   UNL     1       1.616   6.672  20.404  0.00  0.00    +0.000 C 
ATOM     21  C   UNL     1       1.185   7.802  20.993  0.00  0.00    +0.000 C 
BRANCH  21  22
ATOM     22  C   UNL     1       1.121   9.097  20.286  0.00  0.00    +0.000 A 
ATOM     23  C   UNL     1       0.773  10.275  20.969  0.00  0.00    +0.000 A 
ATOM     24  C   UNL     1       0.753  11.509  20.311  0.00  0.00    +0.000 A 
ATOM     25  C   UNL     1       1.097  11.589  18.968  0.00  0.00    +0.000 A 
ATOM     26  C   UNL     1       1.481  10.431  18.285  0.00  0.00    +0.000 A 
ATOM     27  C   UNL     1       1.504   9.198  18.944  0.00  0.00    +0.000 A 
ENDBRANCH  21  22
ENDBRANCH  19  20
ENDBRANCH   5  19
TORSDOF 6
ENDMDL
MODEL 2
REMARK VINA RESULT:      -7.3      3.114      7.780
REMARK  Name = 
REMARK  7 active torsions:
REMARK  status: ('A' for Active; 'I' for Inactive)
REMARK    1  A    between atoms: C_1  and  C_2
REMARK    2  A    between atoms: C_5  and  C_6
REMARK    3  A    between atoms: N_8  and  C_9
REMARK    4  A    between atoms: C_9  and  C_10
REMARK    5  A    between atoms: N_14  and  C_15
REMARK    6  A    between atoms: C_15  and  C_16
REMARK    7  A    between atoms: C_17  and  C_18
REMARK                            x       y       z     vdW  Elec       q    Type
REMARK                         _______ _______ _______ _____ _____    ______ ____
ROOT
ATOM      1  C   UNL     1       3.245   5.209  20.189  0.00  0.00    +0.000 C 
ATOM      2  C   UNL     1       3.088   3.691  19.937  0.00  0.00    +0.000 C 
ATOM      3  C   UNL     1       4.411   2.971  19.753  0.00  0.00    +0.000 C 
ATOM      4  C   UNL     1       5.276   3.693  18.738  0.00  0.00    +0.000 C 
ATOM      5  N   UNL     1       5.532   5.045  19.253  0.00  0.00    +0.000 NA
ATOM      6  C   UNL     1       4.278   5.837  19.210  0.00  0.00    +0.000 C 
ENDROOT
BRANCH   1   7
ATOM      7  C   UNL     1       1.819   5.796  20.133  0.00  0.00    +0.000 C 
BRANCH   7  10
ATOM      8  C   UNL     1       1.506   8.242  20.088  0.00  0.00    +0.000 C 
ATOM      9  O   UNL     1       1.898   8.376  18.934  0.00  0.00    +0.000 OA
ATOM     10  N   UNL     1       1.599   7.060  20.797  0.00  0.00    +0.000 N 
ATOM     11  H   UNL     1       1.119   7.061  21.694  0.00  0.00    +0.000 HD
BRANCH   8  16
ATOM     12  C   UNL     1      -0.994  12.463  22.956  0.00  0.00    +0.000 C 
ATOM     13  C   UNL     1      -0.319  11.365  22.194  0.00  0.00    +0.000 A 
ATOM     14  C   UNL     1      -0.113  11.447  20.817  0.00  0.00    +0.000 A 
ATOM     15  N   UNL     1       0.468  10.459  20.088  0.00  0.00    +0.000 NA
ATOM     16  C   UNL     1       0.849   9.369  20.814  0.00  0.00    +0.000 A 
ATOM     17  C   UNL     1       0.669   9.286  22.184  0.00  0.00    +0.000 A 
ATOM     18  N   UNL     1       0.077  10.277  22.903  0.00  0.00    +0.000 NA
ENDBRANCH   8  16
ENDBRANCH   7  10
ENDBRANCH   1   7
BRANCH   5  19
ATOM     19  C   UNL     1       6.696   5.663  18.601  0.00  0.00    +0.000 C 
BRANCH  19  20
ATOM     20  C   UNL     1       6.853   5.038  17.227  0.00  0.00    +0.000 C 
ATOM     21  C   UNL     1       6.781   5.684  16.049  0.00  0.00    +0.000 C 
BRANCH  21  22
ATOM     22  C   UNL     1       6.659   4.978  14.757  0.00  0.00    +0.000 A 
ATOM     23  C   UNL     1       5.525   4.202  14.464  0.00  0.00    +0.000 A 
ATOM     24  C   UNL     1       5.388   3.567  13.226  0.00  0.00    +0.000 A 
ATOM     25  C   UNL     1       6.371   3.712  12.255  0.00  0.00    +0.000 A 
ATOM     26  C   UNL     1       7.488   4.511  12.520  0.00  0.00    +0.000 A 
ATOM     27  C   UNL     1       7.623   5.148  13.757  0.00  0.00    +0.000 A 
ENDBRANCH  21  22
ENDBRANCH  19  20
ENDBRANCH   5  19
TORSDOF 6
ENDMDL
MODEL 3
REMARK VINA RESULT:      -7.3      3.136      7.803
REMARK  Name = 
REMARK  7 active torsions:
REMARK  status: ('A' for Active; 'I' for Inactive)
REMARK    1  A    between atoms: C_1  and  C_2
REMARK    2  A    between atoms: C_5  and  C_6
REMARK    3  A    between atoms: N_8  and  C_9
REMARK    4  A    between atoms: C_9  and  C_10
REMARK    5  A    between atoms: N_14  and  C_15
REMARK    6  A    between atoms: C_15  and  C_16
REMARK    7  A    between atoms: C_17  and  C_18
REMARK                            x       y       z     vdW  Elec       q    Type
REMARK                         _______ _______ _______ _____ _____    ______ ____
ROOT
ATOM      1  C   UNL     1       3.005   5.038  20.345  0.00  0.00    +0.000 C 
ATOM      2  C   UNL     1       2.848   3.513  20.141  0.00  0.00    +0.000 C 
ATOM      3  C   UNL     1       4.167   2.797  19.914  0.00  0.00    +0.000 C 
ATOM      4  C   UNL     1       4.979   3.497  18.842  0.00  0.00    +0.000 C 
ATOM      5  N   UNL     1       5.248   4.865  19.310  0.00  0.00    +0.000 NA
ATOM      6  C   UNL     1       3.987   5.646  19.304  0.00  0.00    +0.000 C 
ENDROOT
BRANCH   1   7
ATOM      7  C   UNL     1       1.572   5.613  20.339  0.00  0.00    +0.000 C 
BRANCH   7  10
ATOM      8  C   UNL     1       1.400   8.074  20.361  0.00  0.00    +0.000 C 
ATOM      9  O   UNL     1       1.903   8.223  19.254  0.00  0.00    +0.000 OA
ATOM     10  N   UNL     1       1.362   6.865  21.030  0.00  0.00    +0.000 N 
ATOM     11  H   UNL     1       0.802   6.864  21.879  0.00  0.00    +0.000 HD
BRANCH   8  16
ATOM     12  C   UNL     1      -1.064  12.483  22.966  0.00  0.00    +0.000 C 
ATOM     13  C   UNL     1      -0.435  11.311  22.279  0.00  0.00    +0.000 A 
ATOM     14  C   UNL     1      -0.454  10.034  22.841  0.00  0.00    +0.000 A 
ATOM     15  N   UNL     1       0.132   8.955  22.262  0.00  0.00    +0.000 NA
ATOM     16  C   UNL     1       0.741   9.212  21.068  0.00  0.00    +0.000 A 
ATOM     17  C   UNL     1       0.747  10.470  20.492  0.00  0.00    +0.000 A 
ATOM     18  N   UNL     1       0.166  11.547  21.085  0.00  0.00    +0.000 NA
ENDBRANCH   8  16
ENDBRANCH   7  10
ENDBRANCH   1   7
BRANCH   5  19
ATOM     19  C   UNL     1       6.375   5.472  18.590  0.00  0.00    +0.000 C 
BRANCH  19  20
ATOM     20  C   UNL     1       6.436   4.857  17.204  0.00  0.00    +0.000 C 
ATOM     21  C   UNL     1       7.036   5.391  16.125  0.00  0.00    +0.000 C 
BRANCH  21  22
ATOM     22  C   UNL     1       6.815   4.884  14.755  0.00  0.00    +0.000 A 
ATOM     23  C   UNL     1       7.692   5.221  13.711  0.00  0.00    +0.000 A 
ATOM     24  C   UNL     1       7.510   4.709  12.423  0.00  0.00    +0.000 A 
ATOM     25  C   UNL     1       6.460   3.838  12.162  0.00  0.00    +0.000 A 
ATOM     26  C   UNL     1       5.600   3.464  13.200  0.00  0.00    +0.000 A 
ATOM     27  C   UNL     1       5.786   3.975  14.488  0.00  0.00    +0.000 A 
ENDBRANCH  21  22
ENDBRANCH  19  20
ENDBRANCH   5  19
TORSDOF 6
ENDMDL
MODEL 4
REMARK VINA RESULT:      -7.3      3.046      7.717
REMARK  Name = 
REMARK  7 active torsions:
REMARK  status: ('A' for Active; 'I' for Inactive)
REMARK    1  A    between atoms: C_1  and  C_2
REMARK    2  A    between atoms: C_5  and  C_6
REMARK    3  A    between atoms: N_8  and  C_9
REMARK    4  A    between atoms: C_9  and  C_10
REMARK    5  A    between atoms: N_14  and  C_15
REMARK    6  A    between atoms: C_15  and  C_16
REMARK    7  A    between atoms: C_17  and  C_18
REMARK                            x       y       z     vdW  Elec       q    Type
REMARK                         _______ _______ _______ _____ _____    ______ ____
ROOT
ATOM      1  C   UNL     1       3.319   4.889  20.079  0.00  0.00    +0.000 C 
ATOM      2  C   UNL     1       3.186   3.378  19.778  0.00  0.00    +0.000 C 
ATOM      3  C   UNL     1       4.521   2.671  19.637  0.00  0.00    +0.000 C 
ATOM      4  C   UNL     1       5.429   3.427  18.685  0.00  0.00    +0.000 C 
ATOM      5  N   UNL     1       5.650   4.766  19.250  0.00  0.00    +0.000 NA
ATOM      6  C   UNL     1       4.393   5.550  19.169  0.00  0.00    +0.000 C 
ENDROOT
BRANCH   1   7
ATOM      7  C   UNL     1       1.893   5.468  19.971  0.00  0.00    +0.000 C 
BRANCH   7  10
ATOM      8  C   UNL     1       1.579   7.905  20.185  0.00  0.00    +0.000 C 
ATOM      9  O   UNL     1       2.092   8.171  19.104  0.00  0.00    +0.000 OA
ATOM     10  N   UNL     1       1.598   6.647  20.754  0.00  0.00    +0.000 N 
ATOM     11  H   UNL     1       1.024   6.545  21.588  0.00  0.00    +0.000 HD
BRANCH   8  16
ATOM     12  C   UNL     1      -1.250  11.916  23.048  0.00  0.00    +0.000 C 
ATOM     13  C   UNL     1      -0.517  10.844  22.304  0.00  0.00    +0.000 A 
ATOM     14  C   UNL     1       0.204   9.852  22.968  0.00  0.00    +0.000 A 
ATOM     15  N   UNL     1       0.905   8.882  22.326  0.00  0.00    +0.000 NA
ATOM     16  C   UNL     1       0.843   8.944  20.965  0.00  0.00    +0.000 A 
ATOM     17  C   UNL     1       0.113   9.911  20.296  0.00  0.00    +0.000 A 
ATOM     18  N   UNL     1      -0.578  10.884  20.948  0.00  0.00    +0.000 NA
ENDBRANCH   8  16
ENDBRANCH   7  10
ENDBRANCH   1   7
BRANCH   5  19
ATOM     19  C   UNL     1       6.838   5.409  18.672  0.00  0.00    +0.000 C 
BRANCH  19  20
ATOM     20  C   UNL     1       7.013   4.891  17.257  0.00  0.00    +0.000 C 
ATOM     21  C   UNL     1       6.769   5.578  16.126  0.00  0.00    +0.000 C 
BRANCH  21  22
ATOM     22  C   UNL     1       6.687   4.930  14.800  0.00  0.00    +0.000 A 
ATOM     23  C   UNL     1       5.633   4.055  14.490  0.00  0.00    +0.000 A 
ATOM     24  C   UNL     1       5.529   3.473  13.222  0.00  0.00    +0.000 A 
ATOM     25  C   UNL     1       6.466   3.771  12.240  0.00  0.00    +0.000 A 
ATOM     26  C   UNL     1       7.500   4.669  12.524  0.00  0.00    +0.000 A 
ATOM     27  C   UNL     1       7.601   5.252  13.791  0.00  0.00    +0.000 A 
ENDBRANCH  21  22
ENDBRANCH  19  20
ENDBRANCH   5  19
TORSDOF 6
ENDMDL
MODEL 5
REMARK VINA RESULT:      -7.2      3.725      6.788
REMARK  Name = 
REMARK  7 active torsions:
REMARK  status: ('A' for Active; 'I' for Inactive)
REMARK    1  A    between atoms: C_1  and  C_2
REMARK    2  A    between atoms: C_5  and  C_6
REMARK    3  A    between atoms: N_8  and  C_9
REMARK    4  A    between atoms: C_9  and  C_10
REMARK    5  A    between atoms: N_14  and  C_15
REMARK    6  A    between atoms: C_15  and  C_16
REMARK    7  A    between atoms: C_17  and  C_18
REMARK                            x       y       z     vdW  Elec       q    Type
REMARK                         _______ _______ _______ _____ _____    ______ ____
ROOT
ATOM      1  C   UNL     1       8.038   7.533  17.495  0.00  0.00    +0.000 C 
ATOM      2  C   UNL     1       8.158   7.182  18.997  0.00  0.00    +0.000 C 
ATOM      3  C   UNL     1       7.959   5.706  19.289  0.00  0.00    +0.000 C 
ATOM      4  C   UNL     1       6.698   5.193  18.620  0.00  0.00    +0.000 C 
ATOM      5  N   UNL     1       6.856   5.380  17.171  0.00  0.00    +0.000 NA
ATOM      6  C   UNL     1       6.809   6.828  16.851  0.00  0.00    +0.000 C 
ENDROOT
BRANCH   1   7
ATOM      7  C   UNL     1       8.048   9.074  17.420  0.00  0.00    +0.000 C 
BRANCH   7  10
ATOM      8  C   UNL     1       9.343  10.824  18.579  0.00  0.00    +0.000 C 
ATOM      9  O   UNL     1      10.116  11.016  17.648  0.00  0.00    +0.000 OA
ATOM     10  N   UNL     1       8.429   9.789  18.616  0.00  0.00    +0.000 N 
ATOM     11  H   UNL     1       7.768   9.830  19.389  0.00  0.00    +0.000 HD
BRANCH   8  16
ATOM     12  C   UNL     1       9.238  14.423  22.976  0.00  0.00    +0.000 C 
ATOM     13  C   UNL     1       9.245  13.468  21.823  0.00  0.00    +0.000 A 
ATOM     14  C   UNL     1       9.127  12.091  22.011  0.00  0.00    +0.000 A 
ATOM     15  N   UNL     1       9.159  11.193  20.993  0.00  0.00    +0.000 NA
ATOM     16  C   UNL     1       9.309  11.745  19.754  0.00  0.00    +0.000 A 
ATOM     17  C   UNL     1       9.405  13.111  19.555  0.00  0.00    +0.000 A 
ATOM     18  N   UNL     1       9.382  14.001  20.582  0.00  0.00    +0.000 NA
ENDBRANCH   8  16
ENDBRANCH   7  10
ENDBRANCH   1   7
BRANCH   5  19
ATOM     19  C   UNL     1       5.927   4.532  16.411  0.00  0.00    +0.000 C 
BRANCH  19  20
ATOM     20  C   UNL     1       4.854   4.036  17.362  0.00  0.00    +0.000 C 
ATOM     21  C   UNL     1       3.555   4.384  17.342  0.00  0.00    +0.000 C 
BRANCH  21  22
ATOM     22  C   UNL     1       2.633   4.092  18.459  0.00  0.00    +0.000 A 
ATOM     23  C   UNL     1       1.621   3.126  18.324  0.00  0.00    +0.000 A 
ATOM     24  C   UNL     1       0.773   2.818  19.393  0.00  0.00    +0.000 A 
ATOM     25  C   UNL     1       0.934   3.455  20.617  0.00  0.00    +0.000 A 
ATOM     26  C   UNL     1       1.960   4.392  20.776  0.00  0.00    +0.000 A 
ATOM     27  C   UNL     1       2.809   4.697  19.708  0.00  0.00    +0.000 A 
ENDBRANCH  21  22
ENDBRANCH  19  20
ENDBRANCH   5  19
TORSDOF 6
ENDMDL
MODEL 6
REMARK VINA RESULT:      -7.2      3.079      4.478
REMARK  Name = 
REMARK  7 active torsions:
REMARK  status: ('A' for Active; 'I' for Inactive)
REMARK    1  A    between atoms: C_1  and  C_2
REMARK    2  A    between atoms: C_5  and  C_6
REMARK    3  A    between atoms: N_8  and  C_9
REMARK    4  A    between atoms: C_9  and  C_10
REMARK    5  A    between atoms: N_14  and  C_15
REMARK    6  A    between atoms: C_15  and  C_16
REMARK    7  A    between atoms: C_17  and  C_18
REMARK                            x       y       z     vdW  Elec       q    Type
REMARK                         _______ _______ _______ _____ _____    ______ ____
ROOT
ATOM      1  C   UNL     1       2.050   6.189  19.222  0.00  0.00    +0.000 C 
ATOM      2  C   UNL     1       1.689   5.996  20.713  0.00  0.00    +0.000 C 
ATOM      3  C   UNL     1       0.847   7.124  21.280  0.00  0.00    +0.000 C 
ATOM      4  C   UNL     1       1.463   8.470  20.950  0.00  0.00    +0.000 C 
ATOM      5  N   UNL     1       1.506   8.591  19.485  0.00  0.00    +0.000 NA
ATOM      6  C   UNL     1       2.513   7.647  18.941  0.00  0.00    +0.000 C 
ENDROOT
BRANCH   1   7
ATOM      7  C   UNL     1       3.070   5.080  18.888  0.00  0.00    +0.000 C 
BRANCH   7  10
ATOM      8  C   UNL     1       5.188   4.629  17.707  0.00  0.00    +0.000 C 
ATOM      9  O   UNL     1       5.666   3.948  18.606  0.00  0.00    +0.000 OA
ATOM     10  N   UNL     1       4.018   5.352  17.831  0.00  0.00    +0.000 N 
ATOM     11  H   UNL     1       3.676   5.765  16.966  0.00  0.00    +0.000 HD
BRANCH   8  16
ATOM     12  C   UNL     1       7.737   4.962  12.639  0.00  0.00    +0.000 C 
ATOM     13  C   UNL     1       7.068   4.852  13.973  0.00  0.00    +0.000 A 
ATOM     14  C   UNL     1       5.883   4.136  14.143  0.00  0.00    +0.000 A 
ATOM     15  N   UNL     1       5.232   4.039  15.331  0.00  0.00    +0.000 NA
ATOM     16  C   UNL     1       5.836   4.696  16.363  0.00  0.00    +0.000 A 
ATOM     17  C   UNL     1       7.023   5.391  16.210  0.00  0.00    +0.000 A 
ATOM     18  N   UNL     1       7.662   5.490  15.014  0.00  0.00    +0.000 NA
ENDBRANCH   8  16
ENDBRANCH   7  10
ENDBRANCH   1   7
BRANCH   5  19
ATOM     19  C   UNL     1       1.653   9.990  19.061  0.00  0.00    +0.000 C 
BRANCH  19  20
ATOM     20  C   UNL     1       0.403  10.386  18.300  0.00  0.00    +0.000 C 
ATOM     21  C   UNL     1      -0.846  10.437  18.797  0.00  0.00    +0.000 C 
BRANCH  21  22
ATOM     22  C   UNL     1      -2.044  10.551  17.940  0.00  0.00    +0.000 A 
ATOM     23  C   UNL     1      -3.118  11.378  18.309  0.00  0.00    +0.000 A 
ATOM     24  C   UNL     1      -4.235  11.521  17.479  0.00  0.00    +0.000 A 
ATOM     25  C   UNL     1      -4.288  10.856  16.261  0.00  0.00    +0.000 A 
ATOM     26  C   UNL     1      -3.209  10.059  15.863  0.00  0.00    +0.000 A 
ATOM     27  C   UNL     1      -2.092   9.919  16.692  0.00  0.00    +0.000 A 
ENDBRANCH  21  22
ENDBRANCH  19  20
ENDBRANCH   5  19
TORSDOF 6
ENDMDL
MODEL 7
REMARK VINA RESULT:      -7.1      2.725      7.547
REMARK  Name = 
REMARK  7 active torsions:
REMARK  status: ('A' for Active; 'I' for Inactive)
REMARK    1  A    between atoms: C_1  and  C_2
REMARK    2  A    between atoms: C_5  and  C_6
REMARK    3  A    between atoms: N_8  and  C_9
REMARK    4  A    between atoms: C_9  and  C_10
REMARK    5  A    between atoms: N_14  and  C_15
REMARK    6  A    between atoms: C_15  and  C_16
REMARK    7  A    between atoms: C_17  and  C_18
REMARK                            x       y       z     vdW  Elec       q    Type
REMARK                         _______ _______ _______ _____ _____    ______ ____
ROOT
ATOM      1  C   UNL     1       4.784   5.784  19.061  0.00  0.00    +0.000 C 
ATOM      2  C   UNL     1       5.104   4.339  18.611  0.00  0.00    +0.000 C 
ATOM      3  C   UNL     1       6.515   4.173  18.079  0.00  0.00    +0.000 C 
ATOM      4  C   UNL     1       6.827   5.239  17.047  0.00  0.00    +0.000 C 
ATOM      5  N   UNL     1       6.714   6.546  17.710  0.00  0.00    +0.000 NA
ATOM      6  C   UNL     1       5.289   6.822  18.019  0.00  0.00    +0.000 C 
ENDROOT
BRANCH   1   7
ATOM      7  C   UNL     1       3.269   5.807  19.358  0.00  0.00    +0.000 C 
BRANCH   7  10
ATOM      8  C   UNL     1       1.986   7.913  19.428  0.00  0.00    +0.000 C 
ATOM      9  O   UNL     1       1.939   8.047  18.210  0.00  0.00    +0.000 OA
ATOM     10  N   UNL     1       2.753   6.957  20.065  0.00  0.00    +0.000 N 
ATOM     11  H   UNL     1       2.595   6.881  21.068  0.00  0.00    +0.000 HD
BRANCH   8  16
ATOM     12  C   UNL     1      -1.150  11.273  22.769  0.00  0.00    +0.000 C 
ATOM     13  C   UNL     1      -0.338  10.371  21.893  0.00  0.00    +0.000 A 
ATOM     14  C   UNL     1       0.266   9.216  22.389  0.00  0.00    +0.000 A 
ATOM     15  N   UNL     1       1.035   8.391  21.632  0.00  0.00    +0.000 NA
ATOM     16  C   UNL     1       1.166   8.774  20.330  0.00  0.00    +0.000 A 
ATOM     17  C   UNL     1       0.552   9.907  19.822  0.00  0.00    +0.000 A 
ATOM     18  N   UNL     1      -0.206  10.732  20.591  0.00  0.00    +0.000 NA
ENDBRANCH   8  16
ENDBRANCH   7  10
ENDBRANCH   1   7
BRANCH   5  19
ATOM     19  C   UNL     1       7.416   7.597  16.959  0.00  0.00    +0.000 C 
BRANCH  19  20
ATOM     20  C   UNL     1       8.198   8.441  17.948  0.00  0.00    +0.000 C 
ATOM     21  C   UNL     1       8.315   9.781  17.929  0.00  0.00    +0.000 C 
BRANCH  21  22
ATOM     22  C   UNL     1       9.312  10.508  18.741  0.00  0.00    +0.000 A 
ATOM     23  C   UNL     1      10.436  11.100  18.142  0.00  0.00    +0.000 A 
ATOM     24  C   UNL     1      11.360  11.824  18.903  0.00  0.00    +0.000 A 
ATOM     25  C   UNL     1      11.166  11.983  20.269  0.00  0.00    +0.000 A 
ATOM     26  C   UNL     1      10.032  11.429  20.873  0.00  0.00    +0.000 A 
ATOM     27  C   UNL     1       9.108  10.708  20.111  0.00  0.00    +0.000 A 
ENDBRANCH  21  22
ENDBRANCH  19  20
ENDBRANCH   5  19
TORSDOF 6
ENDMDL
MODEL 8
REMARK VINA RESULT:      -7.1      3.896      8.553
REMARK  Name = 
REMARK  7 active torsions:
REMARK  status: ('A' for Active; 'I' for Inactive)
REMARK    1  A    between atoms: C_1  and  C_2
REMARK    2  A    between atoms: C_5  and  C_6
REMARK    3  A    between atoms: N_8  and  C_9
REMARK    4  A    between atoms: C_9  and  C_10
REMARK    5  A    between atoms: N_14  and  C_15
REMARK    6  A    between atoms: C_15  and  C_16
REMARK    7  A    between atoms: C_17  and  C_18
REMARK                            x       y       z     vdW  Elec       q    Type
REMARK                         _______ _______ _______ _____ _____    ______ ____
ROOT
ATOM      1  C   UNL     1       2.207   6.635  19.423  0.00  0.00    +0.000 C 
ATOM      2  C   UNL     1       2.642   7.863  18.589  0.00  0.00    +0.000 C 
ATOM      3  C   UNL     1       3.367   7.495  17.308  0.00  0.00    +0.000 C 
ATOM      4  C   UNL     1       4.474   6.498  17.587  0.00  0.00    +0.000 C 
ATOM      5  N   UNL     1       3.854   5.291  18.152  0.00  0.00    +0.000 NA
ATOM      6  C   UNL     1       3.351   5.586  19.516  0.00  0.00    +0.000 C 
ENDROOT
BRANCH   1   7
ATOM      7  C   UNL     1       1.694   7.198  20.765  0.00  0.00    +0.000 C 
BRANCH   7  10
ATOM      8  C   UNL     1       0.023   8.875  21.458  0.00  0.00    +0.000 C 
ATOM      9  O   UNL     1      -0.788   8.051  21.865  0.00  0.00    +0.000 OA
ATOM     10  N   UNL     1       1.167   8.543  20.758  0.00  0.00    +0.000 N 
ATOM     11  H   UNL     1       1.810   9.316  20.597  0.00  0.00    +0.000 HD
BRANCH   8  16
ATOM     12  C   UNL     1      -0.725  14.392  22.598  0.00  0.00    +0.000 C 
ATOM     13  C   UNL     1      -0.506  12.941  22.299  0.00  0.00    +0.000 A 
ATOM     14  C   UNL     1       0.220  12.524  21.183  0.00  0.00    +0.000 A 
ATOM     15  N   UNL     1       0.414  11.218  20.864  0.00  0.00    +0.000 NA
ATOM     16  C   UNL     1      -0.153  10.332  21.733  0.00  0.00    +0.000 A 
ATOM     17  C   UNL     1      -0.857  10.735  22.855  0.00  0.00    +0.000 A 
ATOM     18  N   UNL     1      -1.054  12.046  23.159  0.00  0.00    +0.000 NA
ENDBRANCH   8  16
ENDBRANCH   7  10
ENDBRANCH   1   7
BRANCH   5  19
ATOM     19  C   UNL     1       4.739   4.123  18.040  0.00  0.00    +0.000 C 
BRANCH  19  20
ATOM     20  C   UNL     1       5.119   3.957  16.581  0.00  0.00    +0.000 C 
ATOM     21  C   UNL     1       6.330   4.194  16.045  0.00  0.00    +0.000 C 
BRANCH  21  22
ATOM     22  C   UNL     1       6.554   4.286  14.588  0.00  0.00    +0.000 A 
ATOM     23  C   UNL     1       7.540   5.139  14.063  0.00  0.00    +0.000 A 
ATOM     24  C   UNL     1       7.783   5.198  12.687  0.00  0.00    +0.000 A 
ATOM     25  C   UNL     1       7.059   4.393  11.816  0.00  0.00    +0.000 A 
ATOM     26  C   UNL     1       6.100   3.513  12.328  0.00  0.00    +0.000 A 
ATOM     27  C   UNL     1       5.859   3.453  13.704  0.00  0.00    +0.000 A 
ENDBRANCH  21  22
ENDBRANCH  19  20
ENDBRANCH   5  19
TORSDOF 6
ENDMDL
MODEL 9
REMARK VINA RESULT:      -7.1      3.544      8.195
REMARK  Name = 
REMARK  7 active torsions:
REMARK  status: ('A' for Active; 'I' for Inactive)
REMARK    1  A    between atoms: C_1  and  C_2
REMARK    2  A    between atoms: C_5  and  C_6
REMARK    3  A    between atoms: N_8  and  C_9
REMARK    4  A    between atoms: C_9  and  C_10
REMARK    5  A    between atoms: N_14  and  C_15
REMARK    6  A    between atoms: C_15  and  C_16
REMARK    7  A    between atoms: C_17  and  C_18
REMARK                            x       y       z     vdW  Elec       q    Type
REMARK                         _______ _______ _______ _____ _____    ______ ____
ROOT
ATOM      1  C   UNL     1       2.999   6.601  18.547  0.00  0.00    +0.000 C 
ATOM      2  C   UNL     1       2.117   5.364  18.258  0.00  0.00    +0.000 C 
ATOM      3  C   UNL     1       2.803   4.047  18.573  0.00  0.00    +0.000 C 
ATOM      4  C   UNL     1       4.182   3.999  17.945  0.00  0.00    +0.000 C 
ATOM      5  N   UNL     1       4.969   5.101  18.517  0.00  0.00    +0.000 NA
ATOM      6  C   UNL     1       4.446   6.395  18.015  0.00  0.00    +0.000 C 
ENDROOT
BRANCH   1   7
ATOM      7  C   UNL     1       2.232   7.809  17.970  0.00  0.00    +0.000 C 
BRANCH   7  10
ATOM      8  C   UNL     1       0.644   9.563  18.668  0.00  0.00    +0.000 C 
ATOM      9  O   UNL     1       0.128   9.682  17.563  0.00  0.00    +0.000 OA
ATOM     10  N   UNL     1       1.777   8.810  18.909  0.00  0.00    +0.000 N 
ATOM     11  H   UNL     1       2.017   8.700  19.892  0.00  0.00    +0.000 HD
BRANCH   8  16
ATOM     12  C   UNL     1      -1.619  11.929  23.313  0.00  0.00    +0.000 C 
ATOM     13  C   UNL     1      -1.008  11.322  22.089  0.00  0.00    +0.000 A 
ATOM     14  C   UNL     1      -0.949  12.014  20.878  0.00  0.00    +0.000 A 
ATOM     15  N   UNL     1      -0.430  11.485  19.741  0.00  0.00    +0.000 NA
ATOM     16  C   UNL     1       0.046  10.213  19.872  0.00  0.00    +0.000 A 
ATOM     17  C   UNL     1       0.013   9.526  21.074  0.00  0.00    +0.000 A 
ATOM     18  N   UNL     1      -0.519  10.061  22.205  0.00  0.00    +0.000 NA
ENDBRANCH   8  16
ENDBRANCH   7  10
ENDBRANCH   1   7
BRANCH   5  19
ATOM     19  C   UNL     1       6.412   4.887  18.336  0.00  0.00    +0.000 C 
BRANCH  19  20
ATOM     20  C   UNL     1       6.650   4.463  16.899  0.00  0.00    +0.000 C 
ATOM     21  C   UNL     1       6.910   5.282  15.864  0.00  0.00    +0.000 C 
BRANCH  21  22
ATOM     22  C   UNL     1       6.849   4.835  14.457  0.00  0.00    +0.000 A 
ATOM     23  C   UNL     1       7.737   5.349  13.498  0.00  0.00    +0.000 A 
ATOM     24  C   UNL     1       7.709   4.897  12.174  0.00  0.00    +0.000 A 
ATOM     25  C   UNL     1       6.805   3.913  11.793  0.00  0.00    +0.000 A 
ATOM     26  C   UNL     1       5.939   3.366  12.746  0.00  0.00    +0.000 A 
ATOM     27  C   UNL     1       5.971   3.817  14.069  0.00  0.00    +0.000 A 
ENDBRANCH  21  22
ENDBRANCH  19  20
ENDBRANCH   5  19
TORSDOF 6
ENDMDL
