MODEL 1
REMARK VINA RESULT:      -9.2      0.000      0.000
REMARK  Name = 
REMARK  2 active torsions:
REMARK  status: ('A' for Active; 'I' for Inactive)
REMARK    1  A    between atoms: C_11  and  C_12
REMARK    2  A    between atoms: C_16  and  C_17
REMARK                            x       y       z     vdW  Elec       q    Type
REMARK                         _______ _______ _______ _____ _____    ______ ____
ROOT
ATOM      1  C   UNL     1       2.563   6.785  19.487  0.00  0.00    +0.000 A 
ATOM      2  C   UNL     1       3.447   7.457  18.641  0.00  0.00    +0.000 A 
ATOM      3  C   UNL     1       4.176   6.764  17.665  0.00  0.00    +0.000 A 
ATOM      4  C   UNL     1       4.025   5.368  17.547  0.00  0.00    +0.000 A 
ATOM      5  C   UNL     1       4.543   4.333  16.700  0.00  0.00    +0.000 A 
ATOM      6  N   UNL     1       4.006   3.142  17.016  0.00  0.00    +0.000 NA
ATOM      7  N   UNL     1       3.212   3.403  18.067  0.00  0.00    +0.000 N 
ATOM      8  C   UNL     1       3.151   4.723  18.415  0.00  0.00    +0.000 A 
ATOM      9  C   UNL     1       2.411   5.392  19.400  0.00  0.00    +0.000 A 
ATOM     10  H   UNL     1       2.717   2.631  18.496  0.00  0.00    +0.000 HD
ENDROOT
BRANCH   1  21
ATOM     11  O   UNL     1       1.498   9.039  17.782  0.00  0.00    +0.000 OA
ATOM     12  C   UNL     1       0.993   9.355  18.842  0.00  0.00    +0.000 C 
ATOM     13  N   UNL     1       0.197  10.466  19.070  0.00  0.00    +0.000 N 
ATOM     14  C   UNL     1      -0.212  10.539  20.397  0.00  0.00    +0.000 A 
ATOM     15  C   UNL     1      -0.996  11.523  20.959  0.00  0.00    +0.000 A 
ATOM     16  C   UNL     1      -1.279  11.414  22.321  0.00  0.00    +0.000 A 
ATOM     17  C   UNL     1      -0.778  10.335  23.075  0.00  0.00    +0.000 A 
ATOM     18  C   UNL     1       0.016   9.345  22.480  0.00  0.00    +0.000 A 
ATOM     19  C   UNL     1       0.296   9.461  21.129  0.00  0.00    +0.000 A 
ATOM     20  C   UNL     1       1.083   8.664  20.179  0.00  0.00    +0.000 C 
ATOM     21  C   UNL     1       1.763   7.541  20.455  0.00  0.00    +0.000 C 
ATOM     22  H   UNL     1      -0.033  11.122  18.342  0.00  0.00    +0.000 HD
ENDBRANCH   1  21
BRANCH   5  23
ATOM     23  C   UNL     1       5.499   4.457  15.600  0.00  0.00    +0.000 A 
ATOM     24  C   UNL     1       5.264   3.859  14.359  0.00  0.00    +0.000 A 
ATOM     25  C   UNL     1       6.191   4.006  13.327  0.00  0.00    +0.000 A 
ATOM     26  C   UNL     1       7.333   4.753  13.570  0.00  0.00    +0.000 A 
ATOM     27  N   UNL     1       7.603   5.342  14.752  0.00  0.00    +0.000 NA
ATOM     28  C   UNL     1       6.687   5.170  15.738  0.00  0.00    +0.000 A 
ENDBRANCH   5  23
TORSDOF 2
ENDMDL
MODEL 2
REMARK VINA RESULT:      -8.8      1.683      2.590
REMARK  Name = 
REMARK  2 active torsions:
REMARK  status: ('A' for Active; 'I' for Inactive)
REMARK    1  A    between atoms: C_11  and  C_12
REMARK    2  A    between atoms: C_16  and  C_17
REMARK                            x       y       z     vdW  Elec       q    Type
REMARK                         _______ _______ _______ _____ _____    ______ ____
ROOT
ATOM      1  C   UNL     1       1.456   8.880  19.013  0.00  0.00    +0.000 A 
ATOM      2  C   UNL     1       2.203   9.038  17.845  0.00  0.00    +0.000 A 
ATOM      3  C   UNL     1       3.156   8.082  17.466  0.00  0.00    +0.000 A 
ATOM      4  C   UNL     1       3.371   6.954  18.284  0.00  0.00    +0.000 A 
ATOM      5  C   UNL     1       4.196   5.783  18.244  0.00  0.00    +0.000 A 
ATOM      6  N   UNL     1       3.954   4.991  19.303  0.00  0.00    +0.000 NA
ATOM      7  N   UNL     1       3.042   5.665  20.022  0.00  0.00    +0.000 N 
ATOM      8  C   UNL     1       2.624   6.833  19.450  0.00  0.00    +0.000 A 
ATOM      9  C   UNL     1       1.666   7.775  19.852  0.00  0.00    +0.000 A 
ATOM     10  H   UNL     1       2.726   5.260  20.894  0.00  0.00    +0.000 HD
ENDROOT
BRANCH   1  21
ATOM     11  O   UNL     1       1.560   8.871  22.033  0.00  0.00    +0.000 OA
ATOM     12  C   UNL     1       0.667   9.682  21.881  0.00  0.00    +0.000 C 
ATOM     13  N   UNL     1      -0.032  10.326  22.889  0.00  0.00    +0.000 N 
ATOM     14  C   UNL     1      -0.995  11.188  22.375  0.00  0.00    +0.000 A 
ATOM     15  C   UNL     1      -1.871  11.965  23.100  0.00  0.00    +0.000 A 
ATOM     16  C   UNL     1      -2.773  12.752  22.383  0.00  0.00    +0.000 A 
ATOM     17  C   UNL     1      -2.773  12.742  20.975  0.00  0.00    +0.000 A 
ATOM     18  C   UNL     1      -1.872  11.943  20.259  0.00  0.00    +0.000 A 
ATOM     19  C   UNL     1      -0.982  11.162  20.975  0.00  0.00    +0.000 A 
ATOM     20  C   UNL     1       0.069  10.207  20.600  0.00  0.00    +0.000 C 
ATOM     21  C   UNL     1       0.419   9.860  19.353  0.00  0.00    +0.000 C 
ATOM     22  H   UNL     1       0.156  10.164  23.864  0.00  0.00    +0.000 HD
ENDBRANCH   1  21
BRANCH   5  23
ATOM     23  C   UNL     1       5.171   5.396  17.225  0.00  0.00    +0.000 A 
ATOM     24  C   UNL     1       4.946   4.308  16.376  0.00  0.00    +0.000 A 
ATOM     25  C   UNL     1       5.892   3.972  15.408  0.00  0.00    +0.000 A 
ATOM     26  C   UNL     1       7.041   4.741  15.316  0.00  0.00    +0.000 A 
ATOM     27  N   UNL     1       7.302   5.794  16.116  0.00  0.00    +0.000 NA
ATOM     28  C   UNL     1       6.368   6.086  17.056  0.00  0.00    +0.000 A 
ENDBRANCH   5  23
TORSDOF 2
ENDMDL
MODEL 3
REMARK VINA RESULT:      -8.8      2.316      3.725
REMARK  Name = 
REMARK  2 active torsions:
REMARK  status: ('A' for Active; 'I' for Inactive)
REMARK    1  A    between atoms: C_11  and  C_12
REMARK    2  A    between atoms: C_16  and  C_17
REMARK                            x       y       z     vdW  Elec       q    Type
REMARK                         _______ _______ _______ _____ _____    ______ ____
ROOT
ATOM      1  C   UNL     1       0.312   9.719  19.472  0.00  0.00    +0.000 A 
ATOM      2  C   UNL     1       0.877   9.734  18.195  0.00  0.00    +0.000 A 
ATOM      3  C   UNL     1       1.830   8.778  17.820  0.00  0.00    +0.000 A 
ATOM      4  C   UNL     1       2.232   7.796  18.748  0.00  0.00    +0.000 A 
ATOM      5  C   UNL     1       3.121   6.672  18.753  0.00  0.00    +0.000 A 
ATOM      6  N   UNL     1       3.082   6.037  19.938  0.00  0.00    +0.000 NA
ATOM      7  N   UNL     1       2.236   6.769  20.681  0.00  0.00    +0.000 N 
ATOM      8  C   UNL     1       1.665   7.817  20.017  0.00  0.00    +0.000 A 
ATOM      9  C   UNL     1       0.711   8.763  20.418  0.00  0.00    +0.000 A 
ATOM     10  H   UNL     1       2.073   6.485  21.639  0.00  0.00    +0.000 HD
ENDROOT
BRANCH   1  21
ATOM     11  O   UNL     1       1.911  11.883  20.846  0.00  0.00    +0.000 OA
ATOM     12  C   UNL     1       0.804  12.376  20.950  0.00  0.00    +0.000 C 
ATOM     13  N   UNL     1       0.501  13.581  21.564  0.00  0.00    +0.000 N 
ATOM     14  C   UNL     1      -0.862  13.851  21.516  0.00  0.00    +0.000 A 
ATOM     15  C   UNL     1      -1.499  14.952  22.046  0.00  0.00    +0.000 A 
ATOM     16  C   UNL     1      -2.884  15.022  21.899  0.00  0.00    +0.000 A 
ATOM     17  C   UNL     1      -3.589  14.000  21.234  0.00  0.00    +0.000 A 
ATOM     18  C   UNL     1      -2.919  12.890  20.702  0.00  0.00    +0.000 A 
ATOM     19  C   UNL     1      -1.545  12.824  20.853  0.00  0.00    +0.000 A 
ATOM     20  C   UNL     1      -0.521  11.844  20.467  0.00  0.00    +0.000 C 
ATOM     21  C   UNL     1      -0.731  10.690  19.818  0.00  0.00    +0.000 C 
ATOM     22  H   UNL     1       1.205  14.162  21.987  0.00  0.00    +0.000 HD
ENDBRANCH   1  21
BRANCH   5  23
ATOM     23  C   UNL     1       3.969   6.182  17.667  0.00  0.00    +0.000 A 
ATOM     24  C   UNL     1       3.988   4.831  17.310  0.00  0.00    +0.000 A 
ATOM     25  C   UNL     1       4.800   4.398  16.262  0.00  0.00    +0.000 A 
ATOM     26  C   UNL     1       5.572   5.338  15.597  0.00  0.00    +0.000 A 
ATOM     27  N   UNL     1       5.590   6.649  15.911  0.00  0.00    +0.000 NA
ATOM     28  C   UNL     1       4.797   7.034  16.943  0.00  0.00    +0.000 A 
ENDBRANCH   5  23
TORSDOF 2
ENDMDL
MODEL 4
REMARK VINA RESULT:      -8.8      3.032      9.240
REMARK  Name = 
REMARK  2 active torsions:
REMARK  status: ('A' for Active; 'I' for Inactive)
REMARK    1  A    between atoms: C_11  and  C_12
REMARK    2  A    between atoms: C_16  and  C_17
REMARK                            x       y       z     vdW  Elec       q    Type
REMARK                         _______ _______ _______ _____ _____    ______ ____
ROOT
ATOM      1  C   UNL     1       1.575   9.697  18.033  0.00  0.00    +0.000 A 
ATOM      2  C   UNL     1       2.237  10.892  18.323  0.00  0.00    +0.000 A 
ATOM      3  C   UNL     1       1.522  12.034  18.709  0.00  0.00    +0.000 A 
ATOM      4  C   UNL     1       0.116  11.979  18.793  0.00  0.00    +0.000 A 
ATOM      5  C   UNL     1      -0.940  12.876  19.160  0.00  0.00    +0.000 A 
ATOM      6  N   UNL     1      -2.134  12.260  19.097  0.00  0.00    +0.000 NA
ATOM      7  N   UNL     1      -1.849  11.026  18.651  0.00  0.00    +0.000 N 
ATOM      8  C   UNL     1      -0.516  10.781  18.482  0.00  0.00    +0.000 A 
ATOM      9  C   UNL     1       0.175   9.624  18.092  0.00  0.00    +0.000 A 
ATOM     10  H   UNL     1      -2.617  10.383  18.500  0.00  0.00    +0.000 HD
ENDROOT
BRANCH   1  21
ATOM     11  O   UNL     1       1.435   8.123  20.608  0.00  0.00    +0.000 OA
ATOM     12  C   UNL     1       2.116   7.354  19.958  0.00  0.00    +0.000 C 
ATOM     13  N   UNL     1       2.632   6.146  20.399  0.00  0.00    +0.000 N 
ATOM     14  C   UNL     1       3.374   5.514  19.407  0.00  0.00    +0.000 A 
ATOM     15  C   UNL     1       4.033   4.309  19.520  0.00  0.00    +0.000 A 
ATOM     16  C   UNL     1       4.736   3.859  18.402  0.00  0.00    +0.000 A 
ATOM     17  C   UNL     1       4.758   4.614  17.215  0.00  0.00    +0.000 A 
ATOM     18  C   UNL     1       4.078   5.836  17.123  0.00  0.00    +0.000 A 
ATOM     19  C   UNL     1       3.386   6.280  18.236  0.00  0.00    +0.000 A 
ATOM     20  C   UNL     1       2.592   7.480  18.533  0.00  0.00    +0.000 C 
ATOM     21  C   UNL     1       2.349   8.499  17.695  0.00  0.00    +0.000 C 
ATOM     22  H   UNL     1       2.473   5.801  21.331  0.00  0.00    +0.000 HD
ENDBRANCH   1  21
BRANCH   5  23
ATOM     23  C   UNL     1      -0.837  14.270  19.587  0.00  0.00    +0.000 A 
ATOM     24  C   UNL     1      -0.256  15.243  18.768  0.00  0.00    +0.000 A 
ATOM     25  C   UNL     1      -0.182  16.566  19.201  0.00  0.00    +0.000 A 
ATOM     26  C   UNL     1      -0.698  16.880  20.449  0.00  0.00    +0.000 A 
ATOM     27  N   UNL     1      -1.261  15.974  21.274  0.00  0.00    +0.000 NA
ATOM     28  C   UNL     1      -1.306  14.693  20.827  0.00  0.00    +0.000 A 
ENDBRANCH   5  23
TORSDOF 2
ENDMDL
MODEL 5
REMARK VINA RESULT:      -8.8      2.712      9.566
REMARK  Name = 
REMARK  2 active torsions:
REMARK  status: ('A' for Active; 'I' for Inactive)
REMARK    1  A    between atoms: C_11  and  C_12
REMARK    2  A    between atoms: C_16  and  C_17
REMARK                            x       y       z     vdW  Elec       q    Type
REMARK                         _______ _______ _______ _____ _____    ______ ____
ROOT
ATOM      1  C   UNL     1       1.036   9.582  18.271  0.00  0.00    +0.000 A 
ATOM      2  C   UNL     1      -0.294   9.341  17.923  0.00  0.00    +0.000 A 
ATOM      3  C   UNL     1      -1.323  10.163  18.404  0.00  0.00    +0.000 A 
ATOM      4  C   UNL     1      -1.011  11.238  19.260  0.00  0.00    +0.000 A 
ATOM      5  C   UNL     1      -1.733  12.285  19.921  0.00  0.00    +0.000 A 
ATOM      6  N   UNL     1      -0.896  13.087  20.602  0.00  0.00    +0.000 NA
ATOM      7  N   UNL     1       0.315  12.533  20.425  0.00  0.00    +0.000 N 
ATOM      8  C   UNL     1       0.321  11.442  19.603  0.00  0.00    +0.000 A 
ATOM      9  C   UNL     1       1.368  10.635  19.137  0.00  0.00    +0.000 A 
ATOM     10  H   UNL     1       1.109  12.965  20.881  0.00  0.00    +0.000 HD
ENDROOT
BRANCH   1  21
ATOM     11  O   UNL     1       1.470   7.549  20.464  0.00  0.00    +0.000 OA
ATOM     12  C   UNL     1       2.308   7.154  19.677  0.00  0.00    +0.000 C 
ATOM     13  N   UNL     1       3.165   6.081  19.865  0.00  0.00    +0.000 N 
ATOM     14  C   UNL     1       4.006   5.900  18.773  0.00  0.00    +0.000 A 
ATOM     15  C   UNL     1       4.984   4.938  18.642  0.00  0.00    +0.000 A 
ATOM     16  C   UNL     1       5.731   4.941  17.464  0.00  0.00    +0.000 A 
ATOM     17  C   UNL     1       5.482   5.895  16.458  0.00  0.00    +0.000 A 
ATOM     18  C   UNL     1       4.480   6.863  16.613  0.00  0.00    +0.000 A 
ATOM     19  C   UNL     1       3.745   6.857  17.785  0.00  0.00    +0.000 A 
ATOM     20  C   UNL     1       2.660   7.695  18.314  0.00  0.00    +0.000 C 
ATOM     21  C   UNL     1       2.100   8.749  17.702  0.00  0.00    +0.000 C 
ATOM     22  H   UNL     1       3.155   5.525  20.703  0.00  0.00    +0.000 HD
ENDBRANCH   1  21
BRANCH   5  23
ATOM     23  C   UNL     1      -3.171  12.550  19.894  0.00  0.00    +0.000 A 
ATOM     24  C   UNL     1      -3.989  12.032  18.886  0.00  0.00    +0.000 A 
ATOM     25  C   UNL     1      -5.359  12.295  18.896  0.00  0.00    +0.000 A 
ATOM     26  C   UNL     1      -5.872  13.073  19.923  0.00  0.00    +0.000 A 
ATOM     27  N   UNL     1      -5.120  13.597  20.911  0.00  0.00    +0.000 NA
ATOM     28  C   UNL     1      -3.789  13.332  20.865  0.00  0.00    +0.000 A 
ENDBRANCH   5  23
TORSDOF 2
ENDMDL
MODEL 6
REMARK VINA RESULT:      -8.7      2.730      9.530
REMARK  Name = 
REMARK  2 active torsions:
REMARK  status: ('A' for Active; 'I' for Inactive)
REMARK    1  A    between atoms: C_11  and  C_12
REMARK    2  A    between atoms: C_16  and  C_17
REMARK                            x       y       z     vdW  Elec       q    Type
REMARK                         _______ _______ _______ _____ _____    ______ ____
ROOT
ATOM      1  C   UNL     1       1.129   9.683  18.293  0.00  0.00    +0.000 A 
ATOM      2  C   UNL     1       1.471  10.575  19.311  0.00  0.00    +0.000 A 
ATOM      3  C   UNL     1       0.510  11.430  19.870  0.00  0.00    +0.000 A 
ATOM      4  C   UNL     1      -0.814  11.397  19.387  0.00  0.00    +0.000 A 
ATOM      5  C   UNL     1      -2.049  12.059  19.691  0.00  0.00    +0.000 A 
ATOM      6  N   UNL     1      -3.044  11.591  18.918  0.00  0.00    +0.000 NA
ATOM      7  N   UNL     1      -2.449  10.700  18.109  0.00  0.00    +0.000 N 
ATOM      8  C   UNL     1      -1.119  10.511  18.361  0.00  0.00    +0.000 A 
ATOM      9  C   UNL     1      -0.178   9.646  17.784  0.00  0.00    +0.000 A 
ATOM     10  H   UNL     1      -3.016  10.234  17.412  0.00  0.00    +0.000 HD
ENDROOT
BRANCH   1  21
ATOM     11  O   UNL     1       1.374   7.699  20.559  0.00  0.00    +0.000 OA
ATOM     12  C   UNL     1       2.192   7.216  19.801  0.00  0.00    +0.000 C 
ATOM     13  N   UNL     1       2.961   6.089  20.040  0.00  0.00    +0.000 N 
ATOM     14  C   UNL     1       3.804   5.808  18.970  0.00  0.00    +0.000 A 
ATOM     15  C   UNL     1       4.708   4.771  18.889  0.00  0.00    +0.000 A 
ATOM     16  C   UNL     1       5.472   4.678  17.725  0.00  0.00    +0.000 A 
ATOM     17  C   UNL     1       5.311   5.612  16.684  0.00  0.00    +0.000 A 
ATOM     18  C   UNL     1       4.384   6.658  16.789  0.00  0.00    +0.000 A 
ATOM     19  C   UNL     1       3.632   6.747  17.948  0.00  0.00    +0.000 A 
ATOM     20  C   UNL     1       2.605   7.682  18.428  0.00  0.00    +0.000 C 
ATOM     21  C   UNL     1       2.136   8.753  17.772  0.00  0.00    +0.000 C 
ATOM     22  H   UNL     1       2.896   5.564  20.896  0.00  0.00    +0.000 HD
ENDBRANCH   1  21
BRANCH   5  23
ATOM     23  C   UNL     1      -2.301  13.085  20.701  0.00  0.00    +0.000 A 
ATOM     24  C   UNL     1      -2.980  12.790  21.887  0.00  0.00    +0.000 A 
ATOM     25  C   UNL     1      -3.195  13.790  22.835  0.00  0.00    +0.000 A 
ATOM     26  C   UNL     1      -2.720  15.064  22.567  0.00  0.00    +0.000 A 
ATOM     27  N   UNL     1      -2.066  15.395  21.435  0.00  0.00    +0.000 NA
ATOM     28  C   UNL     1      -1.885  14.402  20.528  0.00  0.00    +0.000 A 
ENDBRANCH   5  23
TORSDOF 2
ENDMDL
MODEL 7
REMARK VINA RESULT:      -8.7      1.976      3.052
REMARK  Name = 
REMARK  2 active torsions:
REMARK  status: ('A' for Active; 'I' for Inactive)
REMARK    1  A    between atoms: C_11  and  C_12
REMARK    2  A    between atoms: C_16  and  C_17
REMARK                            x       y       z     vdW  Elec       q    Type
REMARK                         _______ _______ _______ _____ _____    ______ ____
ROOT
ATOM      1  C   UNL     1       1.130   9.403  19.709  0.00  0.00    +0.000 A 
ATOM      2  C   UNL     1       1.690   9.578  18.442  0.00  0.00    +0.000 A 
ATOM      3  C   UNL     1       2.502   8.588  17.872  0.00  0.00    +0.000 A 
ATOM      4  C   UNL     1       2.767   7.406  18.593  0.00  0.00    +0.000 A 
ATOM      5  C   UNL     1       3.492   6.190  18.367  0.00  0.00    +0.000 A 
ATOM      6  N   UNL     1       3.368   5.358  19.416  0.00  0.00    +0.000 NA
ATOM      7  N   UNL     1       2.631   6.047  20.303  0.00  0.00    +0.000 N 
ATOM      8  C   UNL     1       2.209   7.268  19.859  0.00  0.00    +0.000 A 
ATOM      9  C   UNL     1       1.395   8.243  20.453  0.00  0.00    +0.000 A 
ATOM     10  H   UNL     1       2.432   5.614  21.197  0.00  0.00    +0.000 HD
ENDROOT
BRANCH   1  21
ATOM     11  O   UNL     1      -1.121   9.390  17.694  0.00  0.00    +0.000 OA
ATOM     12  C   UNL     1      -1.541  10.258  18.435  0.00  0.00    +0.000 C 
ATOM     13  N   UNL     1      -2.718  10.970  18.274  0.00  0.00    +0.000 N 
ATOM     14  C   UNL     1      -2.901  11.895  19.297  0.00  0.00    +0.000 A 
ATOM     15  C   UNL     1      -3.955  12.772  19.430  0.00  0.00    +0.000 A 
ATOM     16  C   UNL     1      -3.937  13.631  20.529  0.00  0.00    +0.000 A 
ATOM     17  C   UNL     1      -2.878  13.590  21.456  0.00  0.00    +0.000 A 
ATOM     18  C   UNL     1      -1.817  12.687  21.300  0.00  0.00    +0.000 A 
ATOM     19  C   UNL     1      -1.838  11.840  20.206  0.00  0.00    +0.000 A 
ATOM     20  C   UNL     1      -0.929  10.802  19.701  0.00  0.00    +0.000 C 
ATOM     21  C   UNL     1       0.231  10.424  20.256  0.00  0.00    +0.000 C 
ATOM     22  H   UNL     1      -3.340  10.815  17.498  0.00  0.00    +0.000 HD
ENDBRANCH   1  21
BRANCH   5  23
ATOM     23  C   UNL     1       4.262   5.801  17.187  0.00  0.00    +0.000 A 
ATOM     24  C   UNL     1       4.420   4.459  16.829  0.00  0.00    +0.000 A 
ATOM     25  C   UNL     1       5.152   4.123  15.691  0.00  0.00    +0.000 A 
ATOM     26  C   UNL     1       5.707   5.146  14.939  0.00  0.00    +0.000 A 
ATOM     27  N   UNL     1       5.586   6.452  15.250  0.00  0.00    +0.000 NA
ATOM     28  C   UNL     1       4.878   6.745  16.370  0.00  0.00    +0.000 A 
ENDBRANCH   5  23
TORSDOF 2
ENDMDL
MODEL 8
REMARK VINA RESULT:      -8.7      2.144      9.402
REMARK  Name = 
REMARK  2 active torsions:
REMARK  status: ('A' for Active; 'I' for Inactive)
REMARK    1  A    between atoms: C_11  and  C_12
REMARK    2  A    between atoms: C_16  and  C_17
REMARK                            x       y       z     vdW  Elec       q    Type
REMARK                         _______ _______ _______ _____ _____    ______ ____
ROOT
ATOM      1  C   UNL     1       1.695   8.698  19.267  0.00  0.00    +0.000 A 
ATOM      2  C   UNL     1       0.728   9.560  18.749  0.00  0.00    +0.000 A 
ATOM      3  C   UNL     1      -0.122  10.282  19.598  0.00  0.00    +0.000 A 
ATOM      4  C   UNL     1      -0.006  10.124  20.995  0.00  0.00    +0.000 A 
ATOM      5  C   UNL     1      -0.635  10.673  22.160  0.00  0.00    +0.000 A 
ATOM      6  N   UNL     1      -0.081  10.178  23.280  0.00  0.00    +0.000 NA
ATOM      7  N   UNL     1       0.835   9.301  22.840  0.00  0.00    +0.000 N 
ATOM      8  C   UNL     1       0.955   9.245  21.481  0.00  0.00    +0.000 A 
ATOM      9  C   UNL     1       1.816   8.510  20.653  0.00  0.00    +0.000 A 
ATOM     10  H   UNL     1       1.366   8.780  23.527  0.00  0.00    +0.000 HD
ENDROOT
BRANCH   1  21
ATOM     11  O   UNL     1       1.462   5.838  20.213  0.00  0.00    +0.000 OA
ATOM     12  C   UNL     1       2.277   5.674  19.326  0.00  0.00    +0.000 C 
ATOM     13  N   UNL     1       2.865   4.471  18.969  0.00  0.00    +0.000 N 
ATOM     14  C   UNL     1       3.760   4.631  17.917  0.00  0.00    +0.000 A 
ATOM     15  C   UNL     1       4.523   3.643  17.332  0.00  0.00    +0.000 A 
ATOM     16  C   UNL     1       5.374   4.023  16.294  0.00  0.00    +0.000 A 
ATOM     17  C   UNL     1       5.436   5.364  15.870  0.00  0.00    +0.000 A 
ATOM     18  C   UNL     1       4.649   6.351  16.480  0.00  0.00    +0.000 A 
ATOM     19  C   UNL     1       3.810   5.970  17.512  0.00  0.00    +0.000 A 
ATOM     20  C   UNL     1       2.875   6.690  18.386  0.00  0.00    +0.000 C 
ATOM     21  C   UNL     1       2.615   8.005  18.360  0.00  0.00    +0.000 C 
ATOM     22  H   UNL     1       2.651   3.606  19.438  0.00  0.00    +0.000 HD
ENDBRANCH   1  21
BRANCH   5  23
ATOM     23  C   UNL     1      -1.712  11.659  22.227  0.00  0.00    +0.000 A 
ATOM     24  C   UNL     1      -2.493  11.809  23.377  0.00  0.00    +0.000 A 
ATOM     25  C   UNL     1      -3.506  12.767  23.411  0.00  0.00    +0.000 A 
ATOM     26  C   UNL     1      -3.708  13.552  22.288  0.00  0.00    +0.000 A 
ATOM     27  N   UNL     1      -2.984  13.438  21.156  0.00  0.00    +0.000 NA
ATOM     28  C   UNL     1      -2.015  12.489  21.151  0.00  0.00    +0.000 A 
ENDBRANCH   5  23
TORSDOF 2
ENDMDL
MODEL 9
REMARK VINA RESULT:      -8.6      2.547      5.115
REMARK  Name = 
REMARK  2 active torsions:
REMARK  status: ('A' for Active; 'I' for Inactive)
REMARK    1  A    between atoms: C_11  and  C_12
REMARK    2  A    between atoms: C_16  and  C_17
REMARK                            x       y       z     vdW  Elec       q    Type
REMARK                         _______ _______ _______ _____ _____    ______ ____
ROOT
ATOM      1  C   UNL     1      -0.353  10.213  21.106  0.00  0.00    +0.000 A 
ATOM      2  C   UNL     1       0.353   9.147  21.667  0.00  0.00    +0.000 A 
ATOM      3  C   UNL     1       1.243   8.388  20.894  0.00  0.00    +0.000 A 
ATOM      4  C   UNL     1       1.415   8.697  19.529  0.00  0.00    +0.000 A 
ATOM      5  C   UNL     1       2.213   8.205  18.444  0.00  0.00    +0.000 A 
ATOM      6  N   UNL     1       1.999   8.926  17.330  0.00  0.00    +0.000 NA
ATOM      7  N   UNL     1       1.054   9.813  17.681  0.00  0.00    +0.000 N 
ATOM      8  C   UNL     1       0.685   9.752  18.995  0.00  0.00    +0.000 A 
ATOM      9  C   UNL     1      -0.212  10.527  19.746  0.00  0.00    +0.000 A 
ATOM     10  H   UNL     1       0.714  10.454  16.975  0.00  0.00    +0.000 HD
ENDROOT
BRANCH   1  21
ATOM     11  O   UNL     1       1.149  12.833  21.192  0.00  0.00    +0.000 OA
ATOM     12  C   UNL     1       0.207  13.136  21.900  0.00  0.00    +0.000 C 
ATOM     13  N   UNL     1       0.012  14.359  22.521  0.00  0.00    +0.000 N 
ATOM     14  C   UNL     1      -1.163  14.374  23.264  0.00  0.00    +0.000 A 
ATOM     15  C   UNL     1      -1.645  15.425  24.014  0.00  0.00    +0.000 A 
ATOM     16  C   UNL     1      -2.843  15.224  24.700  0.00  0.00    +0.000 A 
ATOM     17  C   UNL     1      -3.522  13.993  24.615  0.00  0.00    +0.000 A 
ATOM     18  C   UNL     1      -3.013  12.939  23.844  0.00  0.00    +0.000 A 
ATOM     19  C   UNL     1      -1.822  13.143  23.169  0.00  0.00    +0.000 A 
ATOM     20  C   UNL     1      -0.983  12.304  22.303  0.00  0.00    +0.000 C 
ATOM     21  C   UNL     1      -1.227  11.033  21.951  0.00  0.00    +0.000 C 
ATOM     22  H   UNL     1       0.664  15.121  22.428  0.00  0.00    +0.000 HD
ENDBRANCH   1  21
BRANCH   5  23
ATOM     23  C   UNL     1       3.175   7.105  18.454  0.00  0.00    +0.000 A 
ATOM     24  C   UNL     1       4.140   6.971  17.451  0.00  0.00    +0.000 A 
ATOM     25  C   UNL     1       5.049   5.914  17.496  0.00  0.00    +0.000 A 
ATOM     26  C   UNL     1       4.966   5.019  18.550  0.00  0.00    +0.000 A 
ATOM     27  N   UNL     1       4.049   5.105  19.535  0.00  0.00    +0.000 NA
ATOM     28  C   UNL     1       3.172   6.138  19.455  0.00  0.00    +0.000 A 
ENDBRANCH   5  23
TORSDOF 2
ENDMDL
