MODEL 1
REMARK VINA RESULT:      -6.6      0.000      0.000
REMARK  Name = 
REMARK  5 active torsions:
REMARK  status: ('A' for Active; 'I' for Inactive)
REMARK    1  A    between atoms: C_1  and  C_2
REMARK    2  A    between atoms: C_7  and  C_8
REMARK    3  A    between atoms: C_8  and  C_9
REMARK    4  A    between atoms: C_8  and  N_11
REMARK    5  A    between atoms: N_14  and  C_15
REMARK                            x       y       z     vdW  Elec       q    Type
REMARK                         _______ _______ _______ _____ _____    ______ ____
ROOT
ATOM      1  C   UNL     1       3.646   5.702  18.850  0.00  0.00    +0.000 C 
ENDROOT
BRANCH   1   8
ATOM      2  C   UNL     1       1.445   5.240  20.881  0.00  0.00    +0.000 C 
ATOM      3  C   UNL     1       1.725   4.247  19.787  0.00  0.00    +0.000 A 
ATOM      4  C   UNL     1       0.938   3.078  19.727  0.00  0.00    +0.000 A 
ATOM      5  C   UNL     1       1.150   2.112  18.744  0.00  0.00    +0.000 A 
ATOM      6  C   UNL     1       2.154   2.291  17.808  0.00  0.00    +0.000 A 
ATOM      7  C   UNL     1       2.945   3.441  17.854  0.00  0.00    +0.000 A 
ATOM      8  C   UNL     1       2.745   4.446  18.835  0.00  0.00    +0.000 A 
ENDBRANCH   1   8
BRANCH   1   9
ATOM      9  N   UNL     1       4.897   5.536  18.040  0.00  0.00    +0.000 NA
ATOM     10  C   UNL     1       6.102   5.614  18.906  0.00  0.00    +0.000 C 
ATOM     11  C   UNL     1       7.435   5.540  18.125  0.00  0.00    +0.000 C 
ATOM     12  N   UNL     1       7.560   6.509  17.020  0.00  0.00    +0.000 NA
ATOM     13  C   UNL     1       7.802   7.869  17.503  0.00  0.00    +0.000 C 
ATOM     14  C   UNL     1       6.353   6.435  16.179  0.00  0.00    +0.000 C 
ATOM     15  C   UNL     1       5.017   6.536  16.951  0.00  0.00    +0.000 C 
ENDBRANCH   1   9
BRANCH   1  16
ATOM     16  C   UNL     1       2.855   6.918  18.396  0.00  0.00    +0.000 C 
ATOM     17  N   UNL     1       2.199   7.926  18.019  0.00  0.00    +0.000 NA
ENDBRANCH   1  16
TORSDOF 3
ENDMDL
MODEL 2
REMARK VINA RESULT:      -6.4      2.041      5.592
REMARK  Name = 
REMARK  5 active torsions:
REMARK  status: ('A' for Active; 'I' for Inactive)
REMARK    1  A    between atoms: C_1  and  C_2
REMARK    2  A    between atoms: C_7  and  C_8
REMARK    3  A    between atoms: C_8  and  C_9
REMARK    4  A    between atoms: C_8  and  N_11
REMARK    5  A    between atoms: N_14  and  C_15
REMARK                            x       y       z     vdW  Elec       q    Type
REMARK                         _______ _______ _______ _____ _____    ______ ____
ROOT
ATOM      1  C   UNL     1       3.631   5.142  17.453  0.00  0.00    +0.000 C 
ENDROOT
BRANCH   1   8
ATOM      2  C   UNL     1       5.618   4.073  15.430  0.00  0.00    +0.000 C 
ATOM      3  C   UNL     1       6.065   4.613  16.760  0.00  0.00    +0.000 A 
ATOM      4  C   UNL     1       7.444   4.608  17.056  0.00  0.00    +0.000 A 
ATOM      5  C   UNL     1       7.926   5.086  18.274  0.00  0.00    +0.000 A 
ATOM      6  C   UNL     1       7.042   5.573  19.221  0.00  0.00    +0.000 A 
ATOM      7  C   UNL     1       5.673   5.583  18.947  0.00  0.00    +0.000 A 
ATOM      8  C   UNL     1       5.155   5.114  17.712  0.00  0.00    +0.000 A 
ENDBRANCH   1   8
BRANCH   1   9
ATOM      9  N   UNL     1       2.948   3.859  17.823  0.00  0.00    +0.000 NA
ATOM     10  C   UNL     1       1.532   4.103  18.199  0.00  0.00    +0.000 C 
ATOM     11  C   UNL     1       0.789   2.835  18.679  0.00  0.00    +0.000 C 
ATOM     12  N   UNL     1       1.463   2.094  19.762  0.00  0.00    +0.000 NA
ATOM     13  C   UNL     1       1.347   2.774  21.052  0.00  0.00    +0.000 C 
ATOM     14  C   UNL     1       2.871   1.874  19.387  0.00  0.00    +0.000 C 
ATOM     15  C   UNL     1       3.628   3.143  18.931  0.00  0.00    +0.000 C 
ENDBRANCH   1   9
BRANCH   1  16
ATOM     16  C   UNL     1       3.001   6.326  18.168  0.00  0.00    +0.000 C 
ATOM     17  N   UNL     1       2.479   7.309  18.762  0.00  0.00    +0.000 NA
ENDBRANCH   1  16
TORSDOF 3
ENDMDL
MODEL 3
REMARK VINA RESULT:      -6.3      1.929      3.149
REMARK  Name = 
REMARK  5 active torsions:
REMARK  status: ('A' for Active; 'I' for Inactive)
REMARK    1  A    between atoms: C_1  and  C_2
REMARK    2  A    between atoms: C_7  and  C_8
REMARK    3  A    between atoms: C_8  and  C_9
REMARK    4  A    between atoms: C_8  and  N_11
REMARK    5  A    between atoms: N_14  and  C_15
REMARK                            x       y       z     vdW  Elec       q    Type
REMARK                         _______ _______ _______ _____ _____    ______ ____
ROOT
ATOM      1  C   UNL     1       4.860   4.013  18.415  0.00  0.00    +0.000 C 
ENDROOT
BRANCH   1   8
ATOM      2  C   UNL     1       2.880   1.718  18.420  0.00  0.00    +0.000 C 
ATOM      3  C   UNL     1       2.601   2.998  19.158  0.00  0.00    +0.000 A 
ATOM      4  C   UNL     1       1.381   3.115  19.857  0.00  0.00    +0.000 A 
ATOM      5  C   UNL     1       1.055   4.278  20.555  0.00  0.00    +0.000 A 
ATOM      6  C   UNL     1       1.935   5.346  20.564  0.00  0.00    +0.000 A 
ATOM      7  C   UNL     1       3.145   5.248  19.874  0.00  0.00    +0.000 A 
ATOM      8  C   UNL     1       3.510   4.075  19.166  0.00  0.00    +0.000 A 
ENDBRANCH   1   8
BRANCH   1   9
ATOM      9  N   UNL     1       4.770   4.513  17.003  0.00  0.00    +0.000 NA
ATOM     10  C   UNL     1       5.403   3.554  16.062  0.00  0.00    +0.000 C 
ATOM     11  C   UNL     1       5.427   4.047  14.595  0.00  0.00    +0.000 C 
ATOM     12  N   UNL     1       6.013   5.386  14.401  0.00  0.00    +0.000 NA
ATOM     13  C   UNL     1       7.470   5.375  14.527  0.00  0.00    +0.000 C 
ATOM     14  C   UNL     1       5.390   6.324  15.352  0.00  0.00    +0.000 C 
ATOM     15  C   UNL     1       5.387   5.850  16.824  0.00  0.00    +0.000 C 
ENDBRANCH   1   9
BRANCH   1  16
ATOM     16  C   UNL     1       5.927   4.762  19.196  0.00  0.00    +0.000 C 
ATOM     17  N   UNL     1       6.812   5.383  19.843  0.00  0.00    +0.000 NA
ENDBRANCH   1  16
TORSDOF 3
ENDMDL
MODEL 4
REMARK VINA RESULT:      -6.3      0.964      1.711
REMARK  Name = 
REMARK  5 active torsions:
REMARK  status: ('A' for Active; 'I' for Inactive)
REMARK    1  A    between atoms: C_1  and  C_2
REMARK    2  A    between atoms: C_7  and  C_8
REMARK    3  A    between atoms: C_8  and  C_9
REMARK    4  A    between atoms: C_8  and  N_11
REMARK    5  A    between atoms: N_14  and  C_15
REMARK                            x       y       z     vdW  Elec       q    Type
REMARK                         _______ _______ _______ _____ _____    ______ ____
ROOT
ATOM      1  C   UNL     1       3.491   5.942  19.415  0.00  0.00    +0.000 C 
ENDROOT
BRANCH   1   8
ATOM      2  C   UNL     1       1.693   4.421  17.508  0.00  0.00    +0.000 C 
ATOM      3  C   UNL     1       1.785   4.053  18.963  0.00  0.00    +0.000 A 
ATOM      4  C   UNL     1       1.004   2.977  19.432  0.00  0.00    +0.000 A 
ATOM      5  C   UNL     1       1.034   2.588  20.771  0.00  0.00    +0.000 A 
ATOM      6  C   UNL     1       1.840   3.269  21.667  0.00  0.00    +0.000 A 
ATOM      7  C   UNL     1       2.617   4.340  21.221  0.00  0.00    +0.000 A 
ATOM      8  C   UNL     1       2.615   4.750  19.864  0.00  0.00    +0.000 A 
ENDBRANCH   1   8
BRANCH   1   9
ATOM      9  N   UNL     1       4.557   5.552  18.434  0.00  0.00    +0.000 NA
ATOM     10  C   UNL     1       5.859   5.355  19.120  0.00  0.00    +0.000 C 
ATOM     11  C   UNL     1       7.028   5.037  18.157  0.00  0.00    +0.000 C 
ATOM     12  N   UNL     1       7.195   5.996  17.049  0.00  0.00    +0.000 NA
ATOM     13  C   UNL     1       7.776   7.261  17.497  0.00  0.00    +0.000 C 
ATOM     14  C   UNL     1       5.894   6.196  16.388  0.00  0.00    +0.000 C 
ATOM     15  C   UNL     1       4.727   6.542  17.342  0.00  0.00    +0.000 C 
ENDBRANCH   1   9
BRANCH   1  16
ATOM     16  C   UNL     1       2.615   7.054  18.860  0.00  0.00    +0.000 C 
ATOM     17  N   UNL     1       1.888   7.976  18.401  0.00  0.00    +0.000 NA
ENDBRANCH   1  16
TORSDOF 3
ENDMDL
MODEL 5
REMARK VINA RESULT:      -6.1      2.054      5.366
REMARK  Name = 
REMARK  5 active torsions:
REMARK  status: ('A' for Active; 'I' for Inactive)
REMARK    1  A    between atoms: C_1  and  C_2
REMARK    2  A    between atoms: C_7  and  C_8
REMARK    3  A    between atoms: C_8  and  C_9
REMARK    4  A    between atoms: C_8  and  N_11
REMARK    5  A    between atoms: N_14  and  C_15
REMARK                            x       y       z     vdW  Elec       q    Type
REMARK                         _______ _______ _______ _____ _____    ______ ____
ROOT
ATOM      1  C   UNL     1       5.611   5.423  18.961  0.00  0.00    +0.000 C 
ENDROOT
BRANCH   1   8
ATOM      2  C   UNL     1       3.948   7.019  16.994  0.00  0.00    +0.000 C 
ATOM      3  C   UNL     1       5.028   6.082  16.530  0.00  0.00    +0.000 A 
ATOM      4  C   UNL     1       5.251   5.952  15.143  0.00  0.00    +0.000 A 
ATOM      5  C   UNL     1       6.231   5.093  14.644  0.00  0.00    +0.000 A 
ATOM      6  C   UNL     1       7.000   4.345  15.517  0.00  0.00    +0.000 A 
ATOM      7  C   UNL     1       6.791   4.458  16.893  0.00  0.00    +0.000 A 
ATOM      8  C   UNL     1       5.810   5.331  17.430  0.00  0.00    +0.000 A 
ENDBRANCH   1   8
BRANCH   1   9
ATOM      9  N   UNL     1       4.682   4.374  19.495  0.00  0.00    +0.000 NA
ATOM     10  C   UNL     1       4.408   3.337  18.468  0.00  0.00    +0.000 C 
ATOM     11  C   UNL     1       3.384   2.268  18.920  0.00  0.00    +0.000 C 
ATOM     12  N   UNL     1       2.109   2.808  19.425  0.00  0.00    +0.000 NA
ATOM     13  C   UNL     1       1.257   3.314  18.349  0.00  0.00    +0.000 C 
ATOM     14  C   UNL     1       2.393   3.847  20.430  0.00  0.00    +0.000 C 
ATOM     15  C   UNL     1       3.394   4.934  19.975  0.00  0.00    +0.000 C 
ENDBRANCH   1   9
BRANCH   1  16
ATOM     16  C   UNL     1       6.957   5.375  19.666  0.00  0.00    +0.000 C 
ATOM     17  N   UNL     1       8.073   5.336  20.251  0.00  0.00    +0.000 NA
ENDBRANCH   1  16
TORSDOF 3
ENDMDL
MODEL 6
REMARK VINA RESULT:      -6.1      1.591      3.152
REMARK  Name = 
REMARK  5 active torsions:
REMARK  status: ('A' for Active; 'I' for Inactive)
REMARK    1  A    between atoms: C_1  and  C_2
REMARK    2  A    between atoms: C_7  and  C_8
REMARK    3  A    between atoms: C_8  and  C_9
REMARK    4  A    between atoms: C_8  and  N_11
REMARK    5  A    between atoms: N_14  and  C_15
REMARK                            x       y       z     vdW  Elec       q    Type
REMARK                         _______ _______ _______ _____ _____    ______ ____
ROOT
ATOM      1  C   UNL     1       3.361   4.744  17.555  0.00  0.00    +0.000 C 
ENDROOT
BRANCH   1   8
ATOM      2  C   UNL     1       3.131   7.763  17.447  0.00  0.00    +0.000 C 
ATOM      3  C   UNL     1       2.621   6.979  18.623  0.00  0.00    +0.000 A 
ATOM      4  C   UNL     1       2.032   7.683  19.694  0.00  0.00    +0.000 A 
ATOM      5  C   UNL     1       1.546   7.018  20.819  0.00  0.00    +0.000 A 
ATOM      6  C   UNL     1       1.644   5.640  20.901  0.00  0.00    +0.000 A 
ATOM      7  C   UNL     1       2.228   4.927  19.852  0.00  0.00    +0.000 A 
ATOM      8  C   UNL     1       2.720   5.574  18.690  0.00  0.00    +0.000 A 
ENDBRANCH   1   8
BRANCH   1   9
ATOM      9  N   UNL     1       4.851   4.630  17.680  0.00  0.00    +0.000 NA
ATOM     10  C   UNL     1       5.343   5.397  18.853  0.00  0.00    +0.000 C 
ATOM     11  C   UNL     1       6.884   5.398  18.994  0.00  0.00    +0.000 C 
ATOM     12  N   UNL     1       7.615   5.825  17.787  0.00  0.00    +0.000 NA
ATOM     13  C   UNL     1       7.532   7.270  17.572  0.00  0.00    +0.000 C 
ATOM     14  C   UNL     1       7.107   5.072  16.627  0.00  0.00    +0.000 C 
ATOM     15  C   UNL     1       5.569   5.089  16.465  0.00  0.00    +0.000 C 
ENDBRANCH   1   9
BRANCH   1  16
ATOM     16  C   UNL     1       2.710   3.372  17.480  0.00  0.00    +0.000 C 
ATOM     17  N   UNL     1       2.169   2.235  17.418  0.00  0.00    +0.000 NA
ENDBRANCH   1  16
TORSDOF 3
ENDMDL
MODEL 7
REMARK VINA RESULT:      -6.1      1.106      1.414
REMARK  Name = 
REMARK  5 active torsions:
REMARK  status: ('A' for Active; 'I' for Inactive)
REMARK    1  A    between atoms: C_1  and  C_2
REMARK    2  A    between atoms: C_7  and  C_8
REMARK    3  A    between atoms: C_8  and  C_9
REMARK    4  A    between atoms: C_8  and  N_11
REMARK    5  A    between atoms: N_14  and  C_15
REMARK                            x       y       z     vdW  Elec       q    Type
REMARK                         _______ _______ _______ _____ _____    ______ ____
ROOT
ATOM      1  C   UNL     1       3.814   5.267  19.281  0.00  0.00    +0.000 C 
ENDROOT
BRANCH   1   8
ATOM      2  C   UNL     1       4.400   2.483  20.324  0.00  0.00    +0.000 C 
ATOM      3  C   UNL     1       3.107   2.805  19.627  0.00  0.00    +0.000 A 
ATOM      4  C   UNL     1       2.161   1.772  19.459  0.00  0.00    +0.000 A 
ATOM      5  C   UNL     1       0.946   1.999  18.814  0.00  0.00    +0.000 A 
ATOM      6  C   UNL     1       0.654   3.259  18.319  0.00  0.00    +0.000 A 
ATOM      7  C   UNL     1       1.580   4.292  18.473  0.00  0.00    +0.000 A 
ATOM      8  C   UNL     1       2.818   4.094  19.135  0.00  0.00    +0.000 A 
ENDBRANCH   1   8
BRANCH   1   9
ATOM      9  N   UNL     1       4.937   5.211  18.288  0.00  0.00    +0.000 NA
ATOM     10  C   UNL     1       6.251   5.335  18.969  0.00  0.00    +0.000 C 
ATOM     11  C   UNL     1       7.454   5.374  17.997  0.00  0.00    +0.000 C 
ATOM     12  N   UNL     1       7.356   6.389  16.932  0.00  0.00    +0.000 NA
ATOM     13  C   UNL     1       7.589   7.743  17.434  0.00  0.00    +0.000 C 
ATOM     14  C   UNL     1       6.042   6.269  16.275  0.00  0.00    +0.000 C 
ATOM     15  C   UNL     1       4.833   6.256  17.240  0.00  0.00    +0.000 C 
ENDBRANCH   1   9
BRANCH   1  16
ATOM     16  C   UNL     1       3.074   6.593  19.200  0.00  0.00    +0.000 C 
ATOM     17  N   UNL     1       2.461   7.692  19.132  0.00  0.00    +0.000 NA
ENDBRANCH   1  16
TORSDOF 3
ENDMDL
MODEL 8
REMARK VINA RESULT:      -6.1      1.628      5.684
REMARK  Name = 
REMARK  5 active torsions:
REMARK  status: ('A' for Active; 'I' for Inactive)
REMARK    1  A    between atoms: C_1  and  C_2
REMARK    2  A    between atoms: C_7  and  C_8
REMARK    3  A    between atoms: C_8  and  C_9
REMARK    4  A    between atoms: C_8  and  N_11
REMARK    5  A    between atoms: N_14  and  C_15
REMARK                            x       y       z     vdW  Elec       q    Type
REMARK                         _______ _______ _______ _____ _____    ______ ____
ROOT
ATOM      1  C   UNL     1       3.852   5.454  18.137  0.00  0.00    +0.000 C 
ENDROOT
BRANCH   1   8
ATOM      2  C   UNL     1       5.215   6.951  15.882  0.00  0.00    +0.000 C 
ATOM      3  C   UNL     1       5.963   6.550  17.122  0.00  0.00    +0.000 A 
ATOM      4  C   UNL     1       7.331   6.882  17.217  0.00  0.00    +0.000 A 
ATOM      5  C   UNL     1       8.086   6.532  18.336  0.00  0.00    +0.000 A 
ATOM      6  C   UNL     1       7.493   5.841  19.378  0.00  0.00    +0.000 A 
ATOM      7  C   UNL     1       6.141   5.501  19.301  0.00  0.00    +0.000 A 
ATOM      8  C   UNL     1       5.345   5.853  18.180  0.00  0.00    +0.000 A 
ENDBRANCH   1   8
BRANCH   1   9
ATOM      9  N   UNL     1       3.575   4.143  18.811  0.00  0.00    +0.000 NA
ATOM     10  C   UNL     1       3.236   3.097  17.812  0.00  0.00    +0.000 C 
ATOM     11  C   UNL     1       2.851   1.738  18.442  0.00  0.00    +0.000 C 
ATOM     12  N   UNL     1       1.787   1.807  19.461  0.00  0.00    +0.000 NA
ATOM     13  C   UNL     1       0.467   2.021  18.868  0.00  0.00    +0.000 C 
ATOM     14  C   UNL     1       2.125   2.859  20.435  0.00  0.00    +0.000 C 
ATOM     15  C   UNL     1       2.485   4.229  19.813  0.00  0.00    +0.000 C 
ENDBRANCH   1   9
BRANCH   1  16
ATOM     16  C   UNL     1       2.997   6.565  18.724  0.00  0.00    +0.000 C 
ATOM     17  N   UNL     1       2.288   7.487  19.211  0.00  0.00    +0.000 NA
ENDBRANCH   1  16
TORSDOF 3
ENDMDL
MODEL 9
REMARK VINA RESULT:      -6.0      2.177      5.685
REMARK  Name = 
REMARK  5 active torsions:
REMARK  status: ('A' for Active; 'I' for Inactive)
REMARK    1  A    between atoms: C_1  and  C_2
REMARK    2  A    between atoms: C_7  and  C_8
REMARK    3  A    between atoms: C_8  and  C_9
REMARK    4  A    between atoms: C_8  and  N_11
REMARK    5  A    between atoms: N_14  and  C_15
REMARK                            x       y       z     vdW  Elec       q    Type
REMARK                         _______ _______ _______ _____ _____    ______ ____
ROOT
ATOM      1  C   UNL     1       4.994   5.255  18.087  0.00  0.00    +0.000 C 
ENDROOT
BRANCH   1   8
ATOM      2  C   UNL     1       7.328   6.879  17.038  0.00  0.00    +0.000 C 
ATOM      3  C   UNL     1       6.713   5.773  16.226  0.00  0.00    +0.000 A 
ATOM      4  C   UNL     1       7.245   5.505  14.948  0.00  0.00    +0.000 A 
ATOM      5  C   UNL     1       6.717   4.499  14.139  0.00  0.00    +0.000 A 
ATOM      6  C   UNL     1       5.646   3.746  14.588  0.00  0.00    +0.000 A 
ATOM      7  C   UNL     1       5.104   4.000  15.849  0.00  0.00    +0.000 A 
ATOM      8  C   UNL     1       5.628   5.008  16.698  0.00  0.00    +0.000 A 
ENDBRANCH   1   8
BRANCH   1   9
ATOM      9  N   UNL     1       3.863   4.319  18.391  0.00  0.00    +0.000 NA
ATOM     10  C   UNL     1       2.698   5.059  18.942  0.00  0.00    +0.000 C 
ATOM     11  C   UNL     1       1.523   4.144  19.363  0.00  0.00    +0.000 C 
ATOM     12  N   UNL     1       1.888   3.050  20.280  0.00  0.00    +0.000 NA
ATOM     13  C   UNL     1       2.136   3.527  21.640  0.00  0.00    +0.000 C 
ATOM     14  C   UNL     1       3.055   2.335  19.733  0.00  0.00    +0.000 C 
ATOM     15  C   UNL     1       4.244   3.240  19.335  0.00  0.00    +0.000 C 
ENDBRANCH   1   9
BRANCH   1  16
ATOM     16  C   UNL     1       6.062   5.195  19.166  0.00  0.00    +0.000 C 
ATOM     17  N   UNL     1       6.948   5.144  20.062  0.00  0.00    +0.000 NA
ENDBRANCH   1  16
TORSDOF 3
ENDMDL
