MODEL 1
REMARK VINA RESULT:      -7.5      0.000      0.000
REMARK  Name = 
REMARK  12 active torsions:
REMARK  status: ('A' for Active; 'I' for Inactive)
REMARK    1  A    between atoms: C_1  and  C_2
REMARK    2  A    between atoms: C_2  and  N_3
REMARK    3  A    between atoms: N_3  and  C_4
REMARK    4  A    between atoms: N_3  and  C_6
REMARK    5  A    between atoms: C_4  and  C_5
REMARK    6  A    between atoms: C_9  and  C_10
REMARK    7  A    between atoms: C_10  and  N_11
REMARK    8  A    between atoms: N_11  and  C_12
REMARK    9  A    between atoms: N_11  and  S_21
REMARK   10  A    between atoms: C_12  and  C_13
REMARK   11  A    between atoms: S_21  and  C_24
REMARK   12  A    between atoms: C_27  and  C_28
REMARK                            x       y       z     vdW  Elec       q    Type
REMARK                         _______ _______ _______ _____ _____    ______ ____
ROOT
ATOM      1  N   UNL     1       5.342   5.021  17.273  0.00  0.00    +0.000 NA
ENDROOT
BRANCH   1   2
ATOM      2  S   UNL     1       6.871   5.349  16.511  0.00  0.00    +0.000 S 
ATOM      3  O   UNL     1       7.822   4.296  16.765  0.00  0.00    +0.000 OA
ATOM      4  O   UNL     1       6.609   5.767  15.146  0.00  0.00    +0.000 OA
BRANCH   2   5
ATOM      5  C   UNL     1       7.452   6.770  17.415  0.00  0.00    +0.000 A 
ATOM      6  C   UNL     1       8.112   6.571  18.631  0.00  0.00    +0.000 A 
ATOM      7  C   UNL     1       8.665   7.661  19.307  0.00  0.00    +0.000 A 
ATOM      8  C   UNL     1       8.563   8.950  18.770  0.00  0.00    +0.000 A 
ATOM      9  C   UNL     1       9.153  10.130  19.485  0.00  0.00    +0.000 C 
ATOM     10  C   UNL     1       7.912   9.133  17.541  0.00  0.00    +0.000 A 
ATOM     11  C   UNL     1       7.366   8.045  16.855  0.00  0.00    +0.000 A 
ENDBRANCH   2   5
ENDBRANCH   1   2
BRANCH   1  12
ATOM     12  C   UNL     1       4.299   5.979  16.767  0.00  0.00    +0.000 C 
BRANCH  12  16
ATOM     13  C   UNL     1       1.814   8.310  19.484  0.00  0.00    +0.000 A 
ATOM     14  C   UNL     1       2.264   8.840  18.260  0.00  0.00    +0.000 A 
ATOM     15  C   UNL     1       3.133   8.131  17.413  0.00  0.00    +0.000 A 
ATOM     16  C   UNL     1       3.579   6.860  17.767  0.00  0.00    +0.000 A 
ATOM     17  C   UNL     1       3.197   6.349  19.018  0.00  0.00    +0.000 A 
ATOM     18  C   UNL     1       2.335   7.068  19.863  0.00  0.00    +0.000 A 
BRANCH  13  19
ATOM     19  N   UNL     1       0.844   8.954  20.272  0.00  0.00    +0.000 N 
BRANCH  19  21
ATOM     20  C   UNL     1       0.937  11.459  20.160  0.00  0.00    +0.000 C 
ATOM     21  C   UNL     1       0.249  10.177  19.710  0.00  0.00    +0.000 C 
ENDBRANCH  19  21
BRANCH  19  22
ATOM     22  C   UNL     1       0.981   8.830  21.734  0.00  0.00    +0.000 C 
ATOM     23  C   UNL     1      -0.343   8.968  22.476  0.00  0.00    +0.000 C 
ENDBRANCH  19  22
ENDBRANCH  13  19
ENDBRANCH  12  16
ENDBRANCH   1  12
BRANCH   1  24
ATOM     24  C   UNL     1       4.886   3.603  17.182  0.00  0.00    +0.000 C 
BRANCH  24  25
ATOM     25  C   UNL     1       3.999   3.145  18.322  0.00  0.00    +0.000 A 
ATOM     26  C   UNL     1       4.525   3.032  19.619  0.00  0.00    +0.000 A 
ATOM     27  C   UNL     1       3.690   2.758  20.704  0.00  0.00    +0.000 A 
ATOM     28  C   UNL     1       2.321   2.572  20.507  0.00  0.00    +0.000 A 
ATOM     29 CL   UNL     1       1.341   2.283  21.902  0.00  0.00    +0.000 Cl
ATOM     30  C   UNL     1       1.790   2.640  19.215  0.00  0.00    +0.000 A 
ATOM     31 CL   UNL     1       0.105   2.422  18.896  0.00  0.00    +0.000 Cl
ATOM     32  C   UNL     1       2.627   2.918  18.127  0.00  0.00    +0.000 A 
ENDBRANCH  24  25
ENDBRANCH   1  24
TORSDOF 9
ENDMDL
MODEL 2
REMARK VINA RESULT:      -7.2      5.030      9.413
REMARK  Name = 
REMARK  12 active torsions:
REMARK  status: ('A' for Active; 'I' for Inactive)
REMARK    1  A    between atoms: C_1  and  C_2
REMARK    2  A    between atoms: C_2  and  N_3
REMARK    3  A    between atoms: N_3  and  C_4
REMARK    4  A    between atoms: N_3  and  C_6
REMARK    5  A    between atoms: C_4  and  C_5
REMARK    6  A    between atoms: C_9  and  C_10
REMARK    7  A    between atoms: C_10  and  N_11
REMARK    8  A    between atoms: N_11  and  C_12
REMARK    9  A    between atoms: N_11  and  S_21
REMARK   10  A    between atoms: C_12  and  C_13
REMARK   11  A    between atoms: S_21  and  C_24
REMARK   12  A    between atoms: C_27  and  C_28
REMARK                            x       y       z     vdW  Elec       q    Type
REMARK                         _______ _______ _______ _____ _____    ______ ____
ROOT
ATOM      1  N   UNL     1       0.100  10.786  19.759  0.00  0.00    +0.000 NA
ENDROOT
BRANCH   1   2
ATOM      2  S   UNL     1       0.343  12.385  20.401  0.00  0.00    +0.000 S 
ATOM      3  O   UNL     1       1.498  12.436  21.263  0.00  0.00    +0.000 OA
ATOM      4  O   UNL     1       0.221  13.329  19.305  0.00  0.00    +0.000 OA
BRANCH   2   5
ATOM      5  C   UNL     1      -1.075  12.591  21.460  0.00  0.00    +0.000 A 
ATOM      6  C   UNL     1      -2.132  13.394  21.022  0.00  0.00    +0.000 A 
ATOM      7  C   UNL     1      -3.295  13.489  21.789  0.00  0.00    +0.000 A 
ATOM      8  C   UNL     1      -3.406  12.781  22.993  0.00  0.00    +0.000 A 
ATOM      9  C   UNL     1      -4.651  12.874  23.827  0.00  0.00    +0.000 C 
ATOM     10  C   UNL     1      -2.344  11.967  23.413  0.00  0.00    +0.000 A 
ATOM     11  C   UNL     1      -1.182  11.860  22.643  0.00  0.00    +0.000 A 
ENDBRANCH   2   5
ENDBRANCH   1   2
BRANCH   1  12
ATOM     12  C   UNL     1       0.964   9.800  20.494  0.00  0.00    +0.000 C 
BRANCH  12  16
ATOM     13  C   UNL     1       3.081   6.590  18.444  0.00  0.00    +0.000 A 
ATOM     14  C   UNL     1       2.709   7.771  17.775  0.00  0.00    +0.000 A 
ATOM     15  C   UNL     1       1.954   8.779  18.400  0.00  0.00    +0.000 A 
ATOM     16  C   UNL     1       1.549   8.634  19.725  0.00  0.00    +0.000 A 
ATOM     17  C   UNL     1       1.851   7.430  20.381  0.00  0.00    +0.000 A 
ATOM     18  C   UNL     1       2.597   6.423  19.745  0.00  0.00    +0.000 A 
BRANCH  13  19
ATOM     19  N   UNL     1       3.944   5.641  17.870  0.00  0.00    +0.000 N 
BRANCH  19  21
ATOM     20  C   UNL     1       5.585   4.987  16.089  0.00  0.00    +0.000 C 
ATOM     21  C   UNL     1       4.648   6.050  16.644  0.00  0.00    +0.000 C 
ENDBRANCH  19  21
BRANCH  19  22
ATOM     22  C   UNL     1       3.594   4.221  18.055  0.00  0.00    +0.000 C 
ATOM     23  C   UNL     1       2.285   3.832  17.378  0.00  0.00    +0.000 C 
ENDBRANCH  19  22
ENDBRANCH  13  19
ENDBRANCH  12  16
ENDBRANCH   1  12
BRANCH   1  24
ATOM     24  C   UNL     1      -1.324  10.343  19.700  0.00  0.00    +0.000 C 
BRANCH  24  25
ATOM     25  C   UNL     1      -1.971  10.459  18.335  0.00  0.00    +0.000 A 
ATOM     26  C   UNL     1      -1.457   9.732  17.250  0.00  0.00    +0.000 A 
ATOM     27  C   UNL     1      -2.128   9.710  16.025  0.00  0.00    +0.000 A 
ATOM     28  C   UNL     1      -3.311  10.432  15.861  0.00  0.00    +0.000 A 
ATOM     29 CL   UNL     1      -4.113  10.321  14.333  0.00  0.00    +0.000 Cl
ATOM     30  C   UNL     1      -3.812  11.195  16.920  0.00  0.00    +0.000 A 
ATOM     31 CL   UNL     1      -5.272  12.112  16.789  0.00  0.00    +0.000 Cl
ATOM     32  C   UNL     1      -3.140  11.214  18.150  0.00  0.00    +0.000 A 
ENDBRANCH  24  25
ENDBRANCH   1  24
TORSDOF 9
ENDMDL
MODEL 3
REMARK VINA RESULT:      -7.1      5.504      9.039
REMARK  Name = 
REMARK  12 active torsions:
REMARK  status: ('A' for Active; 'I' for Inactive)
REMARK    1  A    between atoms: C_1  and  C_2
REMARK    2  A    between atoms: C_2  and  N_3
REMARK    3  A    between atoms: N_3  and  C_4
REMARK    4  A    between atoms: N_3  and  C_6
REMARK    5  A    between atoms: C_4  and  C_5
REMARK    6  A    between atoms: C_9  and  C_10
REMARK    7  A    between atoms: C_10  and  N_11
REMARK    8  A    between atoms: N_11  and  C_12
REMARK    9  A    between atoms: N_11  and  S_21
REMARK   10  A    between atoms: C_12  and  C_13
REMARK   11  A    between atoms: S_21  and  C_24
REMARK   12  A    between atoms: C_27  and  C_28
REMARK                            x       y       z     vdW  Elec       q    Type
REMARK                         _______ _______ _______ _____ _____    ______ ____
ROOT
ATOM      1  N   UNL     1       0.027  11.630  19.423  0.00  0.00    +0.000 NA
ENDROOT
BRANCH   1   2
ATOM      2  S   UNL     1       0.591  12.860  20.517  0.00  0.00    +0.000 S 
ATOM      3  O   UNL     1       1.815  12.464  21.169  0.00  0.00    +0.000 OA
ATOM      4  O   UNL     1       0.523  14.136  19.829  0.00  0.00    +0.000 OA
BRANCH   2   5
ATOM      5  C   UNL     1      -0.666  12.853  21.780  0.00  0.00    +0.000 A 
ATOM      6  C   UNL     1      -1.291  14.058  22.116  0.00  0.00    +0.000 A 
ATOM      7  C   UNL     1      -2.347  14.060  23.029  0.00  0.00    +0.000 A 
ATOM      8  C   UNL     1      -2.784  12.862  23.607  0.00  0.00    +0.000 A 
ATOM      9  C   UNL     1      -3.919  12.850  24.590  0.00  0.00    +0.000 C 
ATOM     10  C   UNL     1      -2.158  11.659  23.250  0.00  0.00    +0.000 A 
ATOM     11  C   UNL     1      -1.107  11.649  22.329  0.00  0.00    +0.000 A 
ENDBRANCH   2   5
ENDBRANCH   1   2
BRANCH   1  12
ATOM     12  C   UNL     1      -1.019  12.199  18.506  0.00  0.00    +0.000 C 
BRANCH  12  16
ATOM     13  C   UNL     1      -5.302  11.477  18.853  0.00  0.00    +0.000 A 
ATOM     14  C   UNL     1      -4.626  12.336  19.739  0.00  0.00    +0.000 A 
ATOM     15  C   UNL     1      -3.233  12.514  19.692  0.00  0.00    +0.000 A 
ATOM     16  C   UNL     1      -2.469  11.835  18.746  0.00  0.00    +0.000 A 
ATOM     17  C   UNL     1      -3.120  10.920  17.903  0.00  0.00    +0.000 A 
ATOM     18  C   UNL     1      -4.513  10.740  17.964  0.00  0.00    +0.000 A 
BRANCH  13  19
ATOM     19  N   UNL     1      -6.705  11.394  18.808  0.00  0.00    +0.000 N 
BRANCH  19  21
ATOM     20  C   UNL     1      -6.832  13.080  16.955  0.00  0.00    +0.000 C 
ATOM     21  C   UNL     1      -7.414  12.562  18.263  0.00  0.00    +0.000 C 
ENDBRANCH  19  21
BRANCH  19  22
ATOM     22  C   UNL     1      -7.360  10.578  19.846  0.00  0.00    +0.000 C 
ATOM     23  C   UNL     1      -7.148   9.080  19.656  0.00  0.00    +0.000 C 
ENDBRANCH  19  22
ENDBRANCH  13  19
ENDBRANCH  12  16
ENDBRANCH   1  12
BRANCH   1  24
ATOM     24  C   UNL     1       1.102  10.920  18.669  0.00  0.00    +0.000 C 
BRANCH  24  25
ATOM     25  C   UNL     1       1.462   9.552  19.212  0.00  0.00    +0.000 A 
ATOM     26  C   UNL     1       1.017   9.162  20.485  0.00  0.00    +0.000 A 
ATOM     27  C   UNL     1       1.211   7.855  20.937  0.00  0.00    +0.000 A 
ATOM     28  C   UNL     1       1.871   6.925  20.133  0.00  0.00    +0.000 A 
ATOM     29 CL   UNL     1       2.034   5.313  20.737  0.00  0.00    +0.000 Cl
ATOM     30  C   UNL     1       2.358   7.312  18.880  0.00  0.00    +0.000 A 
ATOM     31 CL   UNL     1       3.182   6.214  17.830  0.00  0.00    +0.000 Cl
ATOM     32  C   UNL     1       2.160   8.622  18.425  0.00  0.00    +0.000 A 
ENDBRANCH  24  25
ENDBRANCH   1  24
TORSDOF 9
ENDMDL
MODEL 4
REMARK VINA RESULT:      -7.1      5.217      8.673
REMARK  Name = 
REMARK  12 active torsions:
REMARK  status: ('A' for Active; 'I' for Inactive)
REMARK    1  A    between atoms: C_1  and  C_2
REMARK    2  A    between atoms: C_2  and  N_3
REMARK    3  A    between atoms: N_3  and  C_4
REMARK    4  A    between atoms: N_3  and  C_6
REMARK    5  A    between atoms: C_4  and  C_5
REMARK    6  A    between atoms: C_9  and  C_10
REMARK    7  A    between atoms: C_10  and  N_11
REMARK    8  A    between atoms: N_11  and  C_12
REMARK    9  A    between atoms: N_11  and  S_21
REMARK   10  A    between atoms: C_12  and  C_13
REMARK   11  A    between atoms: S_21  and  C_24
REMARK   12  A    between atoms: C_27  and  C_28
REMARK                            x       y       z     vdW  Elec       q    Type
REMARK                         _______ _______ _______ _____ _____    ______ ____
ROOT
ATOM      1  N   UNL     1      -0.127  10.993  19.890  0.00  0.00    +0.000 NA
ENDROOT
BRANCH   1   2
ATOM      2  S   UNL     1      -0.122  12.529  20.707  0.00  0.00    +0.000 S 
ATOM      3  O   UNL     1      -1.428  13.140  20.689  0.00  0.00    +0.000 OA
ATOM      4  O   UNL     1       0.576  12.363  21.968  0.00  0.00    +0.000 OA
BRANCH   2   5
ATOM      5  C   UNL     1       0.903  13.525  19.642  0.00  0.00    +0.000 A 
ATOM      6  C   UNL     1       0.943  14.908  19.845  0.00  0.00    +0.000 A 
ATOM      7  C   UNL     1       1.816  15.694  19.091  0.00  0.00    +0.000 A 
ATOM      8  C   UNL     1       2.651  15.104  18.133  0.00  0.00    +0.000 A 
ATOM      9  C   UNL     1       3.594  15.939  17.316  0.00  0.00    +0.000 C 
ATOM     10  C   UNL     1       2.612  13.714  17.951  0.00  0.00    +0.000 A 
ATOM     11  C   UNL     1       1.748  12.920  18.711  0.00  0.00    +0.000 A 
ENDBRANCH   2   5
ENDBRANCH   1   2
BRANCH   1  12
ATOM     12  C   UNL     1       0.853  10.060  20.545  0.00  0.00    +0.000 C 
BRANCH  12  16
ATOM     13  C   UNL     1       2.997   6.980  18.329  0.00  0.00    +0.000 A 
ATOM     14  C   UNL     1       2.580   8.175  17.713  0.00  0.00    +0.000 A 
ATOM     15  C   UNL     1       1.817   9.140  18.392  0.00  0.00    +0.000 A 
ATOM     16  C   UNL     1       1.447   8.938  19.720  0.00  0.00    +0.000 A 
ATOM     17  C   UNL     1       1.793   7.718  20.324  0.00  0.00    +0.000 A 
ATOM     18  C   UNL     1       2.548   6.754  19.635  0.00  0.00    +0.000 A 
BRANCH  13  19
ATOM     19  N   UNL     1       3.868   6.074  17.701  0.00  0.00    +0.000 N 
BRANCH  19  21
ATOM     20  C   UNL     1       5.601   5.067  19.210  0.00  0.00    +0.000 C 
ATOM     21  C   UNL     1       4.270   4.898  18.490  0.00  0.00    +0.000 C 
ENDBRANCH  19  21
BRANCH  19  22
ATOM     22  C   UNL     1       4.807   6.627  16.709  0.00  0.00    +0.000 C 
ATOM     23  C   UNL     1       5.282   5.596  15.691  0.00  0.00    +0.000 C 
ENDBRANCH  19  22
ENDBRANCH  13  19
ENDBRANCH  12  16
ENDBRANCH   1  12
BRANCH   1  24
ATOM     24  C   UNL     1      -1.473  10.368  19.737  0.00  0.00    +0.000 C 
BRANCH  24  25
ATOM     25  C   UNL     1      -2.087  10.509  18.359  0.00  0.00    +0.000 A 
ATOM     26  C   UNL     1      -1.550   9.799  17.274  0.00  0.00    +0.000 A 
ATOM     27  C   UNL     1      -2.192   9.800  16.034  0.00  0.00    +0.000 A 
ATOM     28  C   UNL     1      -3.369  10.528  15.854  0.00  0.00    +0.000 A 
ATOM     29 CL   UNL     1      -4.135  10.445  14.306  0.00  0.00    +0.000 Cl
ATOM     30  C   UNL     1      -3.892  11.275  16.914  0.00  0.00    +0.000 A 
ATOM     31 CL   UNL     1      -5.347  12.197  16.764  0.00  0.00    +0.000 Cl
ATOM     32  C   UNL     1      -3.250  11.271  18.159  0.00  0.00    +0.000 A 
ENDBRANCH  24  25
ENDBRANCH   1  24
TORSDOF 9
ENDMDL
MODEL 5
REMARK VINA RESULT:      -7.1      5.125      9.479
REMARK  Name = 
REMARK  12 active torsions:
REMARK  status: ('A' for Active; 'I' for Inactive)
REMARK    1  A    between atoms: C_1  and  C_2
REMARK    2  A    between atoms: C_2  and  N_3
REMARK    3  A    between atoms: N_3  and  C_4
REMARK    4  A    between atoms: N_3  and  C_6
REMARK    5  A    between atoms: C_4  and  C_5
REMARK    6  A    between atoms: C_9  and  C_10
REMARK    7  A    between atoms: C_10  and  N_11
REMARK    8  A    between atoms: N_11  and  C_12
REMARK    9  A    between atoms: N_11  and  S_21
REMARK   10  A    between atoms: C_12  and  C_13
REMARK   11  A    between atoms: S_21  and  C_24
REMARK   12  A    between atoms: C_27  and  C_28
REMARK                            x       y       z     vdW  Elec       q    Type
REMARK                         _______ _______ _______ _____ _____    ______ ____
ROOT
ATOM      1  N   UNL     1       0.133  11.156  19.795  0.00  0.00    +0.000 NA
ENDROOT
BRANCH   1   2
ATOM      2  S   UNL     1       0.621  12.712  20.401  0.00  0.00    +0.000 S 
ATOM      3  O   UNL     1       1.687  12.592  21.364  0.00  0.00    +0.000 OA
ATOM      4  O   UNL     1       0.774  13.605  19.266  0.00  0.00    +0.000 OA
BRANCH   2   5
ATOM      5  C   UNL     1      -0.817  13.234  21.315  0.00  0.00    +0.000 A 
ATOM      6  C   UNL     1      -1.017  12.725  22.603  0.00  0.00    +0.000 A 
ATOM      7  C   UNL     1      -2.080  13.196  23.376  0.00  0.00    +0.000 A 
ATOM      8  C   UNL     1      -2.944  14.175  22.869  0.00  0.00    +0.000 A 
ATOM      9  C   UNL     1      -4.089  14.691  23.690  0.00  0.00    +0.000 C 
ATOM     10  C   UNL     1      -2.721  14.688  21.582  0.00  0.00    +0.000 A 
ATOM     11  C   UNL     1      -1.653  14.228  20.808  0.00  0.00    +0.000 A 
ENDBRANCH   2   5
ENDBRANCH   1   2
BRANCH   1  12
ATOM     12  C   UNL     1       0.911  10.069  20.484  0.00  0.00    +0.000 C 
BRANCH  12  16
ATOM     13  C   UNL     1       2.872   6.888  18.243  0.00  0.00    +0.000 A 
ATOM     14  C   UNL     1       2.491   8.095  17.628  0.00  0.00    +0.000 A 
ATOM     15  C   UNL     1       1.784   9.095  18.317  0.00  0.00    +0.000 A 
ATOM     16  C   UNL     1       1.437   8.918  19.654  0.00  0.00    +0.000 A 
ATOM     17  C   UNL     1       1.748   7.689  20.260  0.00  0.00    +0.000 A 
ATOM     18  C   UNL     1       2.446   6.690  19.561  0.00  0.00    +0.000 A 
BRANCH  13  19
ATOM     19  N   UNL     1       3.690   5.942  17.602  0.00  0.00    +0.000 N 
BRANCH  19  21
ATOM     20  C   UNL     1       2.717   3.633  17.474  0.00  0.00    +0.000 C 
ATOM     21  C   UNL     1       3.685   4.582  18.166  0.00  0.00    +0.000 C 
ENDBRANCH  19  21
BRANCH  19  22
ATOM     22  C   UNL     1       4.915   6.446  16.956  0.00  0.00    +0.000 C 
ATOM     23  C   UNL     1       5.399   5.561  15.812  0.00  0.00    +0.000 C 
ENDBRANCH  19  22
ENDBRANCH  13  19
ENDBRANCH  12  16
ENDBRANCH   1  12
BRANCH   1  24
ATOM     24  C   UNL     1      -1.336  10.899  19.835  0.00  0.00    +0.000 C 
BRANCH  24  25
ATOM     25  C   UNL     1      -2.010  10.845  18.478  0.00  0.00    +0.000 A 
ATOM     26  C   UNL     1      -1.466  10.054  17.455  0.00  0.00    +0.000 A 
ATOM     27  C   UNL     1      -2.152   9.874  16.252  0.00  0.00    +0.000 A 
ATOM     28  C   UNL     1      -3.382  10.501  16.046  0.00  0.00    +0.000 A 
ATOM     29 CL   UNL     1      -4.198  10.196  14.552  0.00  0.00    +0.000 Cl
ATOM     30  C   UNL     1      -3.916  11.327  17.041  0.00  0.00    +0.000 A 
ATOM     31 CL   UNL     1      -5.434  12.132  16.856  0.00  0.00    +0.000 Cl
ATOM     32  C   UNL     1      -3.228  11.504  18.248  0.00  0.00    +0.000 A 
ENDBRANCH  24  25
ENDBRANCH   1  24
TORSDOF 9
ENDMDL
MODEL 6
REMARK VINA RESULT:      -7.0      5.288      8.668
REMARK  Name = 
REMARK  12 active torsions:
REMARK  status: ('A' for Active; 'I' for Inactive)
REMARK    1  A    between atoms: C_1  and  C_2
REMARK    2  A    between atoms: C_2  and  N_3
REMARK    3  A    between atoms: N_3  and  C_4
REMARK    4  A    between atoms: N_3  and  C_6
REMARK    5  A    between atoms: C_4  and  C_5
REMARK    6  A    between atoms: C_9  and  C_10
REMARK    7  A    between atoms: C_10  and  N_11
REMARK    8  A    between atoms: N_11  and  C_12
REMARK    9  A    between atoms: N_11  and  S_21
REMARK   10  A    between atoms: C_12  and  C_13
REMARK   11  A    between atoms: S_21  and  C_24
REMARK   12  A    between atoms: C_27  and  C_28
REMARK                            x       y       z     vdW  Elec       q    Type
REMARK                         _______ _______ _______ _____ _____    ______ ____
ROOT
ATOM      1  N   UNL     1      -0.219  11.201  19.968  0.00  0.00    +0.000 NA
ENDROOT
BRANCH   1   2
ATOM      2  S   UNL     1      -0.298  12.774  20.709  0.00  0.00    +0.000 S 
ATOM      3  O   UNL     1      -1.610  13.356  20.571  0.00  0.00    +0.000 OA
ATOM      4  O   UNL     1       0.312  12.680  22.022  0.00  0.00    +0.000 OA
BRANCH   2   5
ATOM      5  C   UNL     1       0.783  13.739  19.672  0.00  0.00    +0.000 A 
ATOM      6  C   UNL     1       0.822  15.126  19.846  0.00  0.00    +0.000 A 
ATOM      7  C   UNL     1       1.734  15.891  19.116  0.00  0.00    +0.000 A 
ATOM      8  C   UNL     1       2.610  15.275  18.213  0.00  0.00    +0.000 A 
ATOM      9  C   UNL     1       3.596  16.085  17.423  0.00  0.00    +0.000 C 
ATOM     10  C   UNL     1       2.571  13.881  18.061  0.00  0.00    +0.000 A 
ATOM     11  C   UNL     1       1.667  13.109  18.797  0.00  0.00    +0.000 A 
ENDBRANCH   2   5
ENDBRANCH   1   2
BRANCH   1  12
ATOM     12  C   UNL     1       0.771  10.338  20.698  0.00  0.00    +0.000 C 
BRANCH  12  16
ATOM     13  C   UNL     1       2.602   6.784  18.966  0.00  0.00    +0.000 A 
ATOM     14  C   UNL     1       2.423   7.960  18.214  0.00  0.00    +0.000 A 
ATOM     15  C   UNL     1       1.760   9.086  18.733  0.00  0.00    +0.000 A 
ATOM     16  C   UNL     1       1.255   9.068  20.031  0.00  0.00    +0.000 A 
ATOM     17  C   UNL     1       1.362   7.876  20.766  0.00  0.00    +0.000 A 
ATOM     18  C   UNL     1       2.018   6.752  20.236  0.00  0.00    +0.000 A 
BRANCH  13  19
ATOM     19  N   UNL     1       3.376   5.705  18.503  0.00  0.00    +0.000 N 
BRANCH  19  21
ATOM     20  C   UNL     1       5.636   5.858  17.425  0.00  0.00    +0.000 C 
ATOM     21  C   UNL     1       4.125   5.924  17.255  0.00  0.00    +0.000 C 
ENDBRANCH  19  21
BRANCH  19  22
ATOM     22  C   UNL     1       2.891   4.350  18.820  0.00  0.00    +0.000 C 
ATOM     23  C   UNL     1       1.814   3.857  17.861  0.00  0.00    +0.000 C 
ENDBRANCH  19  22
ENDBRANCH  13  19
ENDBRANCH  12  16
ENDBRANCH   1  12
BRANCH   1  24
ATOM     24  C   UNL     1      -1.536  10.519  19.803  0.00  0.00    +0.000 C 
BRANCH  24  25
ATOM     25  C   UNL     1      -2.117  10.587  18.405  0.00  0.00    +0.000 A 
ATOM     26  C   UNL     1      -1.572   9.801  17.378  0.00  0.00    +0.000 A 
ATOM     27  C   UNL     1      -2.186   9.738  16.126  0.00  0.00    +0.000 A 
ATOM     28  C   UNL     1      -3.343  10.477  15.874  0.00  0.00    +0.000 A 
ATOM     29 CL   UNL     1      -4.076  10.314  14.317  0.00  0.00    +0.000 Cl
ATOM     30  C   UNL     1      -3.873  11.299  16.874  0.00  0.00    +0.000 A 
ATOM     31 CL   UNL     1      -5.303  12.240  16.634  0.00  0.00    +0.000 Cl
ATOM     32  C   UNL     1      -3.258  11.359  18.132  0.00  0.00    +0.000 A 
ENDBRANCH  24  25
ENDBRANCH   1  24
TORSDOF 9
ENDMDL
MODEL 7
REMARK VINA RESULT:      -7.0      5.312      8.437
REMARK  Name = 
REMARK  12 active torsions:
REMARK  status: ('A' for Active; 'I' for Inactive)
REMARK    1  A    between atoms: C_1  and  C_2
REMARK    2  A    between atoms: C_2  and  N_3
REMARK    3  A    between atoms: N_3  and  C_4
REMARK    4  A    between atoms: N_3  and  C_6
REMARK    5  A    between atoms: C_4  and  C_5
REMARK    6  A    between atoms: C_9  and  C_10
REMARK    7  A    between atoms: C_10  and  N_11
REMARK    8  A    between atoms: N_11  and  C_12
REMARK    9  A    between atoms: N_11  and  S_21
REMARK   10  A    between atoms: C_12  and  C_13
REMARK   11  A    between atoms: S_21  and  C_24
REMARK   12  A    between atoms: C_27  and  C_28
REMARK                            x       y       z     vdW  Elec       q    Type
REMARK                         _______ _______ _______ _____ _____    ______ ____
ROOT
ATOM      1  N   UNL     1       0.066  11.497  19.944  0.00  0.00    +0.000 NA
ENDROOT
BRANCH   1   2
ATOM      2  S   UNL     1       0.110  13.116  20.578  0.00  0.00    +0.000 S 
ATOM      3  O   UNL     1      -0.977  13.913  20.064  0.00  0.00    +0.000 OA
ATOM      4  O   UNL     1       0.321  13.029  22.011  0.00  0.00    +0.000 OA
BRANCH   2   5
ATOM      5  C   UNL     1       1.595  13.774  19.846  0.00  0.00    +0.000 A 
ATOM      6  C   UNL     1       2.621  14.217  20.686  0.00  0.00    +0.000 A 
ATOM      7  C   UNL     1       3.833  14.642  20.136  0.00  0.00    +0.000 A 
ATOM      8  C   UNL     1       4.024  14.623  18.749  0.00  0.00    +0.000 A 
ATOM      9  C   UNL     1       5.321  15.076  18.145  0.00  0.00    +0.000 C 
ATOM     10  C   UNL     1       2.992  14.161  17.919  0.00  0.00    +0.000 A 
ATOM     11  C   UNL     1       1.781  13.725  18.464  0.00  0.00    +0.000 A 
ENDBRANCH   2   5
ENDBRANCH   1   2
BRANCH   1  12
ATOM     12  C   UNL     1       1.065  10.636  20.665  0.00  0.00    +0.000 C 
BRANCH  12  16
ATOM     13  C   UNL     1       2.222   6.637  19.377  0.00  0.00    +0.000 A 
ATOM     14  C   UNL     1       2.231   7.728  18.488  0.00  0.00    +0.000 A 
ATOM     15  C   UNL     1       1.781   9.004  18.867  0.00  0.00    +0.000 A 
ATOM     16  C   UNL     1       1.309   9.230  20.158  0.00  0.00    +0.000 A 
ATOM     17  C   UNL     1       1.227   8.135  21.033  0.00  0.00    +0.000 A 
ATOM     18  C   UNL     1       1.670   6.859  20.643  0.00  0.00    +0.000 A 
BRANCH  13  19
ATOM     19  N   UNL     1       2.790   5.393  19.049  0.00  0.00    +0.000 N 
BRANCH  19  21
ATOM     20  C   UNL     1       1.396   3.403  19.673  0.00  0.00    +0.000 C 
ATOM     21  C   UNL     1       2.578   4.301  20.012  0.00  0.00    +0.000 C 
ENDBRANCH  19  21
BRANCH  19  22
ATOM     22  C   UNL     1       4.028   5.414  18.249  0.00  0.00    +0.000 C 
ATOM     23  C   UNL     1       4.040   4.375  17.134  0.00  0.00    +0.000 C 
ENDBRANCH  19  22
ENDBRANCH  13  19
ENDBRANCH  12  16
ENDBRANCH   1  12
BRANCH   1  24
ATOM     24  C   UNL     1      -1.288  10.872  19.912  0.00  0.00    +0.000 C 
BRANCH  24  25
ATOM     25  C   UNL     1      -1.928  10.808  18.540  0.00  0.00    +0.000 A 
ATOM     26  C   UNL     1      -1.379   9.983  17.546  0.00  0.00    +0.000 A 
ATOM     27  C   UNL     1      -2.039   9.798  16.329  0.00  0.00    +0.000 A 
ATOM     28  C   UNL     1      -3.246  10.451  16.079  0.00  0.00    +0.000 A 
ATOM     29 CL   UNL     1      -4.031  10.138  14.571  0.00  0.00    +0.000 Cl
ATOM     30  C   UNL     1      -3.783  11.310  17.044  0.00  0.00    +0.000 A 
ATOM     31 CL   UNL     1      -5.275  12.150  16.804  0.00  0.00    +0.000 Cl
ATOM     32  C   UNL     1      -3.123  11.493  18.266  0.00  0.00    +0.000 A 
ENDBRANCH  24  25
ENDBRANCH   1  24
TORSDOF 9
ENDMDL
MODEL 8
REMARK VINA RESULT:      -7.0      5.179      9.145
REMARK  Name = 
REMARK  12 active torsions:
REMARK  status: ('A' for Active; 'I' for Inactive)
REMARK    1  A    between atoms: C_1  and  C_2
REMARK    2  A    between atoms: C_2  and  N_3
REMARK    3  A    between atoms: N_3  and  C_4
REMARK    4  A    between atoms: N_3  and  C_6
REMARK    5  A    between atoms: C_4  and  C_5
REMARK    6  A    between atoms: C_9  and  C_10
REMARK    7  A    between atoms: C_10  and  N_11
REMARK    8  A    between atoms: N_11  and  C_12
REMARK    9  A    between atoms: N_11  and  S_21
REMARK   10  A    between atoms: C_12  and  C_13
REMARK   11  A    between atoms: S_21  and  C_24
REMARK   12  A    between atoms: C_27  and  C_28
REMARK                            x       y       z     vdW  Elec       q    Type
REMARK                         _______ _______ _______ _____ _____    ______ ____
ROOT
ATOM      1  N   UNL     1       0.155  11.442  20.430  0.00  0.00    +0.000 NA
ENDROOT
BRANCH   1   2
ATOM      2  S   UNL     1       0.848  12.840  21.199  0.00  0.00    +0.000 S 
ATOM      3  O   UNL     1       0.217  13.110  22.468  0.00  0.00    +0.000 OA
ATOM      4  O   UNL     1       2.292  12.721  21.125  0.00  0.00    +0.000 OA
BRANCH   2   5
ATOM      5  C   UNL     1       0.352  14.160  20.110  0.00  0.00    +0.000 A 
ATOM      6  C   UNL     1      -0.759  14.937  20.453  0.00  0.00    +0.000 A 
ATOM      7  C   UNL     1      -1.104  16.039  19.669  0.00  0.00    +0.000 A 
ATOM      8  C   UNL     1      -0.342  16.370  18.541  0.00  0.00    +0.000 A 
ATOM      9  C   UNL     1      -0.702  17.552  17.689  0.00  0.00    +0.000 C 
ATOM     10  C   UNL     1       0.779  15.591  18.217  0.00  0.00    +0.000 A 
ATOM     11  C   UNL     1       1.136  14.494  19.005  0.00  0.00    +0.000 A 
ENDBRANCH   2   5
ENDBRANCH   1   2
BRANCH   1  12
ATOM     12  C   UNL     1       0.705  10.188  21.051  0.00  0.00    +0.000 C 
BRANCH  12  16
ATOM     13  C   UNL     1       2.534   7.133  18.539  0.00  0.00    +0.000 A 
ATOM     14  C   UNL     1       2.070   8.348  18.001  0.00  0.00    +0.000 A 
ATOM     15  C   UNL     1       1.404   9.307  18.783  0.00  0.00    +0.000 A 
ATOM     16  C   UNL     1       1.183   9.078  20.139  0.00  0.00    +0.000 A 
ATOM     17  C   UNL     1       1.576   7.840  20.674  0.00  0.00    +0.000 A 
ATOM     18  C   UNL     1       2.233   6.883  19.882  0.00  0.00    +0.000 A 
BRANCH  13  19
ATOM     19  N   UNL     1       3.314   6.230  17.796  0.00  0.00    +0.000 N 
BRANCH  19  21
ATOM     20  C   UNL     1       1.558   4.446  17.635  0.00  0.00    +0.000 C 
ATOM     21  C   UNL     1       3.001   4.802  17.964  0.00  0.00    +0.000 C 
ENDBRANCH  19  21
BRANCH  19  22
ATOM     22  C   UNL     1       4.702   6.630  17.502  0.00  0.00    +0.000 C 
ATOM     23  C   UNL     1       5.079   6.458  16.035  0.00  0.00    +0.000 C 
ENDBRANCH  19  22
ENDBRANCH  13  19
ENDBRANCH  12  16
ENDBRANCH   1  12
BRANCH   1  24
ATOM     24  C   UNL     1      -1.337  11.429  20.378  0.00  0.00    +0.000 C 
BRANCH  24  25
ATOM     25  C   UNL     1      -1.923  11.243  18.993  0.00  0.00    +0.000 A 
ATOM     26  C   UNL     1      -1.278  10.414  18.062  0.00  0.00    +0.000 A 
ATOM     27  C   UNL     1      -1.880  10.113  16.839  0.00  0.00    +0.000 A 
ATOM     28  C   UNL     1      -3.126  10.653  16.518  0.00  0.00    +0.000 A 
ATOM     29 CL   UNL     1      -3.833  10.199  15.007  0.00  0.00    +0.000 Cl
ATOM     30  C   UNL     1      -3.762  11.514  17.419  0.00  0.00    +0.000 A 
ATOM     31 CL   UNL     1      -5.307  12.217  17.091  0.00  0.00    +0.000 Cl
ATOM     32  C   UNL     1      -3.159  11.813  18.647  0.00  0.00    +0.000 A 
ENDBRANCH  24  25
ENDBRANCH   1  24
TORSDOF 9
ENDMDL
MODEL 9
REMARK VINA RESULT:      -6.9      2.149      3.402
REMARK  Name = 
REMARK  12 active torsions:
REMARK  status: ('A' for Active; 'I' for Inactive)
REMARK    1  A    between atoms: C_1  and  C_2
REMARK    2  A    between atoms: C_2  and  N_3
REMARK    3  A    between atoms: N_3  and  C_4
REMARK    4  A    between atoms: N_3  and  C_6
REMARK    5  A    between atoms: C_4  and  C_5
REMARK    6  A    between atoms: C_9  and  C_10
REMARK    7  A    between atoms: C_10  and  N_11
REMARK    8  A    between atoms: N_11  and  C_12
REMARK    9  A    between atoms: N_11  and  S_21
REMARK   10  A    between atoms: C_12  and  C_13
REMARK   11  A    between atoms: S_21  and  C_24
REMARK   12  A    between atoms: C_27  and  C_28
REMARK                            x       y       z     vdW  Elec       q    Type
REMARK                         _______ _______ _______ _____ _____    ______ ____
ROOT
ATOM      1  N   UNL     1       5.315   5.619  17.452  0.00  0.00    +0.000 NA
ENDROOT
BRANCH   1   2
ATOM      2  S   UNL     1       6.967   5.744  16.922  0.00  0.00    +0.000 S 
ATOM      3  O   UNL     1       7.349   7.117  16.704  0.00  0.00    +0.000 OA
ATOM      4  O   UNL     1       7.777   4.900  17.781  0.00  0.00    +0.000 OA
BRANCH   2   5
ATOM      5  C   UNL     1       6.909   4.986  15.310  0.00  0.00    +0.000 A 
ATOM      6  C   UNL     1       6.039   3.911  15.101  0.00  0.00    +0.000 A 
ATOM      7  C   UNL     1       5.903   3.367  13.823  0.00  0.00    +0.000 A 
ATOM      8  C   UNL     1       6.632   3.895  12.749  0.00  0.00    +0.000 A 
ATOM      9  C   UNL     1       6.494   3.320  11.369  0.00  0.00    +0.000 C 
ATOM     10  C   UNL     1       7.489   4.983  12.970  0.00  0.00    +0.000 A 
ATOM     11  C   UNL     1       7.622   5.538  14.245  0.00  0.00    +0.000 A 
ENDBRANCH   2   5
ENDBRANCH   1   2
BRANCH   1  12
ATOM     12  C   UNL     1       4.535   6.819  16.990  0.00  0.00    +0.000 C 
BRANCH  12  16
ATOM     13  C   UNL     1       1.484   8.510  19.601  0.00  0.00    +0.000 A 
ATOM     14  C   UNL     1       2.190   7.344  19.953  0.00  0.00    +0.000 A 
ATOM     15  C   UNL     1       3.117   6.741  19.085  0.00  0.00    +0.000 A 
ATOM     16  C   UNL     1       3.369   7.292  17.831  0.00  0.00    +0.000 A 
ATOM     17  C   UNL     1       2.618   8.412  17.438  0.00  0.00    +0.000 A 
ATOM     18  C   UNL     1       1.686   9.004  18.308  0.00  0.00    +0.000 A 
BRANCH  13  19
ATOM     19  N   UNL     1       0.656   9.191  20.510  0.00  0.00    +0.000 N 
BRANCH  19  21
ATOM     20  C   UNL     1       0.174  11.642  20.270  0.00  0.00    +0.000 C 
ATOM     21  C   UNL     1      -0.238  10.213  19.943  0.00  0.00    +0.000 C 
ENDBRANCH  19  21
BRANCH  19  22
ATOM     22  C   UNL     1       1.171   9.369  21.879  0.00  0.00    +0.000 C 
ATOM     23  C   UNL     1       0.078   9.334  22.941  0.00  0.00    +0.000 C 
ENDBRANCH  19  22
ENDBRANCH  13  19
ENDBRANCH  12  16
ENDBRANCH   1  12
BRANCH   1  24
ATOM     24  C   UNL     1       4.635   4.341  17.091  0.00  0.00    +0.000 C 
BRANCH  24  25
ATOM     25  C   UNL     1       3.875   3.683  18.225  0.00  0.00    +0.000 A 
ATOM     26  C   UNL     1       4.484   3.524  19.480  0.00  0.00    +0.000 A 
ATOM     27  C   UNL     1       3.751   3.059  20.574  0.00  0.00    +0.000 A 
ATOM     28  C   UNL     1       2.404   2.725  20.425  0.00  0.00    +0.000 A 
ATOM     29 CL   UNL     1       1.546   2.201  21.831  0.00  0.00    +0.000 Cl
ATOM     30  C   UNL     1       1.795   2.838  19.170  0.00  0.00    +0.000 A 
ATOM     31 CL   UNL     1       0.132   2.445  18.912  0.00  0.00    +0.000 Cl
ATOM     32  C   UNL     1       2.530   3.308  18.074  0.00  0.00    +0.000 A 
ENDBRANCH  24  25
ENDBRANCH   1  24
TORSDOF 9
ENDMDL
