MODEL 1
REMARK VINA RESULT:      -5.4      0.000      0.000
REMARK  Name = 
REMARK  3 active torsions:
REMARK  status: ('A' for Active; 'I' for Inactive)
REMARK    1  A    between atoms: C_1  and  C_2
REMARK    2  A    between atoms: C_2  and  N_3
REMARK    3  A    between atoms: C_2  and  C_4
REMARK                            x       y       z     vdW  Elec       q    Type
REMARK                         _______ _______ _______ _____ _____    ______ ____
ROOT
ATOM      1  C   UNL     1       2.352   4.027  18.041  0.00  0.00    +0.000 A 
ATOM      2  C   UNL     1       2.337   5.390  18.368  0.00  0.00    +0.000 A 
ATOM      3  C   UNL     1       3.346   6.247  17.919  0.00  0.00    +0.000 A 
ATOM      4  C   UNL     1       4.397   5.753  17.144  0.00  0.00    +0.000 A 
ATOM      5 CL   UNL     1       5.619   6.867  16.645  0.00  0.00    +0.000 Cl
ATOM      6  C   UNL     1       4.434   4.397  16.813  0.00  0.00    +0.000 A 
ATOM      7 CL   UNL     1       5.707   3.708  15.869  0.00  0.00    +0.000 Cl
ATOM      8  C   UNL     1       3.419   3.542  17.259  0.00  0.00    +0.000 A 
ENDROOT
BRANCH   1  10
ATOM      9  C   UNL     1       0.875   3.283  20.003  0.00  0.00    +0.000 C 
ATOM     10  C   UNL     1       1.306   3.052  18.552  0.00  0.00    +0.000 C 
BRANCH  10  11
ATOM     11  N   UNL     1       1.792   1.679  18.409  0.00  0.00    +0.000 NA
ATOM     12  H   UNL     1       1.259   1.068  19.027  0.00  0.00    +0.000 HD
ATOM     13  H   UNL     1       2.757   1.630  18.735  0.00  0.00    +0.000 HD
ENDBRANCH  10  11
ENDBRANCH   1  10
TORSDOF 2
ENDMDL
MODEL 2
REMARK VINA RESULT:      -5.4      3.253      4.553
REMARK  Name = 
REMARK  3 active torsions:
REMARK  status: ('A' for Active; 'I' for Inactive)
REMARK    1  A    between atoms: C_1  and  C_2
REMARK    2  A    between atoms: C_2  and  N_3
REMARK    3  A    between atoms: C_2  and  C_4
REMARK                            x       y       z     vdW  Elec       q    Type
REMARK                         _______ _______ _______ _____ _____    ______ ____
ROOT
ATOM      1  C   UNL     1       5.186   5.166  16.025  0.00  0.00    +0.000 A 
ATOM      2  C   UNL     1       4.788   6.328  16.701  0.00  0.00    +0.000 A 
ATOM      3  C   UNL     1       3.828   6.276  17.715  0.00  0.00    +0.000 A 
ATOM      4  C   UNL     1       3.236   5.059  18.063  0.00  0.00    +0.000 A 
ATOM      5 CL   UNL     1       2.040   5.076  19.308  0.00  0.00    +0.000 Cl
ATOM      6  C   UNL     1       3.614   3.892  17.397  0.00  0.00    +0.000 A 
ATOM      7 CL   UNL     1       2.919   2.352  17.762  0.00  0.00    +0.000 Cl
ATOM      8  C   UNL     1       4.581   3.946  16.386  0.00  0.00    +0.000 A 
ENDROOT
BRANCH   1  10
ATOM      9  C   UNL     1       6.183   3.928  14.010  0.00  0.00    +0.000 C 
ATOM     10  C   UNL     1       6.187   5.186  14.883  0.00  0.00    +0.000 C 
BRANCH  10  11
ATOM     11  N   UNL     1       7.536   5.402  15.407  0.00  0.00    +0.000 NA
ATOM     12  H   UNL     1       7.490   6.039  16.201  0.00  0.00    +0.000 HD
ATOM     13  H   UNL     1       8.098   5.877  14.702  0.00  0.00    +0.000 HD
ENDBRANCH  10  11
ENDBRANCH   1  10
TORSDOF 2
ENDMDL
MODEL 3
REMARK VINA RESULT:      -5.4      0.996      2.200
REMARK  Name = 
REMARK  3 active torsions:
REMARK  status: ('A' for Active; 'I' for Inactive)
REMARK    1  A    between atoms: C_1  and  C_2
REMARK    2  A    between atoms: C_2  and  N_3
REMARK    3  A    between atoms: C_2  and  C_4
REMARK                            x       y       z     vdW  Elec       q    Type
REMARK                         _______ _______ _______ _____ _____    ______ ____
ROOT
ATOM      1  C   UNL     1       2.311   3.935  18.340  0.00  0.00    +0.000 A 
ATOM      2  C   UNL     1       3.395   3.371  17.653  0.00  0.00    +0.000 A 
ATOM      3  C   UNL     1       4.366   4.180  17.056  0.00  0.00    +0.000 A 
ATOM      4  C   UNL     1       4.262   5.571  17.123  0.00  0.00    +0.000 A 
ATOM      5 CL   UNL     1       5.487   6.505  16.341  0.00  0.00    +0.000 Cl
ATOM      6  C   UNL     1       3.187   6.152  17.797  0.00  0.00    +0.000 A 
ATOM      7 CL   UNL     1       2.983   7.864  17.915  0.00  0.00    +0.000 Cl
ATOM      8  C   UNL     1       2.219   5.339  18.400  0.00  0.00    +0.000 A 
ENDROOT
BRANCH   1  10
ATOM      9  C   UNL     1       1.030   3.285  20.466  0.00  0.00    +0.000 C 
ATOM     10  C   UNL     1       1.207   3.094  18.957  0.00  0.00    +0.000 C 
BRANCH  10  11
ATOM     11  N   UNL     1       1.445   1.678  18.678  0.00  0.00    +0.000 NA
ATOM     12  H   UNL     1       1.826   1.580  17.738  0.00  0.00    +0.000 HD
ATOM     13  H   UNL     1       0.555   1.183  18.670  0.00  0.00    +0.000 HD
ENDBRANCH  10  11
ENDBRANCH   1  10
TORSDOF 2
ENDMDL
MODEL 4
REMARK VINA RESULT:      -5.4      3.287      5.010
REMARK  Name = 
REMARK  3 active torsions:
REMARK  status: ('A' for Active; 'I' for Inactive)
REMARK    1  A    between atoms: C_1  and  C_2
REMARK    2  A    between atoms: C_2  and  N_3
REMARK    3  A    between atoms: C_2  and  C_4
REMARK                            x       y       z     vdW  Elec       q    Type
REMARK                         _______ _______ _______ _____ _____    ______ ____
ROOT
ATOM      1  C   UNL     1       5.691   5.431  17.116  0.00  0.00    +0.000 A 
ATOM      2  C   UNL     1       5.233   4.135  16.840  0.00  0.00    +0.000 A 
ATOM      3  C   UNL     1       3.900   3.781  17.066  0.00  0.00    +0.000 A 
ATOM      4  C   UNL     1       3.002   4.715  17.586  0.00  0.00    +0.000 A 
ATOM      5 CL   UNL     1       1.376   4.199  17.861  0.00  0.00    +0.000 Cl
ATOM      6  C   UNL     1       3.440   6.009  17.874  0.00  0.00    +0.000 A 
ATOM      7 CL   UNL     1       2.392   7.217  18.530  0.00  0.00    +0.000 Cl
ATOM      8  C   UNL     1       4.774   6.363  17.641  0.00  0.00    +0.000 A 
ENDROOT
BRANCH   1  10
ATOM      9  C   UNL     1       7.478   7.239  17.461  0.00  0.00    +0.000 C 
ATOM     10  C   UNL     1       7.142   5.842  16.935  0.00  0.00    +0.000 C 
BRANCH  10  11
ATOM     11  N   UNL     1       7.509   5.761  15.521  0.00  0.00    +0.000 NA
ATOM     12  H   UNL     1       6.669   5.608  14.964  0.00  0.00    +0.000 HD
ATOM     13  H   UNL     1       8.094   4.941  15.372  0.00  0.00    +0.000 HD
ENDBRANCH  10  11
ENDBRANCH   1  10
TORSDOF 2
ENDMDL
MODEL 5
REMARK VINA RESULT:      -5.3      3.420      4.868
REMARK  Name = 
REMARK  3 active torsions:
REMARK  status: ('A' for Active; 'I' for Inactive)
REMARK    1  A    between atoms: C_1  and  C_2
REMARK    2  A    between atoms: C_2  and  N_3
REMARK    3  A    between atoms: C_2  and  C_4
REMARK                            x       y       z     vdW  Elec       q    Type
REMARK                         _______ _______ _______ _____ _____    ______ ____
ROOT
ATOM      1  C   UNL     1       5.526   4.998  18.276  0.00  0.00    +0.000 A 
ATOM      2  C   UNL     1       5.019   4.306  17.167  0.00  0.00    +0.000 A 
ATOM      3  C   UNL     1       3.690   3.871  17.138  0.00  0.00    +0.000 A 
ATOM      4  C   UNL     1       2.847   4.109  18.225  0.00  0.00    +0.000 A 
ATOM      5 CL   UNL     1       1.226   3.522  18.126  0.00  0.00    +0.000 Cl
ATOM      6  C   UNL     1       3.335   4.791  19.342  0.00  0.00    +0.000 A 
ATOM      7 CL   UNL     1       2.357   5.113  20.730  0.00  0.00    +0.000 Cl
ATOM      8  C   UNL     1       4.664   5.231  19.366  0.00  0.00    +0.000 A 
ENDROOT
BRANCH   1  10
ATOM      9  C   UNL     1       7.320   6.673  17.530  0.00  0.00    +0.000 C 
ATOM     10  C   UNL     1       6.975   5.441  18.371  0.00  0.00    +0.000 C 
BRANCH  10  11
ATOM     11  N   UNL     1       7.859   4.338  17.990  0.00  0.00    +0.000 NA
ATOM     12  H   UNL     1       8.660   4.710  17.482  0.00  0.00    +0.000 HD
ATOM     13  H   UNL     1       7.372   3.729  17.334  0.00  0.00    +0.000 HD
ENDBRANCH  10  11
ENDBRANCH   1  10
TORSDOF 2
ENDMDL
MODEL 6
REMARK VINA RESULT:      -5.3      1.716      1.966
REMARK  Name = 
REMARK  3 active torsions:
REMARK  status: ('A' for Active; 'I' for Inactive)
REMARK    1  A    between atoms: C_1  and  C_2
REMARK    2  A    between atoms: C_2  and  N_3
REMARK    3  A    between atoms: C_2  and  C_4
REMARK                            x       y       z     vdW  Elec       q    Type
REMARK                         _______ _______ _______ _____ _____    ______ ____
ROOT
ATOM      1  C   UNL     1       3.856   3.786  17.793  0.00  0.00    +0.000 A 
ATOM      2  C   UNL     1       4.160   4.394  19.020  0.00  0.00    +0.000 A 
ATOM      3  C   UNL     1       5.361   5.086  19.200  0.00  0.00    +0.000 A 
ATOM      4  C   UNL     1       6.288   5.171  18.159  0.00  0.00    +0.000 A 
ATOM      5 CL   UNL     1       7.760   6.022  18.463  0.00  0.00    +0.000 Cl
ATOM      6  C   UNL     1       6.007   4.567  16.932  0.00  0.00    +0.000 A 
ATOM      7 CL   UNL     1       7.107   4.619  15.600  0.00  0.00    +0.000 Cl
ATOM      8  C   UNL     1       4.800   3.879  16.752  0.00  0.00    +0.000 A 
ENDROOT
BRANCH   1  10
ATOM      9  C   UNL     1       1.335   3.573  18.224  0.00  0.00    +0.000 C 
ATOM     10  C   UNL     1       2.588   2.981  17.572  0.00  0.00    +0.000 C 
BRANCH  10  11
ATOM     11  N   UNL     1       2.776   1.612  18.053  0.00  0.00    +0.000 NA
ATOM     12  H   UNL     1       3.766   1.455  18.239  0.00  0.00    +0.000 HD
ATOM     13  H   UNL     1       2.526   0.958  17.313  0.00  0.00    +0.000 HD
ENDBRANCH  10  11
ENDBRANCH   1  10
TORSDOF 2
ENDMDL
MODEL 7
REMARK VINA RESULT:      -5.3      3.210      4.448
REMARK  Name = 
REMARK  3 active torsions:
REMARK  status: ('A' for Active; 'I' for Inactive)
REMARK    1  A    between atoms: C_1  and  C_2
REMARK    2  A    between atoms: C_2  and  N_3
REMARK    3  A    between atoms: C_2  and  C_4
REMARK                            x       y       z     vdW  Elec       q    Type
REMARK                         _______ _______ _______ _____ _____    ______ ____
ROOT
ATOM      1  C   UNL     1       5.609   5.189  18.354  0.00  0.00    +0.000 A 
ATOM      2  C   UNL     1       4.683   6.186  18.014  0.00  0.00    +0.000 A 
ATOM      3  C   UNL     1       3.340   5.871  17.788  0.00  0.00    +0.000 A 
ATOM      4  C   UNL     1       2.901   4.549  17.885  0.00  0.00    +0.000 A 
ATOM      5 CL   UNL     1       1.232   4.234  17.569  0.00  0.00    +0.000 Cl
ATOM      6  C   UNL     1       3.809   3.542  18.215  0.00  0.00    +0.000 A 
ATOM      7 CL   UNL     1       3.344   1.882  18.343  0.00  0.00    +0.000 Cl
ATOM      8  C   UNL     1       5.152   3.860  18.447  0.00  0.00    +0.000 A 
ENDROOT
BRANCH   1  10
ATOM      9  C   UNL     1       7.571   6.784  17.917  0.00  0.00    +0.000 C 
ATOM     10  C   UNL     1       7.086   5.480  18.555  0.00  0.00    +0.000 C 
BRANCH  10  11
ATOM     11  N   UNL     1       7.887   4.368  18.043  0.00  0.00    +0.000 NA
ATOM     12  H   UNL     1       8.282   4.627  17.139  0.00  0.00    +0.000 HD
ATOM     13  H   UNL     1       7.278   3.572  17.861  0.00  0.00    +0.000 HD
ENDBRANCH  10  11
ENDBRANCH   1  10
TORSDOF 2
ENDMDL
MODEL 8
REMARK VINA RESULT:      -5.3      3.564      4.890
REMARK  Name = 
REMARK  3 active torsions:
REMARK  status: ('A' for Active; 'I' for Inactive)
REMARK    1  A    between atoms: C_1  and  C_2
REMARK    2  A    between atoms: C_2  and  N_3
REMARK    3  A    between atoms: C_2  and  C_4
REMARK                            x       y       z     vdW  Elec       q    Type
REMARK                         _______ _______ _______ _____ _____    ______ ____
ROOT
ATOM      1  C   UNL     1       5.008   4.637  18.367  0.00  0.00    +0.000 A 
ATOM      2  C   UNL     1       4.494   3.867  17.314  0.00  0.00    +0.000 A 
ATOM      3  C   UNL     1       3.254   3.231  17.429  0.00  0.00    +0.000 A 
ATOM      4  C   UNL     1       2.511   3.343  18.606  0.00  0.00    +0.000 A 
ATOM      5 CL   UNL     1       1.000   2.511  18.683  0.00  0.00    +0.000 Cl
ATOM      6  C   UNL     1       3.009   4.101  19.668  0.00  0.00    +0.000 A 
ATOM      7 CL   UNL     1       2.154   4.277  21.160  0.00  0.00    +0.000 Cl
ATOM      8  C   UNL     1       4.248   4.742  19.548  0.00  0.00    +0.000 A 
ENDROOT
BRANCH   1  10
ATOM      9  C   UNL     1       7.371   4.615  17.367  0.00  0.00    +0.000 C 
ATOM     10  C   UNL     1       6.372   5.301  18.304  0.00  0.00    +0.000 C 
BRANCH  10  11
ATOM     11  N   UNL     1       6.950   5.379  19.646  0.00  0.00    +0.000 NA
ATOM     12  H   UNL     1       6.747   4.518  20.150  0.00  0.00    +0.000 HD
ATOM     13  H   UNL     1       6.488   6.123  20.167  0.00  0.00    +0.000 HD
ENDBRANCH  10  11
ENDBRANCH   1  10
TORSDOF 2
ENDMDL
MODEL 9
REMARK VINA RESULT:      -5.3      3.252      4.620
REMARK  Name = 
REMARK  3 active torsions:
REMARK  status: ('A' for Active; 'I' for Inactive)
REMARK    1  A    between atoms: C_1  and  C_2
REMARK    2  A    between atoms: C_2  and  N_3
REMARK    3  A    between atoms: C_2  and  C_4
REMARK                            x       y       z     vdW  Elec       q    Type
REMARK                         _______ _______ _______ _____ _____    ______ ____
ROOT
ATOM      1  C   UNL     1       5.709   5.588  17.401  0.00  0.00    +0.000 A 
ATOM      2  C   UNL     1       4.682   6.538  17.497  0.00  0.00    +0.000 A 
ATOM      3  C   UNL     1       3.355   6.144  17.690  0.00  0.00    +0.000 A 
ATOM      4  C   UNL     1       3.028   4.789  17.778  0.00  0.00    +0.000 A 
ATOM      5 CL   UNL     1       1.364   4.378  17.994  0.00  0.00    +0.000 Cl
ATOM      6  C   UNL     1       4.035   3.828  17.678  0.00  0.00    +0.000 A 
ATOM      7 CL   UNL     1       3.708   2.133  17.765  0.00  0.00    +0.000 Cl
ATOM      8  C   UNL     1       5.364   4.225  17.491  0.00  0.00    +0.000 A 
ENDROOT
BRANCH   1  10
ATOM      9  C   UNL     1       7.521   7.397  17.555  0.00  0.00    +0.000 C 
ATOM     10  C   UNL     1       7.154   5.970  17.138  0.00  0.00    +0.000 C 
BRANCH  10  11
ATOM     11  N   UNL     1       7.468   5.789  15.721  0.00  0.00    +0.000 NA
ATOM     12  H   UNL     1       8.205   5.091  15.626  0.00  0.00    +0.000 HD
ATOM     13  H   UNL     1       7.856   6.655  15.349  0.00  0.00    +0.000 HD
ENDBRANCH  10  11
ENDBRANCH   1  10
TORSDOF 2
ENDMDL
