MODEL 1
REMARK VINA RESULT:      -8.6      0.000      0.000
REMARK  Name = 
REMARK  4 active torsions:
REMARK  status: ('A' for Active; 'I' for Inactive)
REMARK    1  A    between atoms: C_1  and  N_2
REMARK    2  A    between atoms: C_4  and  C_5
REMARK    3  A    between atoms: C_9  and  C_10
REMARK    4  A    between atoms: C_10  and  N_11
REMARK                            x       y       z     vdW  Elec       q    Type
REMARK                         _______ _______ _______ _____ _____    ______ ____
ROOT
ATOM      1  C   UNL     1       1.682   7.697  20.255  0.00  0.00    +0.000 A 
ATOM      2  C   UNL     1       2.290   7.879  19.011  0.00  0.00    +0.000 A 
ATOM      3  C   UNL     1       2.774   6.779  18.296  0.00  0.00    +0.000 A 
ATOM      4  F   UNL     1       3.302   6.998  17.083  0.00  0.00    +0.000 F 
ATOM      5  C   UNL     1       2.695   5.481  18.803  0.00  0.00    +0.000 A 
ATOM      6  C   UNL     1       2.068   5.321  20.038  0.00  0.00    +0.000 A 
ATOM      7  F   UNL     1       1.920   4.093  20.553  0.00  0.00    +0.000 F 
ATOM      8  C   UNL     1       1.564   6.399  20.759  0.00  0.00    +0.000 A 
ENDROOT
BRANCH   1  12
ATOM      9  C   UNL     1      -0.152  12.162  21.366  0.00  0.00    +0.000 C 
ATOM     10  N   UNL     1       0.355  10.816  21.463  0.00  0.00    +0.000 N 
ATOM     11  C   UNL     1       0.678   9.990  20.428  0.00  0.00    +0.000 A 
ATOM     12  C   UNL     1       1.175   8.835  20.996  0.00  0.00    +0.000 A 
ATOM     13  C   UNL     1       1.093   9.075  22.387  0.00  0.00    +0.000 A 
ATOM     14  N   UNL     1       0.592  10.280  22.673  0.00  0.00    +0.000 NA
ENDBRANCH   1  12
BRANCH   5  15
ATOM     15  C   UNL     1       3.262   4.288  18.083  0.00  0.00    +0.000 C 
BRANCH  15  16
ATOM     16  N   UNL     1       4.684   4.401  17.829  0.00  0.00    +0.000 N 
ATOM     17  C   UNL     1       5.642   4.497  18.835  0.00  0.00    +0.000 C 
ATOM     18  O   UNL     1       5.514   4.419  20.035  0.00  0.00    +0.000 OA
ATOM     19  C   UNL     1       6.987   4.716  18.102  0.00  0.00    +0.000 C 
ATOM     20  O   UNL     1       8.079   4.885  18.598  0.00  0.00    +0.000 OA
ATOM     21  C   UNL     1       6.666   4.675  16.675  0.00  0.00    +0.000 A 
ATOM     22  C   UNL     1       7.509   4.806  15.589  0.00  0.00    +0.000 A 
ATOM     23  C   UNL     1       6.933   4.689  14.325  0.00  0.00    +0.000 A 
ATOM     24  C   UNL     1       5.553   4.447  14.187  0.00  0.00    +0.000 A 
ATOM     25  C   UNL     1       4.720   4.338  15.310  0.00  0.00    +0.000 A 
ATOM     26  C   UNL     1       5.292   4.466  16.562  0.00  0.00    +0.000 A 
ENDBRANCH  15  16
ENDBRANCH   5  15
TORSDOF 3
ENDMDL
MODEL 2
REMARK VINA RESULT:      -8.5      0.112      1.616
REMARK  Name = 
REMARK  4 active torsions:
REMARK  status: ('A' for Active; 'I' for Inactive)
REMARK    1  A    between atoms: C_1  and  N_2
REMARK    2  A    between atoms: C_4  and  C_5
REMARK    3  A    between atoms: C_9  and  C_10
REMARK    4  A    between atoms: C_10  and  N_11
REMARK                            x       y       z     vdW  Elec       q    Type
REMARK                         _______ _______ _______ _____ _____    ______ ____
ROOT
ATOM      1  C   UNL     1       1.673   7.779  20.271  0.00  0.00    +0.000 A 
ATOM      2  C   UNL     1       1.625   6.498  20.825  0.00  0.00    +0.000 A 
ATOM      3  C   UNL     1       2.149   5.408  20.123  0.00  0.00    +0.000 A 
ATOM      4  F   UNL     1       2.127   4.206  20.717  0.00  0.00    +0.000 F 
ATOM      5  C   UNL     1       2.705   5.552  18.851  0.00  0.00    +0.000 A 
ATOM      6  C   UNL     1       2.759   6.842  18.325  0.00  0.00    +0.000 A 
ATOM      7  F   UNL     1       3.324   7.050  17.129  0.00  0.00    +0.000 F 
ATOM      8  C   UNL     1       2.259   7.944  19.013  0.00  0.00    +0.000 A 
ENDROOT
BRANCH   1  12
ATOM      9  C   UNL     1      -0.089  12.279  21.359  0.00  0.00    +0.000 C 
ATOM     10  N   UNL     1       0.349  10.909  21.455  0.00  0.00    +0.000 N 
ATOM     11  C   UNL     1       0.750  10.108  20.429  0.00  0.00    +0.000 A 
ATOM     12  C   UNL     1       1.135   8.912  20.998  0.00  0.00    +0.000 A 
ATOM     13  C   UNL     1       0.910   9.105  22.382  0.00  0.00    +0.000 A 
ATOM     14  N   UNL     1       0.430  10.320  22.661  0.00  0.00    +0.000 NA
ENDBRANCH   1  12
BRANCH   5  15
ATOM     15  C   UNL     1       3.220   4.388  18.048  0.00  0.00    +0.000 C 
BRANCH  15  16
ATOM     16  N   UNL     1       4.647   4.451  17.809  0.00  0.00    +0.000 N 
ATOM     17  C   UNL     1       5.598   4.491  18.825  0.00  0.00    +0.000 C 
ATOM     18  O   UNL     1       5.456   4.397  20.022  0.00  0.00    +0.000 OA
ATOM     19  C   UNL     1       6.958   4.672  18.109  0.00  0.00    +0.000 C 
ATOM     20  O   UNL     1       8.051   4.789  18.618  0.00  0.00    +0.000 OA
ATOM     21  C   UNL     1       6.649   4.671  16.678  0.00  0.00    +0.000 A 
ATOM     22  C   UNL     1       7.508   4.789  15.603  0.00  0.00    +0.000 A 
ATOM     23  C   UNL     1       6.940   4.718  14.331  0.00  0.00    +0.000 A 
ATOM     24  C   UNL     1       5.553   4.532  14.176  0.00  0.00    +0.000 A 
ATOM     25  C   UNL     1       4.705   4.434  15.290  0.00  0.00    +0.000 A 
ATOM     26  C   UNL     1       5.269   4.517  16.549  0.00  0.00    +0.000 A 
ENDBRANCH  15  16
ENDBRANCH   5  15
TORSDOF 3
ENDMDL
MODEL 3
REMARK VINA RESULT:      -7.9      4.470      8.436
REMARK  Name = 
REMARK  4 active torsions:
REMARK  status: ('A' for Active; 'I' for Inactive)
REMARK    1  A    between atoms: C_1  and  N_2
REMARK    2  A    between atoms: C_4  and  C_5
REMARK    3  A    between atoms: C_9  and  C_10
REMARK    4  A    between atoms: C_10  and  N_11
REMARK                            x       y       z     vdW  Elec       q    Type
REMARK                         _______ _______ _______ _____ _____    ______ ____
ROOT
ATOM      1  C   UNL     1       1.962   6.967  19.876  0.00  0.00    +0.000 A 
ATOM      2  C   UNL     1       1.375   7.743  20.877  0.00  0.00    +0.000 A 
ATOM      3  C   UNL     1       1.058   9.083  20.634  0.00  0.00    +0.000 A 
ATOM      4  F   UNL     1       0.447   9.774  21.607  0.00  0.00    +0.000 F 
ATOM      5  C   UNL     1       1.338   9.694  19.411  0.00  0.00    +0.000 A 
ATOM      6  C   UNL     1       1.908   8.895  18.420  0.00  0.00    +0.000 A 
ATOM      7  F   UNL     1       2.156   9.412  17.209  0.00  0.00    +0.000 F 
ATOM      8  C   UNL     1       2.217   7.555  18.634  0.00  0.00    +0.000 A 
ENDROOT
BRANCH   1  12
ATOM      9  C   UNL     1       4.257   2.577  19.816  0.00  0.00    +0.000 C 
ATOM     10  N   UNL     1       3.326   3.643  20.090  0.00  0.00    +0.000 N 
ATOM     11  C   UNL     1       3.431   4.941  19.687  0.00  0.00    +0.000 A 
ATOM     12  C   UNL     1       2.287   5.576  20.124  0.00  0.00    +0.000 A 
ATOM     13  C   UNL     1       1.567   4.559  20.794  0.00  0.00    +0.000 A 
ATOM     14  N   UNL     1       2.199   3.382  20.775  0.00  0.00    +0.000 NA
ENDBRANCH   1  12
BRANCH   5  15
ATOM     15  C   UNL     1       1.065  11.149  19.142  0.00  0.00    +0.000 C 
BRANCH  15  16
ATOM     16  N   UNL     1      -0.342  11.487  19.226  0.00  0.00    +0.000 N 
ATOM     17  C   UNL     1      -0.874  12.338  20.190  0.00  0.00    +0.000 C 
ATOM     18  O   UNL     1      -0.313  12.997  21.036  0.00  0.00    +0.000 OA
ATOM     19  C   UNL     1      -2.405  12.307  19.967  0.00  0.00    +0.000 C 
ATOM     20  O   UNL     1      -3.257  12.881  20.609  0.00  0.00    +0.000 OA
ATOM     21  C   UNL     1      -2.613  11.436  18.809  0.00  0.00    +0.000 A 
ATOM     22  C   UNL     1      -3.795  11.082  18.188  0.00  0.00    +0.000 A 
ATOM     23  C   UNL     1      -3.697  10.256  17.069  0.00  0.00    +0.000 A 
ATOM     24  C   UNL     1      -2.440   9.818  16.611  0.00  0.00    +0.000 A 
ATOM     25  C   UNL     1      -1.259  10.180  17.276  0.00  0.00    +0.000 A 
ATOM     26  C   UNL     1      -1.360  10.989  18.392  0.00  0.00    +0.000 A 
ENDBRANCH  15  16
ENDBRANCH   5  15
TORSDOF 3
ENDMDL
MODEL 4
REMARK VINA RESULT:      -7.7      0.753      1.924
REMARK  Name = 
REMARK  4 active torsions:
REMARK  status: ('A' for Active; 'I' for Inactive)
REMARK    1  A    between atoms: C_1  and  N_2
REMARK    2  A    between atoms: C_4  and  C_5
REMARK    3  A    between atoms: C_9  and  C_10
REMARK    4  A    between atoms: C_10  and  N_11
REMARK                            x       y       z     vdW  Elec       q    Type
REMARK                         _______ _______ _______ _____ _____    ______ ____
ROOT
ATOM      1  C   UNL     1       1.564   8.512  19.793  0.00  0.00    +0.000 A 
ATOM      2  C   UNL     1       1.526   7.331  20.539  0.00  0.00    +0.000 A 
ATOM      3  C   UNL     1       2.058   6.150  20.014  0.00  0.00    +0.000 A 
ATOM      4  F   UNL     1       2.048   5.055  20.787  0.00  0.00    +0.000 F 
ATOM      5  C   UNL     1       2.613   6.099  18.734  0.00  0.00    +0.000 A 
ATOM      6  C   UNL     1       2.656   7.293  18.014  0.00  0.00    +0.000 A 
ATOM      7  F   UNL     1       3.219   7.317  16.799  0.00  0.00    +0.000 F 
ATOM      8  C   UNL     1       2.147   8.484  18.523  0.00  0.00    +0.000 A 
ENDROOT
BRANCH   1  12
ATOM      9  C   UNL     1      -0.887  11.712  22.672  0.00  0.00    +0.000 C 
ATOM     10  N   UNL     1      -0.070  11.139  21.632  0.00  0.00    +0.000 N 
ATOM     11  C   UNL     1       0.292   9.831  21.507  0.00  0.00    +0.000 A 
ATOM     12  C   UNL     1       1.017   9.739  20.337  0.00  0.00    +0.000 A 
ATOM     13  C   UNL     1       1.037  11.064  19.844  0.00  0.00    +0.000 A 
ATOM     14  N   UNL     1       0.378  11.918  20.631  0.00  0.00    +0.000 NA
ENDBRANCH   1  12
BRANCH   5  15
ATOM     15  C   UNL     1       3.137   4.829  18.120  0.00  0.00    +0.000 C 
BRANCH  15  16
ATOM     16  N   UNL     1       4.573   4.842  17.929  0.00  0.00    +0.000 N 
ATOM     17  C   UNL     1       5.488   4.976  18.970  0.00  0.00    +0.000 C 
ATOM     18  O   UNL     1       5.302   5.015  20.164  0.00  0.00    +0.000 OA
ATOM     19  C   UNL     1       6.876   5.056  18.289  0.00  0.00    +0.000 C 
ATOM     20  O   UNL     1       7.952   5.209  18.823  0.00  0.00    +0.000 OA
ATOM     21  C   UNL     1       6.618   4.903  16.857  0.00  0.00    +0.000 A 
ATOM     22  C   UNL     1       7.516   4.889  15.807  0.00  0.00    +0.000 A 
ATOM     23  C   UNL     1       6.992   4.689  14.531  0.00  0.00    +0.000 A 
ATOM     24  C   UNL     1       5.608   4.511  14.345  0.00  0.00    +0.000 A 
ATOM     25  C   UNL     1       4.720   4.550  15.430  0.00  0.00    +0.000 A 
ATOM     26  C   UNL     1       5.240   4.759  16.693  0.00  0.00    +0.000 A 
ENDBRANCH  15  16
ENDBRANCH   5  15
TORSDOF 3
ENDMDL
MODEL 5
REMARK VINA RESULT:      -7.6      4.623      8.390
REMARK  Name = 
REMARK  4 active torsions:
REMARK  status: ('A' for Active; 'I' for Inactive)
REMARK    1  A    between atoms: C_1  and  N_2
REMARK    2  A    between atoms: C_4  and  C_5
REMARK    3  A    between atoms: C_9  and  C_10
REMARK    4  A    between atoms: C_10  and  N_11
REMARK                            x       y       z     vdW  Elec       q    Type
REMARK                         _______ _______ _______ _____ _____    ______ ____
ROOT
ATOM      1  C   UNL     1       1.885   7.320  19.867  0.00  0.00    +0.000 A 
ATOM      2  C   UNL     1       2.137   7.920  18.631  0.00  0.00    +0.000 A 
ATOM      3  C   UNL     1       1.842   9.272  18.431  0.00  0.00    +0.000 A 
ATOM      4  F   UNL     1       2.150   9.816  17.245  0.00  0.00    +0.000 F 
ATOM      5  C   UNL     1       1.268  10.054  19.434  0.00  0.00    +0.000 A 
ATOM      6  C   UNL     1       1.042   9.440  20.666  0.00  0.00    +0.000 A 
ATOM      7  F   UNL     1       0.538  10.152  21.681  0.00  0.00    +0.000 F 
ATOM      8  C   UNL     1       1.343   8.100  20.892  0.00  0.00    +0.000 A 
ENDROOT
BRANCH   1  12
ATOM      9  C   UNL     1       1.667   2.628  21.438  0.00  0.00    +0.000 C 
ATOM     10  N   UNL     1       2.072   3.844  20.779  0.00  0.00    +0.000 N 
ATOM     11  C   UNL     1       1.406   5.033  20.780  0.00  0.00    +0.000 A 
ATOM     12  C   UNL     1       2.194   5.920  20.077  0.00  0.00    +0.000 A 
ATOM     13  C   UNL     1       3.314   5.147  19.689  0.00  0.00    +0.000 A 
ATOM     14  N   UNL     1       3.240   3.883  20.114  0.00  0.00    +0.000 NA
ENDBRANCH   1  12
BRANCH   5  15
ATOM     15  C   UNL     1       0.884  11.494  19.228  0.00  0.00    +0.000 C 
BRANCH  15  16
ATOM     16  N   UNL     1      -0.548  11.710  19.259  0.00  0.00    +0.000 N 
ATOM     17  C   UNL     1      -1.185  12.525  20.191  0.00  0.00    +0.000 C 
ATOM     18  O   UNL     1      -0.713  13.241  21.044  0.00  0.00    +0.000 OA
ATOM     19  C   UNL     1      -2.699  12.358  19.917  0.00  0.00    +0.000 C 
ATOM     20  O   UNL     1      -3.619  12.865  20.521  0.00  0.00    +0.000 OA
ATOM     21  C   UNL     1      -2.791  11.457  18.768  0.00  0.00    +0.000 A 
ATOM     22  C   UNL     1      -3.915  10.993  18.114  0.00  0.00    +0.000 A 
ATOM     23  C   UNL     1      -3.708  10.164  17.013  0.00  0.00    +0.000 A 
ATOM     24  C   UNL     1      -2.403   9.830  16.604  0.00  0.00    +0.000 A 
ATOM     25  C   UNL     1      -1.281  10.302  17.302  0.00  0.00    +0.000 A 
ATOM     26  C   UNL     1      -1.490  11.115  18.400  0.00  0.00    +0.000 A 
ENDBRANCH  15  16
ENDBRANCH   5  15
TORSDOF 3
ENDMDL
MODEL 6
REMARK VINA RESULT:      -7.6      2.731      4.399
REMARK  Name = 
REMARK  4 active torsions:
REMARK  status: ('A' for Active; 'I' for Inactive)
REMARK    1  A    between atoms: C_1  and  N_2
REMARK    2  A    between atoms: C_4  and  C_5
REMARK    3  A    between atoms: C_9  and  C_10
REMARK    4  A    between atoms: C_10  and  N_11
REMARK                            x       y       z     vdW  Elec       q    Type
REMARK                         _______ _______ _______ _____ _____    ______ ____
ROOT
ATOM      1  C   UNL     1      -0.132   9.744  19.090  0.00  0.00    +0.000 A 
ATOM      2  C   UNL     1       0.723   9.483  18.016  0.00  0.00    +0.000 A 
ATOM      3  C   UNL     1       1.827   8.642  18.185  0.00  0.00    +0.000 A 
ATOM      4  F   UNL     1       2.589   8.379  17.113  0.00  0.00    +0.000 F 
ATOM      5  C   UNL     1       2.128   8.063  19.418  0.00  0.00    +0.000 A 
ATOM      6  C   UNL     1       1.251   8.323  20.471  0.00  0.00    +0.000 A 
ATOM      7  F   UNL     1       1.462   7.757  21.667  0.00  0.00    +0.000 F 
ATOM      8  C   UNL     1       0.137   9.143  20.322  0.00  0.00    +0.000 A 
ENDROOT
BRANCH   1  12
ATOM      9  C   UNL     1      -4.347  11.702  17.375  0.00  0.00    +0.000 C 
ATOM     10  N   UNL     1      -3.153  11.456  18.145  0.00  0.00    +0.000 N 
ATOM     11  C   UNL     1      -2.309  10.393  18.024  0.00  0.00    +0.000 A 
ATOM     12  C   UNL     1      -1.280  10.612  18.916  0.00  0.00    +0.000 A 
ATOM     13  C   UNL     1      -1.617  11.840  19.531  0.00  0.00    +0.000 A 
ATOM     14  N   UNL     1      -2.758  12.355  19.064  0.00  0.00    +0.000 NA
ENDBRANCH   1  12
BRANCH   5  15
ATOM     15  C   UNL     1       3.343   7.204  19.643  0.00  0.00    +0.000 C 
BRANCH  15  16
ATOM     16  N   UNL     1       3.307   5.963  18.897  0.00  0.00    +0.000 N 
ATOM     17  C   UNL     1       4.123   5.699  17.800  0.00  0.00    +0.000 C 
ATOM     18  O   UNL     1       5.025   6.353  17.331  0.00  0.00    +0.000 OA
ATOM     19  C   UNL     1       3.656   4.325  17.261  0.00  0.00    +0.000 C 
ATOM     20  O   UNL     1       4.074   3.730  16.293  0.00  0.00    +0.000 OA
ATOM     21  C   UNL     1       2.597   3.888  18.172  0.00  0.00    +0.000 A 
ATOM     22  C   UNL     1       1.855   2.723  18.149  0.00  0.00    +0.000 A 
ATOM     23  C   UNL     1       0.926   2.546  19.173  0.00  0.00    +0.000 A 
ATOM     24  C   UNL     1       0.771   3.523  20.175  0.00  0.00    +0.000 A 
ATOM     25  C   UNL     1       1.527   4.704  20.160  0.00  0.00    +0.000 A 
ATOM     26  C   UNL     1       2.439   4.882  19.137  0.00  0.00    +0.000 A 
ENDBRANCH  15  16
ENDBRANCH   5  15
TORSDOF 3
ENDMDL
MODEL 7
REMARK VINA RESULT:      -7.6      2.840      4.776
REMARK  Name = 
REMARK  4 active torsions:
REMARK  status: ('A' for Active; 'I' for Inactive)
REMARK    1  A    between atoms: C_1  and  N_2
REMARK    2  A    between atoms: C_4  and  C_5
REMARK    3  A    between atoms: C_9  and  C_10
REMARK    4  A    between atoms: C_10  and  N_11
REMARK                            x       y       z     vdW  Elec       q    Type
REMARK                         _______ _______ _______ _____ _____    ______ ____
ROOT
ATOM      1  C   UNL     1      -0.190   9.686  18.927  0.00  0.00    +0.000 A 
ATOM      2  C   UNL     1       0.063   9.160  20.196  0.00  0.00    +0.000 A 
ATOM      3  C   UNL     1       1.206   8.386  20.422  0.00  0.00    +0.000 A 
ATOM      4  F   UNL     1       1.433   7.947  21.668  0.00  0.00    +0.000 F 
ATOM      5  C   UNL     1       2.107   8.092  19.399  0.00  0.00    +0.000 A 
ATOM      6  C   UNL     1       1.844   8.642  18.144  0.00  0.00    +0.000 A 
ATOM      7  F   UNL     1       2.699   8.434  17.135  0.00  0.00    +0.000 F 
ATOM      8  C   UNL     1       0.723   9.428  17.900  0.00  0.00    +0.000 A 
ENDROOT
BRANCH   1  12
ATOM      9  C   UNL     1      -4.330  11.507  16.906  0.00  0.00    +0.000 C 
ATOM     10  N   UNL     1      -3.209  11.276  17.782  0.00  0.00    +0.000 N 
ATOM     11  C   UNL     1      -2.285  10.280  17.679  0.00  0.00    +0.000 A 
ATOM     12  C   UNL     1      -1.371  10.492  18.691  0.00  0.00    +0.000 A 
ATOM     13  C   UNL     1      -1.856  11.645  19.352  0.00  0.00    +0.000 A 
ATOM     14  N   UNL     1      -2.975  12.123  18.801  0.00  0.00    +0.000 NA
ENDBRANCH   1  12
BRANCH   5  15
ATOM     15  C   UNL     1       3.311   7.212  19.599  0.00  0.00    +0.000 C 
BRANCH  15  16
ATOM     16  N   UNL     1       3.221   5.954  18.886  0.00  0.00    +0.000 N 
ATOM     17  C   UNL     1       3.972   5.654  17.753  0.00  0.00    +0.000 C 
ATOM     18  O   UNL     1       4.855   6.286  17.220  0.00  0.00    +0.000 OA
ATOM     19  C   UNL     1       3.461   4.274  17.274  0.00  0.00    +0.000 C 
ATOM     20  O   UNL     1       3.820   3.652  16.298  0.00  0.00    +0.000 OA
ATOM     21  C   UNL     1       2.450   3.871  18.251  0.00  0.00    +0.000 A 
ATOM     22  C   UNL     1       1.694   2.716  18.296  0.00  0.00    +0.000 A 
ATOM     23  C   UNL     1       0.820   2.574  19.373  0.00  0.00    +0.000 A 
ATOM     24  C   UNL     1       0.731   3.576  20.358  0.00  0.00    +0.000 A 
ATOM     25  C   UNL     1       1.499   4.747  20.274  0.00  0.00    +0.000 A 
ATOM     26  C   UNL     1       2.355   4.890  19.199  0.00  0.00    +0.000 A 
ENDBRANCH  15  16
ENDBRANCH   5  15
TORSDOF 3
ENDMDL
MODEL 8
REMARK VINA RESULT:      -7.6      4.172      8.986
REMARK  Name = 
REMARK  4 active torsions:
REMARK  status: ('A' for Active; 'I' for Inactive)
REMARK    1  A    between atoms: C_1  and  N_2
REMARK    2  A    between atoms: C_4  and  C_5
REMARK    3  A    between atoms: C_9  and  C_10
REMARK    4  A    between atoms: C_10  and  N_11
REMARK                            x       y       z     vdW  Elec       q    Type
REMARK                         _______ _______ _______ _____ _____    ______ ____
ROOT
ATOM      1  C   UNL     1       2.007   6.917  19.906  0.00  0.00    +0.000 A 
ATOM      2  C   UNL     1       1.360   7.656  20.900  0.00  0.00    +0.000 A 
ATOM      3  C   UNL     1       0.961   8.973  20.650  0.00  0.00    +0.000 A 
ATOM      4  F   UNL     1       0.297   9.624  21.615  0.00  0.00    +0.000 F 
ATOM      5  C   UNL     1       1.216   9.598  19.428  0.00  0.00    +0.000 A 
ATOM      6  C   UNL     1       1.847   8.835  18.445  0.00  0.00    +0.000 A 
ATOM      7  F   UNL     1       2.074   9.365  17.237  0.00  0.00    +0.000 F 
ATOM      8  C   UNL     1       2.237   7.518  18.666  0.00  0.00    +0.000 A 
ENDROOT
BRANCH   1  12
ATOM      9  C   UNL     1       4.402   2.588  19.659  0.00  0.00    +0.000 C 
ATOM     10  N   UNL     1       3.498   3.644  20.040  0.00  0.00    +0.000 N 
ATOM     11  C   UNL     1       3.487   4.920  19.561  0.00  0.00    +0.000 A 
ATOM     12  C   UNL     1       2.417   5.550  20.162  0.00  0.00    +0.000 A 
ATOM     13  C   UNL     1       1.859   4.553  20.997  0.00  0.00    +0.000 A 
ATOM     14  N   UNL     1       2.517   3.393  20.924  0.00  0.00    +0.000 NA
ENDBRANCH   1  12
BRANCH   5  15
ATOM     15  C   UNL     1       0.853  11.032  19.153  0.00  0.00    +0.000 C 
BRANCH  15  16
ATOM     16  N   UNL     1      -0.577  11.262  19.132  0.00  0.00    +0.000 N 
ATOM     17  C   UNL     1      -1.429  10.733  18.166  0.00  0.00    +0.000 C 
ATOM     18  O   UNL     1      -1.194   9.959  17.267  0.00  0.00    +0.000 OA
ATOM     19  C   UNL     1      -2.822  11.334  18.473  0.00  0.00    +0.000 C 
ATOM     20  O   UNL     1      -3.851  11.166  17.856  0.00  0.00    +0.000 OA
ATOM     21  C   UNL     1      -2.639  12.152  19.672  0.00  0.00    +0.000 A 
ATOM     22  C   UNL     1      -3.572  12.895  20.370  0.00  0.00    +0.000 A 
ATOM     23  C   UNL     1      -3.125  13.556  21.513  0.00  0.00    +0.000 A 
ATOM     24  C   UNL     1      -1.780  13.455  21.918  0.00  0.00    +0.000 A 
ATOM     25  C   UNL     1      -0.853  12.708  21.178  0.00  0.00    +0.000 A 
ATOM     26  C   UNL     1      -1.296  12.062  20.039  0.00  0.00    +0.000 A 
ENDBRANCH  15  16
ENDBRANCH   5  15
TORSDOF 3
ENDMDL
MODEL 9
REMARK VINA RESULT:      -7.5      4.181      8.936
REMARK  Name = 
REMARK  4 active torsions:
REMARK  status: ('A' for Active; 'I' for Inactive)
REMARK    1  A    between atoms: C_1  and  N_2
REMARK    2  A    between atoms: C_4  and  C_5
REMARK    3  A    between atoms: C_9  and  C_10
REMARK    4  A    between atoms: C_10  and  N_11
REMARK                            x       y       z     vdW  Elec       q    Type
REMARK                         _______ _______ _______ _____ _____    ______ ____
ROOT
ATOM      1  C   UNL     1       1.952   7.163  19.871  0.00  0.00    +0.000 A 
ATOM      2  C   UNL     1       2.194   7.765  18.634  0.00  0.00    +0.000 A 
ATOM      3  C   UNL     1       1.792   9.085  18.403  0.00  0.00    +0.000 A 
ATOM      4  F   UNL     1       2.093   9.638  17.219  0.00  0.00    +0.000 F 
ATOM      5  C   UNL     1       1.121   9.829  19.374  0.00  0.00    +0.000 A 
ATOM      6  C   UNL     1       0.906   9.214  20.607  0.00  0.00    +0.000 A 
ATOM      7  F   UNL     1       0.309   9.894  21.594  0.00  0.00    +0.000 F 
ATOM      8  C   UNL     1       1.311   7.908  20.865  0.00  0.00    +0.000 A 
ENDROOT
BRANCH   1  12
ATOM      9  C   UNL     1       4.404   2.867  19.614  0.00  0.00    +0.000 C 
ATOM     10  N   UNL     1       3.478   3.906  19.988  0.00  0.00    +0.000 N 
ATOM     11  C   UNL     1       3.464   5.190  19.531  0.00  0.00    +0.000 A 
ATOM     12  C   UNL     1       2.371   5.797  20.114  0.00  0.00    +0.000 A 
ATOM     13  C   UNL     1       1.804   4.780  20.917  0.00  0.00    +0.000 A 
ATOM     14  N   UNL     1       2.477   3.629  20.843  0.00  0.00    +0.000 NA
ENDBRANCH   1  12
BRANCH   5  15
ATOM     15  C   UNL     1       0.624  11.228  19.132  0.00  0.00    +0.000 C 
BRANCH  15  16
ATOM     16  N   UNL     1      -0.820  11.310  19.041  0.00  0.00    +0.000 N 
ATOM     17  C   UNL     1      -1.568  10.671  18.056  0.00  0.00    +0.000 C 
ATOM     18  O   UNL     1      -1.214   9.901  17.193  0.00  0.00    +0.000 OA
ATOM     19  C   UNL     1      -3.028  11.134  18.282  0.00  0.00    +0.000 C 
ATOM     20  O   UNL     1      -4.004  10.845  17.627  0.00  0.00    +0.000 OA
ATOM     21  C   UNL     1      -2.984  11.999  19.462  0.00  0.00    +0.000 A 
ATOM     22  C   UNL     1      -4.019  12.661  20.094  0.00  0.00    +0.000 A 
ATOM     23  C   UNL     1      -3.695  13.396  21.234  0.00  0.00    +0.000 A 
ATOM     24  C   UNL     1      -2.368  13.444  21.701  0.00  0.00    +0.000 A 
ATOM     25  C   UNL     1      -1.336  12.775  21.026  0.00  0.00    +0.000 A 
ATOM     26  C   UNL     1      -1.658  12.057  19.889  0.00  0.00    +0.000 A 
ENDBRANCH  15  16
ENDBRANCH   5  15
TORSDOF 3
ENDMDL
