MODEL 1
REMARK VINA RESULT:      -7.7      0.000      0.000
REMARK  Name = 
REMARK  6 active torsions:
REMARK  status: ('A' for Active; 'I' for Inactive)
REMARK    1  A    between atoms: C_1  and  C_2
REMARK    2  A    between atoms: C_4  and  C_5
REMARK    3  A    between atoms: C_6  and  C_7
REMARK    4  A    between atoms: C_11  and  N_12
REMARK    5  A    between atoms: N_18  and  C_19
REMARK    6  A    between atoms: C_22  and  C_23
REMARK                            x       y       z     vdW  Elec       q    Type
REMARK                         _______ _______ _______ _____ _____    ______ ____
ROOT
ATOM      1  N   UNL     1       6.054   3.965  18.610  0.00  0.00    +0.000 N 
ATOM      2  C   UNL     1       4.870   3.634  19.327  0.00  0.00    +0.000 A 
ATOM      3  C   UNL     1       4.758   2.382  19.895  0.00  0.00    +0.000 A 
ATOM      4  C   UNL     1       3.547   2.077  20.471  0.00  0.00    +0.000 A 
ATOM      5  N   UNL     1       2.489   2.906  20.468  0.00  0.00    +0.000 NA
ATOM      6  C   UNL     1       2.677   4.107  19.910  0.00  0.00    +0.000 A 
ATOM      7  N   UNL     1       1.581   4.969  19.890  0.00  0.00    +0.000 N 
ATOM      8  N   UNL     1       3.838   4.492  19.351  0.00  0.00    +0.000 NA
ATOM      9  H   UNL     1       6.832   3.409  18.952  0.00  0.00    +0.000 HD
ATOM     10  H   UNL     1       0.744   4.497  20.197  0.00  0.00    +0.000 HD
ENDROOT
BRANCH   1  17
ATOM     11  C   UNL     1       5.013   5.605  16.398  0.00  0.00    +0.000 C 
ATOM     12  C   UNL     1       6.115   6.060  17.316  0.00  0.00    +0.000 A 
ATOM     13  C   UNL     1       6.734   7.298  17.048  0.00  0.00    +0.000 A 
ATOM     14  C   UNL     1       7.759   7.793  17.860  0.00  0.00    +0.000 A 
ATOM     15  C   UNL     1       8.193   7.014  18.935  0.00  0.00    +0.000 A 
ATOM     16  C   UNL     1       7.597   5.779  19.201  0.00  0.00    +0.000 A 
ATOM     17  C   UNL     1       6.542   5.291  18.415  0.00  0.00    +0.000 A 
BRANCH  14  18
ATOM     18  C   UNL     1       8.366   9.088  17.524  0.00  0.00    +0.000 C 
ATOM     19  C   UNL     1       8.848   9.919  18.454  0.00  0.00    +0.000 C 
BRANCH  19  20
ATOM     20  C   UNL     1       9.436  11.279  18.113  0.00  0.00    +0.000 C 
ATOM     21  N   UNL     1       9.925  12.406  17.830  0.00  0.00    +0.000 NA
ENDBRANCH  19  20
ENDBRANCH  14  18
ENDBRANCH   1  17
BRANCH   7  22
ATOM     22  C   UNL     1       1.574   6.368  19.959  0.00  0.00    +0.000 A 
ATOM     23  C   UNL     1       1.095   7.002  21.111  0.00  0.00    +0.000 A 
ATOM     24  C   UNL     1       0.987   8.399  21.168  0.00  0.00    +0.000 A 
ATOM     25  C   UNL     1       1.375   9.175  20.074  0.00  0.00    +0.000 A 
ATOM     26  C   UNL     1       1.882   8.556  18.930  0.00  0.00    +0.000 A 
ATOM     27  C   UNL     1       1.972   7.166  18.878  0.00  0.00    +0.000 A 
BRANCH  25  28
ATOM     28  C   UNL     1       1.238  10.601  20.110  0.00  0.00    +0.000 C 
ATOM     29  N   UNL     1       1.134  11.758  20.137  0.00  0.00    +0.000 NA
ENDBRANCH  25  28
ENDBRANCH   7  22
TORSDOF 5
ENDMDL
MODEL 2
REMARK VINA RESULT:      -7.5      0.736      1.542
REMARK  Name = 
REMARK  6 active torsions:
REMARK  status: ('A' for Active; 'I' for Inactive)
REMARK    1  A    between atoms: C_1  and  C_2
REMARK    2  A    between atoms: C_4  and  C_5
REMARK    3  A    between atoms: C_6  and  C_7
REMARK    4  A    between atoms: C_11  and  N_12
REMARK    5  A    between atoms: N_18  and  C_19
REMARK    6  A    between atoms: C_22  and  C_23
REMARK                            x       y       z     vdW  Elec       q    Type
REMARK                         _______ _______ _______ _____ _____    ______ ____
ROOT
ATOM      1  N   UNL     1       6.298   4.012  18.542  0.00  0.00    +0.000 N 
ATOM      2  C   UNL     1       5.047   3.825  19.194  0.00  0.00    +0.000 A 
ATOM      3  C   UNL     1       4.832   2.669  19.916  0.00  0.00    +0.000 A 
ATOM      4  C   UNL     1       3.567   2.489  20.423  0.00  0.00    +0.000 A 
ATOM      5  N   UNL     1       2.552   3.346  20.218  0.00  0.00    +0.000 NA
ATOM      6  C   UNL     1       2.839   4.450  19.520  0.00  0.00    +0.000 A 
ATOM      7  N   UNL     1       1.788   5.339  19.290  0.00  0.00    +0.000 N 
ATOM      8  N   UNL     1       4.056   4.714  19.015  0.00  0.00    +0.000 NA
ATOM      9  H   UNL     1       7.019   3.482  19.022  0.00  0.00    +0.000 HD
ATOM     10  H   UNL     1       0.908   4.943  19.586  0.00  0.00    +0.000 HD
ENDROOT
BRANCH   1  17
ATOM     11  C   UNL     1       8.384   5.186  20.256  0.00  0.00    +0.000 C 
ATOM     12  C   UNL     1       7.801   5.893  19.062  0.00  0.00    +0.000 A 
ATOM     13  C   UNL     1       8.215   7.215  18.805  0.00  0.00    +0.000 A 
ATOM     14  C   UNL     1       7.725   7.936  17.711  0.00  0.00    +0.000 A 
ATOM     15  C   UNL     1       6.776   7.329  16.887  0.00  0.00    +0.000 A 
ATOM     16  C   UNL     1       6.346   6.025  17.140  0.00  0.00    +0.000 A 
ATOM     17  C   UNL     1       6.860   5.280  18.212  0.00  0.00    +0.000 A 
BRANCH  14  18
ATOM     18  C   UNL     1       8.195   9.312  17.503  0.00  0.00    +0.000 C 
ATOM     19  C   UNL     1       8.883   9.985  18.432  0.00  0.00    +0.000 C 
BRANCH  19  20
ATOM     20  C   UNL     1       9.333  11.424  18.236  0.00  0.00    +0.000 C 
ATOM     21  N   UNL     1       9.706  12.617  18.074  0.00  0.00    +0.000 NA
ENDBRANCH  19  20
ENDBRANCH  14  18
ENDBRANCH   1  17
BRANCH   7  22
ATOM     22  C   UNL     1       1.840   6.733  19.167  0.00  0.00    +0.000 A 
ATOM     23  C   UNL     1       1.459   7.538  20.247  0.00  0.00    +0.000 A 
ATOM     24  C   UNL     1       1.409   8.933  20.119  0.00  0.00    +0.000 A 
ATOM     25  C   UNL     1       1.759   9.536  18.909  0.00  0.00    +0.000 A 
ATOM     26  C   UNL     1       2.168   8.747  17.833  0.00  0.00    +0.000 A 
ATOM     27  C   UNL     1       2.201   7.359  17.967  0.00  0.00    +0.000 A 
BRANCH  25  28
ATOM     28  C   UNL     1       1.680  10.959  18.757  0.00  0.00    +0.000 C 
ATOM     29  N   UNL     1       1.621  12.112  18.629  0.00  0.00    +0.000 NA
ENDBRANCH  25  28
ENDBRANCH   7  22
TORSDOF 5
ENDMDL
MODEL 3
REMARK VINA RESULT:      -7.1      5.767     10.996
REMARK  Name = 
REMARK  6 active torsions:
REMARK  status: ('A' for Active; 'I' for Inactive)
REMARK    1  A    between atoms: C_1  and  C_2
REMARK    2  A    between atoms: C_4  and  C_5
REMARK    3  A    between atoms: C_6  and  C_7
REMARK    4  A    between atoms: C_11  and  N_12
REMARK    5  A    between atoms: N_18  and  C_19
REMARK    6  A    between atoms: C_22  and  C_23
REMARK                            x       y       z     vdW  Elec       q    Type
REMARK                         _______ _______ _______ _____ _____    ______ ____
ROOT
ATOM      1  N   UNL     1      -5.311  13.084  20.518  0.00  0.00    +0.000 N 
ATOM      2  C   UNL     1      -4.881  12.785  21.840  0.00  0.00    +0.000 A 
ATOM      3  C   UNL     1      -5.755  12.980  22.891  0.00  0.00    +0.000 A 
ATOM      4  C   UNL     1      -5.247  12.788  24.154  0.00  0.00    +0.000 A 
ATOM      5  N   UNL     1      -3.966  12.468  24.403  0.00  0.00    +0.000 NA
ATOM      6  C   UNL     1      -3.182  12.283  23.334  0.00  0.00    +0.000 A 
ATOM      7  N   UNL     1      -1.847  11.963  23.583  0.00  0.00    +0.000 N 
ATOM      8  N   UNL     1      -3.608  12.423  22.067  0.00  0.00    +0.000 NA
ATOM      9  H   UNL     1      -6.322  13.005  20.457  0.00  0.00    +0.000 HD
ATOM     10  H   UNL     1      -1.632  12.045  24.565  0.00  0.00    +0.000 HD
ENDROOT
BRANCH   1  17
ATOM     11  C   UNL     1      -7.108  12.285  18.327  0.00  0.00    +0.000 C 
ATOM     12  C   UNL     1      -5.625  12.033  18.312  0.00  0.00    +0.000 A 
ATOM     13  C   UNL     1      -5.086  11.303  17.234  0.00  0.00    +0.000 A 
ATOM     14  C   UNL     1      -3.716  11.035  17.144  0.00  0.00    +0.000 A 
ATOM     15  C   UNL     1      -2.883  11.475  18.174  0.00  0.00    +0.000 A 
ATOM     16  C   UNL     1      -3.408  12.187  19.256  0.00  0.00    +0.000 A 
ATOM     17  C   UNL     1      -4.774  12.494  19.336  0.00  0.00    +0.000 A 
BRANCH  14  18
ATOM     18  C   UNL     1      -3.220  10.265  15.997  0.00  0.00    +0.000 C 
ATOM     19  C   UNL     1      -3.417  10.652  14.731  0.00  0.00    +0.000 C 
BRANCH  19  20
ATOM     20  C   UNL     1      -2.943   9.836  13.540  0.00  0.00    +0.000 C 
ATOM     21  N   UNL     1      -2.548   9.158  12.553  0.00  0.00    +0.000 NA
ENDBRANCH  19  20
ENDBRANCH  14  18
ENDBRANCH   1  17
BRANCH   7  22
ATOM     22  C   UNL     1      -0.986  11.167  22.817  0.00  0.00    +0.000 A 
ATOM     23  C   UNL     1      -0.423  11.685  21.645  0.00  0.00    +0.000 A 
ATOM     24  C   UNL     1       0.364  10.878  20.810  0.00  0.00    +0.000 A 
ATOM     25  C   UNL     1       0.607   9.546  21.154  0.00  0.00    +0.000 A 
ATOM     26  C   UNL     1       0.076   9.026  22.334  0.00  0.00    +0.000 A 
ATOM     27  C   UNL     1      -0.717   9.833  23.150  0.00  0.00    +0.000 A 
BRANCH  25  28
ATOM     28  C   UNL     1       1.383   8.705  20.291  0.00  0.00    +0.000 C 
ATOM     29  N   UNL     1       2.005   8.020  19.589  0.00  0.00    +0.000 NA
ENDBRANCH  25  28
ENDBRANCH   7  22
TORSDOF 5
ENDMDL
MODEL 4
REMARK VINA RESULT:      -7.0      4.382      9.763
REMARK  Name = 
REMARK  6 active torsions:
REMARK  status: ('A' for Active; 'I' for Inactive)
REMARK    1  A    between atoms: C_1  and  C_2
REMARK    2  A    between atoms: C_4  and  C_5
REMARK    3  A    between atoms: C_6  and  C_7
REMARK    4  A    between atoms: C_11  and  N_12
REMARK    5  A    between atoms: N_18  and  C_19
REMARK    6  A    between atoms: C_22  and  C_23
REMARK                            x       y       z     vdW  Elec       q    Type
REMARK                         _______ _______ _______ _____ _____    ______ ____
ROOT
ATOM      1  N   UNL     1      10.479  14.902  19.221  0.00  0.00    +0.000 N 
ATOM      2  C   UNL     1       9.693  16.069  19.011  0.00  0.00    +0.000 A 
ATOM      3  C   UNL     1      10.314  17.232  18.602  0.00  0.00    +0.000 A 
ATOM      4  C   UNL     1       9.524  18.356  18.532  0.00  0.00    +0.000 A 
ATOM      5  N   UNL     1       8.224  18.377  18.871  0.00  0.00    +0.000 NA
ATOM      6  C   UNL     1       7.689  17.209  19.246  0.00  0.00    +0.000 A 
ATOM      7  N   UNL     1       6.344  17.224  19.615  0.00  0.00    +0.000 N 
ATOM      8  N   UNL     1       8.385  16.062  19.314  0.00  0.00    +0.000 NA
ATOM      9  H   UNL     1      11.320  14.945  18.651  0.00  0.00    +0.000 HD
ATOM     10  H   UNL     1       5.993  18.169  19.666  0.00  0.00    +0.000 HD
ENDROOT
BRANCH   1  17
ATOM     11  C   UNL     1       9.744  13.455  21.676  0.00  0.00    +0.000 C 
ATOM     12  C   UNL     1       9.707  12.832  20.308  0.00  0.00    +0.000 A 
ATOM     13  C   UNL     1       9.386  11.463  20.210  0.00  0.00    +0.000 A 
ATOM     14  C   UNL     1       9.323  10.813  18.973  0.00  0.00    +0.000 A 
ATOM     15  C   UNL     1       9.626  11.543  17.822  0.00  0.00    +0.000 A 
ATOM     16  C   UNL     1       9.960  12.896  17.907  0.00  0.00    +0.000 A 
ATOM     17  C   UNL     1       9.988  13.566  19.140  0.00  0.00    +0.000 A 
BRANCH  14  18
ATOM     18  C   UNL     1       8.987   9.383  18.941  0.00  0.00    +0.000 C 
ATOM     19  C   UNL     1       8.216   8.848  17.988  0.00  0.00    +0.000 C 
BRANCH  19  20
ATOM     20  C   UNL     1       7.830   7.377  17.976  0.00  0.00    +0.000 C 
ATOM     21  N   UNL     1       7.510   6.158  17.966  0.00  0.00    +0.000 NA
ENDBRANCH  19  20
ENDBRANCH  14  18
ENDBRANCH   1  17
BRANCH   7  22
ATOM     22  C   UNL     1       5.391  16.209  19.467  0.00  0.00    +0.000 A 
ATOM     23  C   UNL     1       5.043  15.767  18.185  0.00  0.00    +0.000 A 
ATOM     24  C   UNL     1       4.023  14.820  18.005  0.00  0.00    +0.000 A 
ATOM     25  C   UNL     1       3.354  14.296  19.114  0.00  0.00    +0.000 A 
ATOM     26  C   UNL     1       3.712  14.707  20.398  0.00  0.00    +0.000 A 
ATOM     27  C   UNL     1       4.717  15.658  20.566  0.00  0.00    +0.000 A 
BRANCH  25  28
ATOM     28  C   UNL     1       2.289  13.353  18.939  0.00  0.00    +0.000 C 
ATOM     29  N   UNL     1       1.420  12.595  18.796  0.00  0.00    +0.000 NA
ENDBRANCH  25  28
ENDBRANCH   7  22
TORSDOF 5
ENDMDL
MODEL 5
REMARK VINA RESULT:      -6.9      0.405      1.007
REMARK  Name = 
REMARK  6 active torsions:
REMARK  status: ('A' for Active; 'I' for Inactive)
REMARK    1  A    between atoms: C_1  and  C_2
REMARK    2  A    between atoms: C_4  and  C_5
REMARK    3  A    between atoms: C_6  and  C_7
REMARK    4  A    between atoms: C_11  and  N_12
REMARK    5  A    between atoms: N_18  and  C_19
REMARK    6  A    between atoms: C_22  and  C_23
REMARK                            x       y       z     vdW  Elec       q    Type
REMARK                         _______ _______ _______ _____ _____    ______ ____
ROOT
ATOM      1  N   UNL     1       6.234   4.029  18.642  0.00  0.00    +0.000 N 
ATOM      2  C   UNL     1       5.004   3.678  19.265  0.00  0.00    +0.000 A 
ATOM      3  C   UNL     1       4.891   2.451  19.885  0.00  0.00    +0.000 A 
ATOM      4  C   UNL     1       3.645   2.118  20.363  0.00  0.00    +0.000 A 
ATOM      5  N   UNL     1       2.559   2.897  20.222  0.00  0.00    +0.000 NA
ATOM      6  C   UNL     1       2.749   4.078  19.622  0.00  0.00    +0.000 A 
ATOM      7  N   UNL     1       1.624   4.887  19.458  0.00  0.00    +0.000 N 
ATOM      8  N   UNL     1       3.939   4.489  19.152  0.00  0.00    +0.000 NA
ATOM      9  H   UNL     1       6.999   3.526  19.082  0.00  0.00    +0.000 HD
ATOM     10  H   UNL     1       0.782   4.392  19.712  0.00  0.00    +0.000 HD
ENDROOT
BRANCH   1  17
ATOM     11  C   UNL     1       5.227   5.562  16.340  0.00  0.00    +0.000 C 
ATOM     12  C   UNL     1       6.274   6.084  17.286  0.00  0.00    +0.000 A 
ATOM     13  C   UNL     1       6.860   7.334  17.004  0.00  0.00    +0.000 A 
ATOM     14  C   UNL     1       7.834   7.891  17.839  0.00  0.00    +0.000 A 
ATOM     15  C   UNL     1       8.250   7.161  18.954  0.00  0.00    +0.000 A 
ATOM     16  C   UNL     1       7.688   5.914  19.236  0.00  0.00    +0.000 A 
ATOM     17  C   UNL     1       6.683   5.365  18.425  0.00  0.00    +0.000 A 
BRANCH  14  18
ATOM     18  C   UNL     1       8.408   9.196  17.486  0.00  0.00    +0.000 C 
ATOM     19  C   UNL     1       8.889  10.042  18.403  0.00  0.00    +0.000 C 
BRANCH  19  20
ATOM     20  C   UNL     1       9.444  11.411  18.045  0.00  0.00    +0.000 C 
ATOM     21  N   UNL     1       9.904  12.547  17.748  0.00  0.00    +0.000 NA
ENDBRANCH  19  20
ENDBRANCH  14  18
ENDBRANCH   1  17
BRANCH   7  22
ATOM     22  C   UNL     1       1.553   6.285  19.454  0.00  0.00    +0.000 A 
ATOM     23  C   UNL     1       1.834   6.990  18.278  0.00  0.00    +0.000 A 
ATOM     24  C   UNL     1       1.863   8.392  18.271  0.00  0.00    +0.000 A 
ATOM     25  C   UNL     1       1.594   9.101  19.444  0.00  0.00    +0.000 A 
ATOM     26  C   UNL     1       1.283   8.411  20.616  0.00  0.00    +0.000 A 
ATOM     27  C   UNL     1       1.270   7.017  20.616  0.00  0.00    +0.000 A 
BRANCH  25  28
ATOM     28  C   UNL     1       1.654  10.533  19.455  0.00  0.00    +0.000 C 
ATOM     29  N   UNL     1       1.710  11.693  19.465  0.00  0.00    +0.000 NA
ENDBRANCH  25  28
ENDBRANCH   7  22
TORSDOF 5
ENDMDL
MODEL 6
REMARK VINA RESULT:      -6.8      4.609      9.986
REMARK  Name = 
REMARK  6 active torsions:
REMARK  status: ('A' for Active; 'I' for Inactive)
REMARK    1  A    between atoms: C_1  and  C_2
REMARK    2  A    between atoms: C_4  and  C_5
REMARK    3  A    between atoms: C_6  and  C_7
REMARK    4  A    between atoms: C_11  and  N_12
REMARK    5  A    between atoms: N_18  and  C_19
REMARK    6  A    between atoms: C_22  and  C_23
REMARK                            x       y       z     vdW  Elec       q    Type
REMARK                         _______ _______ _______ _____ _____    ______ ____
ROOT
ATOM      1  N   UNL     1      11.096  15.131  19.101  0.00  0.00    +0.000 N 
ATOM      2  C   UNL     1      10.279  16.256  18.799  0.00  0.00    +0.000 A 
ATOM      3  C   UNL     1      10.871  17.408  18.322  0.00  0.00    +0.000 A 
ATOM      4  C   UNL     1      10.049  18.498  18.162  0.00  0.00    +0.000 A 
ATOM      5  N   UNL     1       8.743  18.501  18.477  0.00  0.00    +0.000 NA
ATOM      6  C   UNL     1       8.237  17.345  18.922  0.00  0.00    +0.000 A 
ATOM      7  N   UNL     1       6.884  17.342  19.265  0.00  0.00    +0.000 N 
ATOM      8  N   UNL     1       8.966  16.227  19.080  0.00  0.00    +0.000 NA
ATOM      9  H   UNL     1      11.945  15.162  18.544  0.00  0.00    +0.000 HD
ATOM     10  H   UNL     1       6.504  18.277  19.246  0.00  0.00    +0.000 HD
ENDROOT
BRANCH   1  17
ATOM     11  C   UNL     1      11.372  13.488  16.674  0.00  0.00    +0.000 C 
ATOM     12  C   UNL     1      10.698  13.002  17.929  0.00  0.00    +0.000 A 
ATOM     13  C   UNL     1      10.096  11.728  17.908  0.00  0.00    +0.000 A 
ATOM     14  C   UNL     1       9.457  11.203  19.036  0.00  0.00    +0.000 A 
ATOM     15  C   UNL     1       9.391  11.988  20.189  0.00  0.00    +0.000 A 
ATOM     16  C   UNL     1       9.971  13.258  20.217  0.00  0.00    +0.000 A 
ATOM     17  C   UNL     1      10.647  13.778  19.103  0.00  0.00    +0.000 A 
BRANCH  14  18
ATOM     18  C   UNL     1       8.846   9.870  18.947  0.00  0.00    +0.000 C 
ATOM     19  C   UNL     1       8.379   9.369  17.798  0.00  0.00    +0.000 C 
BRANCH  19  20
ATOM     20  C   UNL     1       7.707   8.009  17.710  0.00  0.00    +0.000 C 
ATOM     21  N   UNL     1       7.149   6.880  17.638  0.00  0.00    +0.000 NA
ENDBRANCH  19  20
ENDBRANCH  14  18
ENDBRANCH   1  17
BRANCH   7  22
ATOM     22  C   UNL     1       5.966  16.290  19.171  0.00  0.00    +0.000 A 
ATOM     23  C   UNL     1       5.750  15.667  17.936  0.00  0.00    +0.000 A 
ATOM     24  C   UNL     1       4.768  14.676  17.794  0.00  0.00    +0.000 A 
ATOM     25  C   UNL     1       4.002  14.289  18.897  0.00  0.00    +0.000 A 
ATOM     26  C   UNL     1       4.228  14.882  20.140  0.00  0.00    +0.000 A 
ATOM     27  C   UNL     1       5.198  15.875  20.267  0.00  0.00    +0.000 A 
BRANCH  25  28
ATOM     28  C   UNL     1       2.974  13.302  18.755  0.00  0.00    +0.000 C 
ATOM     29  N   UNL     1       2.141  12.499  18.647  0.00  0.00    +0.000 NA
ENDBRANCH  25  28
ENDBRANCH   7  22
TORSDOF 5
ENDMDL
MODEL 7
REMARK VINA RESULT:      -6.7      4.284      9.873
REMARK  Name = 
REMARK  6 active torsions:
REMARK  status: ('A' for Active; 'I' for Inactive)
REMARK    1  A    between atoms: C_1  and  C_2
REMARK    2  A    between atoms: C_4  and  C_5
REMARK    3  A    between atoms: C_6  and  C_7
REMARK    4  A    between atoms: C_11  and  N_12
REMARK    5  A    between atoms: N_18  and  C_19
REMARK    6  A    between atoms: C_22  and  C_23
REMARK                            x       y       z     vdW  Elec       q    Type
REMARK                         _______ _______ _______ _____ _____    ______ ____
ROOT
ATOM      1  N   UNL     1      11.008  14.391  18.356  0.00  0.00    +0.000 N 
ATOM      2  C   UNL     1      10.379  15.640  18.094  0.00  0.00    +0.000 A 
ATOM      3  C   UNL     1      11.102  16.638  17.472  0.00  0.00    +0.000 A 
ATOM      4  C   UNL     1      10.482  17.860  17.354  0.00  0.00    +0.000 A 
ATOM      5  N   UNL     1       9.257  18.126  17.837  0.00  0.00    +0.000 NA
ATOM      6  C   UNL     1       8.613  17.106  18.416  0.00  0.00    +0.000 A 
ATOM      7  N   UNL     1       7.346  17.376  18.934  0.00  0.00    +0.000 N 
ATOM      8  N   UNL     1       9.137  15.875  18.547  0.00  0.00    +0.000 NA
ATOM      9  H   UNL     1      11.761  14.238  17.692  0.00  0.00    +0.000 HD
ATOM     10  H   UNL     1       7.147  18.365  18.907  0.00  0.00    +0.000 HD
ENDROOT
BRANCH   1  17
ATOM     11  C   UNL     1      12.160  12.260  20.028  0.00  0.00    +0.000 C 
ATOM     12  C   UNL     1      10.895  12.092  19.232  0.00  0.00    +0.000 A 
ATOM     13  C   UNL     1      10.280  10.824  19.222  0.00  0.00    +0.000 A 
ATOM     14  C   UNL     1       9.097  10.590  18.513  0.00  0.00    +0.000 A 
ATOM     15  C   UNL     1       8.547  11.639  17.773  0.00  0.00    +0.000 A 
ATOM     16  C   UNL     1       9.155  12.896  17.763  0.00  0.00    +0.000 A 
ATOM     17  C   UNL     1      10.321  13.151  18.502  0.00  0.00    +0.000 A 
BRANCH  14  18
ATOM     18  C   UNL     1       8.510   9.244  18.540  0.00  0.00    +0.000 C 
ATOM     19  C   UNL     1       7.897   8.706  17.479  0.00  0.00    +0.000 C 
BRANCH  19  20
ATOM     20  C   UNL     1       7.250   7.331  17.517  0.00  0.00    +0.000 C 
ATOM     21  N   UNL     1       6.714   6.191  17.549  0.00  0.00    +0.000 NA
ENDBRANCH  19  20
ENDBRANCH  14  18
ENDBRANCH   1  17
BRANCH   7  22
ATOM     22  C   UNL     1       6.244  16.517  19.028  0.00  0.00    +0.000 A 
ATOM     23  C   UNL     1       5.489  16.484  20.206  0.00  0.00    +0.000 A 
ATOM     24  C   UNL     1       4.441  15.565  20.361  0.00  0.00    +0.000 A 
ATOM     25  C   UNL     1       4.129  14.681  19.326  0.00  0.00    +0.000 A 
ATOM     26  C   UNL     1       4.855  14.724  18.135  0.00  0.00    +0.000 A 
ATOM     27  C   UNL     1       5.904  15.631  17.996  0.00  0.00    +0.000 A 
BRANCH  25  28
ATOM     28  C   UNL     1       3.082  13.717  19.487  0.00  0.00    +0.000 C 
ATOM     29  N   UNL     1       2.235  12.930  19.612  0.00  0.00    +0.000 NA
ENDBRANCH  25  28
ENDBRANCH   7  22
TORSDOF 5
ENDMDL
MODEL 8
REMARK VINA RESULT:      -6.7      4.515      9.837
REMARK  Name = 
REMARK  6 active torsions:
REMARK  status: ('A' for Active; 'I' for Inactive)
REMARK    1  A    between atoms: C_1  and  C_2
REMARK    2  A    between atoms: C_4  and  C_5
REMARK    3  A    between atoms: C_6  and  C_7
REMARK    4  A    between atoms: C_11  and  N_12
REMARK    5  A    between atoms: N_18  and  C_19
REMARK    6  A    between atoms: C_22  and  C_23
REMARK                            x       y       z     vdW  Elec       q    Type
REMARK                         _______ _______ _______ _____ _____    ______ ____
ROOT
ATOM      1  N   UNL     1      11.808  13.518  19.899  0.00  0.00    +0.000 N 
ATOM      2  C   UNL     1      11.384  14.876  19.911  0.00  0.00    +0.000 A 
ATOM      3  C   UNL     1      12.333  15.876  19.849  0.00  0.00    +0.000 A 
ATOM      4  C   UNL     1      11.875  17.165  19.985  0.00  0.00    +0.000 A 
ATOM      5  N   UNL     1      10.588  17.480  20.209  0.00  0.00    +0.000 NA
ATOM      6  C   UNL     1       9.724  16.459  20.245  0.00  0.00    +0.000 A 
ATOM      7  N   UNL     1       8.388  16.775  20.490  0.00  0.00    +0.000 N 
ATOM      8  N   UNL     1      10.087  15.174  20.092  0.00  0.00    +0.000 NA
ATOM      9  H   UNL     1      12.705  13.441  19.430  0.00  0.00    +0.000 HD
ATOM     10  H   UNL     1       8.286  17.748  20.739  0.00  0.00    +0.000 HD
ENDROOT
BRANCH   1  17
ATOM     11  C   UNL     1      11.572  12.938  17.022  0.00  0.00    +0.000 C 
ATOM     12  C   UNL     1      10.821  12.179  18.082  0.00  0.00    +0.000 A 
ATOM     13  C   UNL     1       9.897  11.199  17.668  0.00  0.00    +0.000 A 
ATOM     14  C   UNL     1       9.167  10.445  18.593  0.00  0.00    +0.000 A 
ATOM     15  C   UNL     1       9.343  10.708  19.952  0.00  0.00    +0.000 A 
ATOM     16  C   UNL     1      10.245  11.688  20.375  0.00  0.00    +0.000 A 
ATOM     17  C   UNL     1      11.010  12.422  19.456  0.00  0.00    +0.000 A 
BRANCH  14  18
ATOM     18  C   UNL     1       8.216   9.443  18.095  0.00  0.00    +0.000 C 
ATOM     19  C   UNL     1       8.417   8.128  18.239  0.00  0.00    +0.000 C 
BRANCH  19  20
ATOM     20  C   UNL     1       7.457   7.087  17.687  0.00  0.00    +0.000 C 
ATOM     21  N   UNL     1       6.660   6.223  17.229  0.00  0.00    +0.000 NA
ENDBRANCH  19  20
ENDBRANCH  14  18
ENDBRANCH   1  17
BRANCH   7  22
ATOM     22  C   UNL     1       7.240  16.123  20.022  0.00  0.00    +0.000 A 
ATOM     23  C   UNL     1       7.061  15.940  18.646  0.00  0.00    +0.000 A 
ATOM     24  C   UNL     1       5.877  15.377  18.146  0.00  0.00    +0.000 A 
ATOM     25  C   UNL     1       4.868  14.977  19.025  0.00  0.00    +0.000 A 
ATOM     26  C   UNL     1       5.047  15.128  20.401  0.00  0.00    +0.000 A 
ATOM     27  C   UNL     1       6.222  15.701  20.887  0.00  0.00    +0.000 A 
BRANCH  25  28
ATOM     28  C   UNL     1       3.642  14.432  18.522  0.00  0.00    +0.000 C 
ATOM     29  N   UNL     1       2.651  13.983  18.116  0.00  0.00    +0.000 NA
ENDBRANCH  25  28
ENDBRANCH   7  22
TORSDOF 5
ENDMDL
MODEL 9
REMARK VINA RESULT:      -6.7      7.863      9.964
REMARK  Name = 
REMARK  6 active torsions:
REMARK  status: ('A' for Active; 'I' for Inactive)
REMARK    1  A    between atoms: C_1  and  C_2
REMARK    2  A    between atoms: C_4  and  C_5
REMARK    3  A    between atoms: C_6  and  C_7
REMARK    4  A    between atoms: C_11  and  N_12
REMARK    5  A    between atoms: N_18  and  C_19
REMARK    6  A    between atoms: C_22  and  C_23
REMARK                            x       y       z     vdW  Elec       q    Type
REMARK                         _______ _______ _______ _____ _____    ______ ____
ROOT
ATOM      1  N   UNL     1      10.071  12.209  21.532  0.00  0.00    +0.000 N 
ATOM      2  C   UNL     1      10.076  12.361  20.118  0.00  0.00    +0.000 A 
ATOM      3  C   UNL     1      10.906  11.561  19.359  0.00  0.00    +0.000 A 
ATOM      4  C   UNL     1      10.958  11.834  18.013  0.00  0.00    +0.000 A 
ATOM      5  N   UNL     1      10.286  12.841  17.429  0.00  0.00    +0.000 NA
ATOM      6  C   UNL     1       9.493  13.566  18.226  0.00  0.00    +0.000 A 
ATOM      7  N   UNL     1       8.802  14.623  17.632  0.00  0.00    +0.000 N 
ATOM      8  N   UNL     1       9.365  13.346  19.546  0.00  0.00    +0.000 NA
ATOM      9  H   UNL     1      10.355  11.265  21.779  0.00  0.00    +0.000 HD
ATOM     10  H   UNL     1       9.110  14.768  16.682  0.00  0.00    +0.000 HD
ENDROOT
BRANCH   1  17
ATOM     11  C   UNL     1       9.836  14.945  22.593  0.00  0.00    +0.000 C 
ATOM     12  C   UNL     1       8.894  13.831  22.963  0.00  0.00    +0.000 A 
ATOM     13  C   UNL     1       7.903  14.094  23.930  0.00  0.00    +0.000 A 
ATOM     14  C   UNL     1       6.984  13.114  24.320  0.00  0.00    +0.000 A 
ATOM     15  C   UNL     1       7.089  11.841  23.757  0.00  0.00    +0.000 A 
ATOM     16  C   UNL     1       8.077  11.565  22.809  0.00  0.00    +0.000 A 
ATOM     17  C   UNL     1       8.979  12.551  22.382  0.00  0.00    +0.000 A 
BRANCH  14  18
ATOM     18  C   UNL     1       5.978  13.452  25.336  0.00  0.00    +0.000 C 
ATOM     19  C   UNL     1       5.670  12.627  26.344  0.00  0.00    +0.000 C 
BRANCH  19  20
ATOM     20  C   UNL     1       4.599  12.954  27.372  0.00  0.00    +0.000 C 
ATOM     21  N   UNL     1       3.711  13.225  28.225  0.00  0.00    +0.000 NA
ENDBRANCH  19  20
ENDBRANCH  14  18
ENDBRANCH   1  17
BRANCH   7  22
ATOM     22  C   UNL     1       7.544  15.138  17.969  0.00  0.00    +0.000 A 
ATOM     23  C   UNL     1       6.390  14.412  17.650  0.00  0.00    +0.000 A 
ATOM     24  C   UNL     1       5.117  14.949  17.889  0.00  0.00    +0.000 A 
ATOM     25  C   UNL     1       4.990  16.214  18.467  0.00  0.00    +0.000 A 
ATOM     26  C   UNL     1       6.132  16.935  18.816  0.00  0.00    +0.000 A 
ATOM     27  C   UNL     1       7.394  16.399  18.562  0.00  0.00    +0.000 A 
BRANCH  25  28
ATOM     28  C   UNL     1       3.694  16.785  18.685  0.00  0.00    +0.000 C 
ATOM     29  N   UNL     1       2.640  17.245  18.855  0.00  0.00    +0.000 NA
ENDBRANCH  25  28
ENDBRANCH   7  22
TORSDOF 5
ENDMDL
