MODEL 1
REMARK VINA RESULT:      -7.1      0.000      0.000
REMARK  Name = 
REMARK  10 active torsions:
REMARK  status: ('A' for Active; 'I' for Inactive)
REMARK    1  A    between atoms: C_1  and  C_2
REMARK    2  A    between atoms: C_4  and  C_5
REMARK    3  A    between atoms: C_6  and  C_7
REMARK    4  A    between atoms: C_10  and  C_11
REMARK    5  A    between atoms: C_12  and  O_13
REMARK    6  A    between atoms: O_13  and  C_14
REMARK    7  A    between atoms: C_16  and  N_17
REMARK    8  A    between atoms: N_17  and  C_18
REMARK    9  A    between atoms: N_23  and  C_24
REMARK   10  A    between atoms: C_27  and  C_28
REMARK                            x       y       z     vdW  Elec       q    Type
REMARK                         _______ _______ _______ _____ _____    ______ ____
ROOT
ATOM      1  C   UNL     1       2.445   7.505  18.212  0.00  0.00    +0.000 A 
ATOM      2  C   UNL     1       2.433   7.331  19.574  0.00  0.00    +0.000 A 
ATOM      3  C   UNL     1       1.657   8.217  20.271  0.00  0.00    +0.000 A 
ATOM      4  N   UNL     1       0.997   9.207  19.657  0.00  0.00    +0.000 NA
ATOM      5  C   UNL     1       1.135   9.351  18.329  0.00  0.00    +0.000 A 
ATOM      6  N   UNL     1       0.392  10.326  17.666  0.00  0.00    +0.000 N 
ATOM      7  N   UNL     1       1.895   8.553  17.574  0.00  0.00    +0.000 NA
ATOM      8  H   UNL     1       0.629  10.340  16.683  0.00  0.00    +0.000 HD
ENDROOT
BRANCH   6   9
ATOM      9  C   UNL     1      -0.871  10.840  18.001  0.00  0.00    +0.000 A 
ATOM     10  C   UNL     1      -0.952  11.905  18.906  0.00  0.00    +0.000 A 
ATOM     11  C   UNL     1      -2.192  12.370  19.360  0.00  0.00    +0.000 A 
ATOM     12  C   UNL     1      -3.377  11.791  18.896  0.00  0.00    +0.000 A 
ATOM     13  C   UNL     1      -3.312  10.760  17.958  0.00  0.00    +0.000 A 
ATOM     14  C   UNL     1      -2.069  10.289  17.520  0.00  0.00    +0.000 A 
BRANCH  12  15
ATOM     15  C   UNL     1      -4.646  12.236  19.395  0.00  0.00    +0.000 C 
ATOM     16  N   UNL     1      -5.677  12.599  19.782  0.00  0.00    +0.000 NA
ENDBRANCH  12  15
ENDBRANCH   6   9
BRANCH   3  17
ATOM     17  N   UNL     1       1.474   8.153  21.656  0.00  0.00    +0.000 N 
ATOM     18  H   UNL     1       2.161   7.483  22.002  0.00  0.00    +0.000 HD
BRANCH  17  19
ATOM     19  C   UNL     1       1.219   9.337  22.468  0.00  0.00    +0.000 C 
ATOM     20  C   UNL     1       0.031  10.225  22.229  0.00  0.00    +0.000 C 
ATOM     21  C   UNL     1       0.049   9.307  23.414  0.00  0.00    +0.000 C 
ENDBRANCH  17  19
ENDBRANCH   3  17
BRANCH   1  22
ATOM     22  O   UNL     1       3.010   6.465  17.491  0.00  0.00    +0.000 OA
BRANCH  22  30
ATOM     23  C   UNL     1       5.991   6.208  18.351  0.00  0.00    +0.000 C 
ATOM     24  C   UNL     1       4.885   5.204  18.546  0.00  0.00    +0.000 A 
ATOM     25  C   UNL     1       5.278   3.973  19.116  0.00  0.00    +0.000 A 
ATOM     26  C   UNL     1       4.394   2.904  19.256  0.00  0.00    +0.000 A 
ATOM     27  C   UNL     1       3.087   3.055  18.787  0.00  0.00    +0.000 A 
ATOM     28  C   UNL     1       2.644   4.275  18.240  0.00  0.00    +0.000 A 
ATOM     29  C   UNL     1       1.236   4.364  17.719  0.00  0.00    +0.000 C 
ATOM     30  C   UNL     1       3.544   5.364  18.141  0.00  0.00    +0.000 A 
BRANCH  26  31
ATOM     31  C   UNL     1       4.895   1.658  19.861  0.00  0.00    +0.000 C 
ATOM     32  C   UNL     1       5.140   1.557  21.171  0.00  0.00    +0.000 C 
BRANCH  32  33
ATOM     33  C   UNL     1       5.741   0.329  21.833  0.00  0.00    +0.000 C 
ATOM     34  N   UNL     1       6.240  -0.691  22.381  0.00  0.00    +0.000 NA
ENDBRANCH  32  33
ENDBRANCH  26  31
ENDBRANCH  22  30
ENDBRANCH   1  22
TORSDOF 8
ENDMDL
MODEL 2
REMARK VINA RESULT:      -7.1      2.902      9.901
REMARK  Name = 
REMARK  10 active torsions:
REMARK  status: ('A' for Active; 'I' for Inactive)
REMARK    1  A    between atoms: C_1  and  C_2
REMARK    2  A    between atoms: C_4  and  C_5
REMARK    3  A    between atoms: C_6  and  C_7
REMARK    4  A    between atoms: C_10  and  C_11
REMARK    5  A    between atoms: C_12  and  O_13
REMARK    6  A    between atoms: O_13  and  C_14
REMARK    7  A    between atoms: C_16  and  N_17
REMARK    8  A    between atoms: N_17  and  C_18
REMARK    9  A    between atoms: N_23  and  C_24
REMARK   10  A    between atoms: C_27  and  C_28
REMARK                            x       y       z     vdW  Elec       q    Type
REMARK                         _______ _______ _______ _____ _____    ______ ____
ROOT
ATOM      1  C   UNL     1       0.531  11.678  19.443  0.00  0.00    +0.000 A 
ATOM      2  C   UNL     1      -0.625  11.448  18.740  0.00  0.00    +0.000 A 
ATOM      3  C   UNL     1      -0.585  10.385  17.878  0.00  0.00    +0.000 A 
ATOM      4  N   UNL     1       0.527   9.658  17.712  0.00  0.00    +0.000 NA
ATOM      5  C   UNL     1       1.637  10.009  18.381  0.00  0.00    +0.000 A 
ATOM      6  N   UNL     1       2.777   9.215  18.278  0.00  0.00    +0.000 N 
ATOM      7  N   UNL     1       1.698  11.048  19.217  0.00  0.00    +0.000 NA
ATOM      8  H   UNL     1       3.539   9.623  18.804  0.00  0.00    +0.000 HD
ENDROOT
BRANCH   6   9
ATOM      9  C   UNL     1       2.861   7.832  18.052  0.00  0.00    +0.000 A 
ATOM     10  C   UNL     1       1.873   6.996  18.585  0.00  0.00    +0.000 A 
ATOM     11  C   UNL     1       1.978   5.603  18.487  0.00  0.00    +0.000 A 
ATOM     12  C   UNL     1       3.066   5.022  17.830  0.00  0.00    +0.000 A 
ATOM     13  C   UNL     1       4.035   5.845  17.252  0.00  0.00    +0.000 A 
ATOM     14  C   UNL     1       3.932   7.235  17.367  0.00  0.00    +0.000 A 
BRANCH  12  15
ATOM     15  C   UNL     1       3.199   3.595  17.769  0.00  0.00    +0.000 C 
ATOM     16  N   UNL     1       3.293   2.440  17.709  0.00  0.00    +0.000 NA
ENDBRANCH  12  15
ENDBRANCH   6   9
BRANCH   3  17
ATOM     17  N   UNL     1      -1.687   9.962  17.128  0.00  0.00    +0.000 N 
ATOM     18  H   UNL     1      -2.175   9.276  17.703  0.00  0.00    +0.000 HD
BRANCH  17  19
ATOM     19  C   UNL     1      -2.499  10.884  16.342  0.00  0.00    +0.000 C 
ATOM     20  C   UNL     1      -3.250  10.441  15.120  0.00  0.00    +0.000 C 
ATOM     21  C   UNL     1      -3.995  10.725  16.390  0.00  0.00    +0.000 C 
ENDBRANCH  17  19
ENDBRANCH   3  17
BRANCH   1  22
ATOM     22  O   UNL     1       0.412  12.576  20.492  0.00  0.00    +0.000 OA
BRANCH  22  30
ATOM     23  C   UNL     1      -0.182  10.286  22.515  0.00  0.00    +0.000 C 
ATOM     24  C   UNL     1      -1.000  11.524  22.257  0.00  0.00    +0.000 A 
ATOM     25  C   UNL     1      -2.217  11.604  22.968  0.00  0.00    +0.000 A 
ATOM     26  C   UNL     1      -3.135  12.632  22.755  0.00  0.00    +0.000 A 
ATOM     27  C   UNL     1      -2.846  13.593  21.784  0.00  0.00    +0.000 A 
ATOM     28  C   UNL     1      -1.629  13.569  21.074  0.00  0.00    +0.000 A 
ATOM     29  C   UNL     1      -1.391  14.610  20.015  0.00  0.00    +0.000 C 
ATOM     30  C   UNL     1      -0.690  12.540  21.330  0.00  0.00    +0.000 A 
BRANCH  26  31
ATOM     31  C   UNL     1      -4.380  12.631  23.543  0.00  0.00    +0.000 C 
ATOM     32  C   UNL     1      -5.496  13.218  23.101  0.00  0.00    +0.000 C 
BRANCH  32  33
ATOM     33  C   UNL     1      -6.778  13.326  23.909  0.00  0.00    +0.000 C 
ATOM     34  N   UNL     1      -7.842  13.415  24.580  0.00  0.00    +0.000 NA
ENDBRANCH  32  33
ENDBRANCH  26  31
ENDBRANCH  22  30
ENDBRANCH   1  22
TORSDOF 8
ENDMDL
MODEL 3
REMARK VINA RESULT:      -7.0      0.435      1.812
REMARK  Name = 
REMARK  10 active torsions:
REMARK  status: ('A' for Active; 'I' for Inactive)
REMARK    1  A    between atoms: C_1  and  C_2
REMARK    2  A    between atoms: C_4  and  C_5
REMARK    3  A    between atoms: C_6  and  C_7
REMARK    4  A    between atoms: C_10  and  C_11
REMARK    5  A    between atoms: C_12  and  O_13
REMARK    6  A    between atoms: O_13  and  C_14
REMARK    7  A    between atoms: C_16  and  N_17
REMARK    8  A    between atoms: N_17  and  C_18
REMARK    9  A    between atoms: N_23  and  C_24
REMARK   10  A    between atoms: C_27  and  C_28
REMARK                            x       y       z     vdW  Elec       q    Type
REMARK                         _______ _______ _______ _____ _____    ______ ____
ROOT
ATOM      1  C   UNL     1       2.659   7.611  18.124  0.00  0.00    +0.000 A 
ATOM      2  C   UNL     1       2.629   7.386  19.479  0.00  0.00    +0.000 A 
ATOM      3  C   UNL     1       1.736   8.151  20.179  0.00  0.00    +0.000 A 
ATOM      4  N   UNL     1       0.984   9.081  19.578  0.00  0.00    +0.000 NA
ATOM      5  C   UNL     1       1.142   9.290  18.261  0.00  0.00    +0.000 A 
ATOM      6  N   UNL     1       0.311  10.197  17.607  0.00  0.00    +0.000 N 
ATOM      7  N   UNL     1       2.010   8.613  17.504  0.00  0.00    +0.000 NA
ATOM      8  H   UNL     1       0.572  10.275  16.633  0.00  0.00    +0.000 HD
ENDROOT
BRANCH   6   9
ATOM      9  C   UNL     1      -1.012  10.550  17.917  0.00  0.00    +0.000 A 
ATOM     10  C   UNL     1      -2.061   9.901  17.255  0.00  0.00    +0.000 A 
ATOM     11  C   UNL     1      -3.389  10.301  17.445  0.00  0.00    +0.000 A 
ATOM     12  C   UNL     1      -3.694  11.347  18.321  0.00  0.00    +0.000 A 
ATOM     13  C   UNL     1      -2.662  11.972  19.023  0.00  0.00    +0.000 A 
ATOM     14  C   UNL     1      -1.335  11.578  18.818  0.00  0.00    +0.000 A 
BRANCH  12  15
ATOM     15  C   UNL     1      -5.049  11.789  18.480  0.00  0.00    +0.000 C 
ATOM     16  N   UNL     1      -6.139  12.162  18.615  0.00  0.00    +0.000 NA
ENDBRANCH  12  15
ENDBRANCH   6   9
BRANCH   3  17
ATOM     17  N   UNL     1       1.522   8.016  21.555  0.00  0.00    +0.000 N 
ATOM     18  H   UNL     1       2.165   7.291  21.871  0.00  0.00    +0.000 HD
BRANCH  17  19
ATOM     19  C   UNL     1       1.313   9.162  22.431  0.00  0.00    +0.000 C 
ATOM     20  C   UNL     1       0.287  10.217  22.132  0.00  0.00    +0.000 C 
ATOM     21  C   UNL     1       0.035   9.221  23.225  0.00  0.00    +0.000 C 
ENDBRANCH  17  19
ENDBRANCH   3  17
BRANCH   1  22
ATOM     22  O   UNL     1       3.361   6.670  17.388  0.00  0.00    +0.000 OA
BRANCH  22  30
ATOM     23  C   UNL     1       1.199   4.473  17.822  0.00  0.00    +0.000 C 
ATOM     24  C   UNL     1       2.672   4.391  18.126  0.00  0.00    +0.000 A 
ATOM     25  C   UNL     1       3.094   3.199  18.756  0.00  0.00    +0.000 A 
ATOM     26  C   UNL     1       4.403   3.019  19.202  0.00  0.00    +0.000 A 
ATOM     27  C   UNL     1       5.311   4.067  19.043  0.00  0.00    +0.000 A 
ATOM     28  C   UNL     1       4.941   5.261  18.392  0.00  0.00    +0.000 A 
ATOM     29  C   UNL     1       5.954   6.368  18.284  0.00  0.00    +0.000 C 
ATOM     30  C   UNL     1       3.618   5.414  17.910  0.00  0.00    +0.000 A 
BRANCH  26  31
ATOM     31  C   UNL     1       4.750   1.742  19.849  0.00  0.00    +0.000 C 
ATOM     32  C   UNL     1       5.242   1.690  21.091  0.00  0.00    +0.000 C 
BRANCH  32  33
ATOM     33  C   UNL     1       5.701   0.411  21.771  0.00  0.00    +0.000 C 
ATOM     34  N   UNL     1       6.082  -0.649  22.337  0.00  0.00    +0.000 NA
ENDBRANCH  32  33
ENDBRANCH  26  31
ENDBRANCH  22  30
ENDBRANCH   1  22
TORSDOF 8
ENDMDL
MODEL 4
REMARK VINA RESULT:      -7.0      3.858      6.301
REMARK  Name = 
REMARK  10 active torsions:
REMARK  status: ('A' for Active; 'I' for Inactive)
REMARK    1  A    between atoms: C_1  and  C_2
REMARK    2  A    between atoms: C_4  and  C_5
REMARK    3  A    between atoms: C_6  and  C_7
REMARK    4  A    between atoms: C_10  and  C_11
REMARK    5  A    between atoms: C_12  and  O_13
REMARK    6  A    between atoms: O_13  and  C_14
REMARK    7  A    between atoms: C_16  and  N_17
REMARK    8  A    between atoms: N_17  and  C_18
REMARK    9  A    between atoms: N_23  and  C_24
REMARK   10  A    between atoms: C_27  and  C_28
REMARK                            x       y       z     vdW  Elec       q    Type
REMARK                         _______ _______ _______ _____ _____    ______ ____
ROOT
ATOM      1  C   UNL     1      -0.189  11.382  20.586  0.00  0.00    +0.000 A 
ATOM      2  C   UNL     1      -1.057  11.499  19.528  0.00  0.00    +0.000 A 
ATOM      3  C   UNL     1      -2.248  12.112  19.813  0.00  0.00    +0.000 A 
ATOM      4  N   UNL     1      -2.547  12.523  21.051  0.00  0.00    +0.000 NA
ATOM      5  C   UNL     1      -1.671  12.291  22.041  0.00  0.00    +0.000 A 
ATOM      6  N   UNL     1      -1.934  12.783  23.318  0.00  0.00    +0.000 N 
ATOM      7  N   UNL     1      -0.500  11.672  21.862  0.00  0.00    +0.000 NA
ATOM      8  H   UNL     1      -1.207  12.499  23.961  0.00  0.00    +0.000 HD
ENDROOT
BRANCH   6   9
ATOM      9  C   UNL     1      -2.659  13.930  23.679  0.00  0.00    +0.000 A 
ATOM     10  C   UNL     1      -1.962  15.062  24.120  0.00  0.00    +0.000 A 
ATOM     11  C   UNL     1      -2.646  16.185  24.602  0.00  0.00    +0.000 A 
ATOM     12  C   UNL     1      -4.043  16.203  24.630  0.00  0.00    +0.000 A 
ATOM     13  C   UNL     1      -4.751  15.100  24.149  0.00  0.00    +0.000 A 
ATOM     14  C   UNL     1      -4.062  13.975  23.682  0.00  0.00    +0.000 A 
BRANCH  12  15
ATOM     15  C   UNL     1      -4.744  17.333  25.166  0.00  0.00    +0.000 C 
ATOM     16  N   UNL     1      -5.314  18.253  25.584  0.00  0.00    +0.000 NA
ENDBRANCH  12  15
ENDBRANCH   6   9
BRANCH   3  17
ATOM     17  N   UNL     1      -3.225  12.375  18.848  0.00  0.00    +0.000 N 
ATOM     18  H   UNL     1      -2.927  13.222  18.365  0.00  0.00    +0.000 HD
BRANCH  17  19
ATOM     19  C   UNL     1      -3.837  11.322  18.046  0.00  0.00    +0.000 C 
ATOM     20  C   UNL     1      -4.780  11.626  16.918  0.00  0.00    +0.000 C 
ATOM     21  C   UNL     1      -3.385  11.168  16.619  0.00  0.00    +0.000 C 
ENDBRANCH  17  19
ENDBRANCH   3  17
BRANCH   1  22
ATOM     22  O   UNL     1       1.101  11.005  20.249  0.00  0.00    +0.000 OA
BRANCH  22  30
ATOM     23  C   UNL     1       0.898   8.460  22.030  0.00  0.00    +0.000 C 
ATOM     24  C   UNL     1       1.291   8.541  20.578  0.00  0.00    +0.000 A 
ATOM     25  C   UNL     1       1.689   7.320  19.990  0.00  0.00    +0.000 A 
ATOM     26  C   UNL     1       2.187   7.250  18.690  0.00  0.00    +0.000 A 
ATOM     27  C   UNL     1       2.322   8.435  17.963  0.00  0.00    +0.000 A 
ATOM     28  C   UNL     1       1.908   9.670  18.499  0.00  0.00    +0.000 A 
ATOM     29  C   UNL     1       2.112  10.917  17.682  0.00  0.00    +0.000 C 
ATOM     30  C   UNL     1       1.368   9.719  19.808  0.00  0.00    +0.000 A 
BRANCH  26  31
ATOM     31  C   UNL     1       2.578   5.931  18.161  0.00  0.00    +0.000 C 
ATOM     32  C   UNL     1       1.873   4.828  18.424  0.00  0.00    +0.000 C 
BRANCH  32  33
ATOM     33  C   UNL     1       2.279   3.432  17.981  0.00  0.00    +0.000 C 
ATOM     34  N   UNL     1       2.617   2.274  17.615  0.00  0.00    +0.000 NA
ENDBRANCH  32  33
ENDBRANCH  26  31
ENDBRANCH  22  30
ENDBRANCH   1  22
TORSDOF 8
ENDMDL
MODEL 5
REMARK VINA RESULT:      -7.0      2.978     10.057
REMARK  Name = 
REMARK  10 active torsions:
REMARK  status: ('A' for Active; 'I' for Inactive)
REMARK    1  A    between atoms: C_1  and  C_2
REMARK    2  A    between atoms: C_4  and  C_5
REMARK    3  A    between atoms: C_6  and  C_7
REMARK    4  A    between atoms: C_10  and  C_11
REMARK    5  A    between atoms: C_12  and  O_13
REMARK    6  A    between atoms: O_13  and  C_14
REMARK    7  A    between atoms: C_16  and  N_17
REMARK    8  A    between atoms: N_17  and  C_18
REMARK    9  A    between atoms: N_23  and  C_24
REMARK   10  A    between atoms: C_27  and  C_28
REMARK                            x       y       z     vdW  Elec       q    Type
REMARK                         _______ _______ _______ _____ _____    ______ ____
ROOT
ATOM      1  C   UNL     1       0.251  11.634  19.513  0.00  0.00    +0.000 A 
ATOM      2  C   UNL     1      -0.919  11.337  18.858  0.00  0.00    +0.000 A 
ATOM      3  C   UNL     1      -0.956  10.110  18.253  0.00  0.00    +0.000 A 
ATOM      4  N   UNL     1       0.100   9.287  18.269  0.00  0.00    +0.000 NA
ATOM      5  C   UNL     1       1.232   9.697  18.862  0.00  0.00    +0.000 A 
ATOM      6  N   UNL     1       2.312   8.821  18.956  0.00  0.00    +0.000 N 
ATOM      7  N   UNL     1       1.369  10.889  19.450  0.00  0.00    +0.000 NA
ATOM      8  H   UNL     1       3.101   9.280  19.391  0.00  0.00    +0.000 HD
ENDROOT
BRANCH   6   9
ATOM      9  C   UNL     1       2.294   7.419  19.040  0.00  0.00    +0.000 A 
ATOM     10  C   UNL     1       2.547   6.667  17.887  0.00  0.00    +0.000 A 
ATOM     11  C   UNL     1       2.423   5.272  17.897  0.00  0.00    +0.000 A 
ATOM     12  C   UNL     1       2.065   4.603  19.071  0.00  0.00    +0.000 A 
ATOM     13  C   UNL     1       1.856   5.337  20.239  0.00  0.00    +0.000 A 
ATOM     14  C   UNL     1       1.966   6.732  20.220  0.00  0.00    +0.000 A 
BRANCH  12  15
ATOM     15  C   UNL     1       1.892   3.179  19.070  0.00  0.00    +0.000 C 
ATOM     16  N   UNL     1       1.762   2.026  19.056  0.00  0.00    +0.000 NA
ENDBRANCH  12  15
ENDBRANCH   6   9
BRANCH   3  17
ATOM     17  N   UNL     1      -2.086   9.612  17.596  0.00  0.00    +0.000 N 
ATOM     18  H   UNL     1      -2.472   8.891  18.204  0.00  0.00    +0.000 HD
BRANCH  17  19
ATOM     19  C   UNL     1      -3.026  10.476  16.892  0.00  0.00    +0.000 C 
ATOM     20  C   UNL     1      -2.706  11.080  15.555  0.00  0.00    +0.000 C 
ATOM     21  C   UNL     1      -3.679   9.942  15.645  0.00  0.00    +0.000 C 
ENDBRANCH  17  19
ENDBRANCH   3  17
BRANCH   1  22
ATOM     22  O   UNL     1       0.198  12.748  20.336  0.00  0.00    +0.000 OA
BRANCH  22  30
ATOM     23  C   UNL     1      -0.912  10.890  22.574  0.00  0.00    +0.000 C 
ATOM     24  C   UNL     1      -1.474  12.207  22.103  0.00  0.00    +0.000 A 
ATOM     25  C   UNL     1      -2.694  12.593  22.703  0.00  0.00    +0.000 A 
ATOM     26  C   UNL     1      -3.395  13.726  22.295  0.00  0.00    +0.000 A 
ATOM     27  C   UNL     1      -2.883  14.482  21.238  0.00  0.00    +0.000 A 
ATOM     28  C   UNL     1      -1.655  14.151  20.633  0.00  0.00    +0.000 A 
ATOM     29  C   UNL     1      -1.174  14.982  19.474  0.00  0.00    +0.000 C 
ATOM     30  C   UNL     1      -0.935  13.018  21.085  0.00  0.00    +0.000 A 
BRANCH  26  31
ATOM     31  C   UNL     1      -4.660  14.049  22.979  0.00  0.00    +0.000 C 
ATOM     32  C   UNL     1      -5.438  13.101  23.508  0.00  0.00    +0.000 C 
BRANCH  32  33
ATOM     33  C   UNL     1      -6.792  13.369  24.143  0.00  0.00    +0.000 C 
ATOM     34  N   UNL     1      -7.916  13.592  24.671  0.00  0.00    +0.000 NA
ENDBRANCH  32  33
ENDBRANCH  26  31
ENDBRANCH  22  30
ENDBRANCH   1  22
TORSDOF 8
ENDMDL
MODEL 6
REMARK VINA RESULT:      -6.8      3.308      6.172
REMARK  Name = 
REMARK  10 active torsions:
REMARK  status: ('A' for Active; 'I' for Inactive)
REMARK    1  A    between atoms: C_1  and  C_2
REMARK    2  A    between atoms: C_4  and  C_5
REMARK    3  A    between atoms: C_6  and  C_7
REMARK    4  A    between atoms: C_10  and  C_11
REMARK    5  A    between atoms: C_12  and  O_13
REMARK    6  A    between atoms: O_13  and  C_14
REMARK    7  A    between atoms: C_16  and  N_17
REMARK    8  A    between atoms: N_17  and  C_18
REMARK    9  A    between atoms: N_23  and  C_24
REMARK   10  A    between atoms: C_27  and  C_28
REMARK                            x       y       z     vdW  Elec       q    Type
REMARK                         _______ _______ _______ _____ _____    ______ ____
ROOT
ATOM      1  C   UNL     1       4.596   5.109  18.576  0.00  0.00    +0.000 A 
ATOM      2  C   UNL     1       3.684   4.226  18.053  0.00  0.00    +0.000 A 
ATOM      3  C   UNL     1       2.372   4.516  18.315  0.00  0.00    +0.000 A 
ATOM      4  N   UNL     1       2.021   5.565  19.069  0.00  0.00    +0.000 NA
ATOM      5  C   UNL     1       2.987   6.325  19.610  0.00  0.00    +0.000 A 
ATOM      6  N   UNL     1       2.636   7.466  20.330  0.00  0.00    +0.000 N 
ATOM      7  N   UNL     1       4.291   6.100  19.433  0.00  0.00    +0.000 NA
ATOM      8  H   UNL     1       3.462   7.912  20.705  0.00  0.00    +0.000 HD
ENDROOT
BRANCH   6   9
ATOM      9  C   UNL     1       1.513   8.292  20.165  0.00  0.00    +0.000 A 
ATOM     10  C   UNL     1       1.368   9.008  18.970  0.00  0.00    +0.000 A 
ATOM     11  C   UNL     1       0.329   9.933  18.808  0.00  0.00    +0.000 A 
ATOM     12  C   UNL     1      -0.598  10.141  19.833  0.00  0.00    +0.000 A 
ATOM     13  C   UNL     1      -0.492   9.400  21.012  0.00  0.00    +0.000 A 
ATOM     14  C   UNL     1       0.557   8.488  21.174  0.00  0.00    +0.000 A 
BRANCH  12  15
ATOM     15  C   UNL     1      -1.634  11.122  19.687  0.00  0.00    +0.000 C 
ATOM     16  N   UNL     1      -2.460  11.927  19.562  0.00  0.00    +0.000 NA
ENDBRANCH  12  15
ENDBRANCH   6   9
BRANCH   3  17
ATOM     17  N   UNL     1       1.305   3.766  17.810  0.00  0.00    +0.000 N 
ATOM     18  H   UNL     1       1.370   3.829  16.794  0.00  0.00    +0.000 HD
BRANCH  17  19
ATOM     19  C   UNL     1       0.910   2.484  18.382  0.00  0.00    +0.000 C 
ATOM     20  C   UNL     1       1.738   1.786  19.421  0.00  0.00    +0.000 C 
ATOM     21  C   UNL     1       0.459   2.459  19.818  0.00  0.00    +0.000 C 
ENDBRANCH  17  19
ENDBRANCH   3  17
BRANCH   1  22
ATOM     22  O   UNL     1       5.890   4.970  18.100  0.00  0.00    +0.000 OA
BRANCH  22  30
ATOM     23  C   UNL     1       8.170   5.358  20.184  0.00  0.00    +0.000 C 
ATOM     24  C   UNL     1       7.808   6.260  19.033  0.00  0.00    +0.000 A 
ATOM     25  C   UNL     1       8.549   7.460  18.949  0.00  0.00    +0.000 A 
ATOM     26  C   UNL     1       8.257   8.447  18.009  0.00  0.00    +0.000 A 
ATOM     27  C   UNL     1       7.178   8.248  17.146  0.00  0.00    +0.000 A 
ATOM     28  C   UNL     1       6.433   7.053  17.174  0.00  0.00    +0.000 A 
ATOM     29  C   UNL     1       5.258   6.912  16.245  0.00  0.00    +0.000 C 
ATOM     30  C   UNL     1       6.766   6.043  18.109  0.00  0.00    +0.000 A 
BRANCH  26  31
ATOM     31  C   UNL     1       9.084   9.667  17.998  0.00  0.00    +0.000 C 
ATOM     32  C   UNL     1       9.393  10.321  19.122  0.00  0.00    +0.000 C 
BRANCH  32  33
ATOM     33  C   UNL     1      10.164  11.630  19.160  0.00  0.00    +0.000 C 
ATOM     34  N   UNL     1      10.802  12.717  19.191  0.00  0.00    +0.000 NA
ENDBRANCH  32  33
ENDBRANCH  26  31
ENDBRANCH  22  30
ENDBRANCH   1  22
TORSDOF 8
ENDMDL
MODEL 7
REMARK VINA RESULT:      -6.8      4.203     10.410
REMARK  Name = 
REMARK  10 active torsions:
REMARK  status: ('A' for Active; 'I' for Inactive)
REMARK    1  A    between atoms: C_1  and  C_2
REMARK    2  A    between atoms: C_4  and  C_5
REMARK    3  A    between atoms: C_6  and  C_7
REMARK    4  A    between atoms: C_10  and  C_11
REMARK    5  A    between atoms: C_12  and  O_13
REMARK    6  A    between atoms: O_13  and  C_14
REMARK    7  A    between atoms: C_16  and  N_17
REMARK    8  A    between atoms: N_17  and  C_18
REMARK    9  A    between atoms: N_23  and  C_24
REMARK   10  A    between atoms: C_27  and  C_28
REMARK                            x       y       z     vdW  Elec       q    Type
REMARK                         _______ _______ _______ _____ _____    ______ ____
ROOT
ATOM      1  C   UNL     1      -1.627  11.773  20.002  0.00  0.00    +0.000 A 
ATOM      2  C   UNL     1      -2.074  11.605  18.714  0.00  0.00    +0.000 A 
ATOM      3  C   UNL     1      -1.355  10.721  17.955  0.00  0.00    +0.000 A 
ATOM      4  N   UNL     1      -0.268  10.105  18.436  0.00  0.00    +0.000 NA
ATOM      5  C   UNL     1       0.144  10.396  19.681  0.00  0.00    +0.000 A 
ATOM      6  N   UNL     1       1.226   9.704  20.222  0.00  0.00    +0.000 N 
ATOM      7  N   UNL     1      -0.476  11.267  20.480  0.00  0.00    +0.000 NA
ATOM      8  H   UNL     1       1.441  10.055  21.146  0.00  0.00    +0.000 HD
ENDROOT
BRANCH   6   9
ATOM      9  C   UNL     1       1.649   8.393  19.950  0.00  0.00    +0.000 A 
ATOM     10  C   UNL     1       2.267   8.120  18.725  0.00  0.00    +0.000 A 
ATOM     11  C   UNL     1       2.597   6.808  18.361  0.00  0.00    +0.000 A 
ATOM     12  C   UNL     1       2.334   5.747  19.231  0.00  0.00    +0.000 A 
ATOM     13  C   UNL     1       1.760   6.010  20.476  0.00  0.00    +0.000 A 
ATOM     14  C   UNL     1       1.418   7.321  20.827  0.00  0.00    +0.000 A 
BRANCH  12  15
ATOM     15  C   UNL     1       2.628   4.399  18.841  0.00  0.00    +0.000 C 
ATOM     16  N   UNL     1       2.860   3.302  18.541  0.00  0.00    +0.000 NA
ENDBRANCH  12  15
ENDBRANCH   6   9
BRANCH   3  17
ATOM     17  N   UNL     1      -1.700  10.377  16.645  0.00  0.00    +0.000 N 
ATOM     18  H   UNL     1      -0.934   9.804  16.291  0.00  0.00    +0.000 HD
BRANCH  17  19
ATOM     19  C   UNL     1      -3.056   9.998  16.266  0.00  0.00    +0.000 C 
ATOM     20  C   UNL     1      -4.075  11.012  15.833  0.00  0.00    +0.000 C 
ATOM     21  C   UNL     1      -3.442  10.111  14.815  0.00  0.00    +0.000 C 
ENDBRANCH  17  19
ENDBRANCH   3  17
BRANCH   1  22
ATOM     22  O   UNL     1      -2.494  12.456  20.840  0.00  0.00    +0.000 OA
BRANCH  22  30
ATOM     23  C   UNL     1      -0.859  14.916  19.856  0.00  0.00    +0.000 C 
ATOM     24  C   UNL     1      -1.283  14.593  21.265  0.00  0.00    +0.000 A 
ATOM     25  C   UNL     1      -0.808  15.480  22.257  0.00  0.00    +0.000 A 
ATOM     26  C   UNL     1      -1.020  15.254  23.617  0.00  0.00    +0.000 A 
ATOM     27  C   UNL     1      -1.700  14.096  24.002  0.00  0.00    +0.000 A 
ATOM     28  C   UNL     1      -2.218  13.202  23.045  0.00  0.00    +0.000 A 
ATOM     29  C   UNL     1      -2.908  11.954  23.522  0.00  0.00    +0.000 C 
ATOM     30  C   UNL     1      -2.028  13.465  21.666  0.00  0.00    +0.000 A 
BRANCH  26  31
ATOM     31  C   UNL     1      -0.486  16.233  24.579  0.00  0.00    +0.000 C 
ATOM     32  C   UNL     1      -1.025  16.399  25.791  0.00  0.00    +0.000 C 
BRANCH  32  33
ATOM     33  C   UNL     1      -0.572  17.454  26.786  0.00  0.00    +0.000 C 
ATOM     34  N   UNL     1      -0.196  18.330  27.612  0.00  0.00    +0.000 NA
ENDBRANCH  32  33
ENDBRANCH  26  31
ENDBRANCH  22  30
ENDBRANCH   1  22
TORSDOF 8
ENDMDL
MODEL 8
REMARK VINA RESULT:      -6.8      0.515      1.627
REMARK  Name = 
REMARK  10 active torsions:
REMARK  status: ('A' for Active; 'I' for Inactive)
REMARK    1  A    between atoms: C_1  and  C_2
REMARK    2  A    between atoms: C_4  and  C_5
REMARK    3  A    between atoms: C_6  and  C_7
REMARK    4  A    between atoms: C_10  and  C_11
REMARK    5  A    between atoms: C_12  and  O_13
REMARK    6  A    between atoms: O_13  and  C_14
REMARK    7  A    between atoms: C_16  and  N_17
REMARK    8  A    between atoms: N_17  and  C_18
REMARK    9  A    between atoms: N_23  and  C_24
REMARK   10  A    between atoms: C_27  and  C_28
REMARK                            x       y       z     vdW  Elec       q    Type
REMARK                         _______ _______ _______ _____ _____    ______ ____
ROOT
ATOM      1  C   UNL     1       2.636   7.148  18.300  0.00  0.00    +0.000 A 
ATOM      2  C   UNL     1       2.579   7.050  19.669  0.00  0.00    +0.000 A 
ATOM      3  C   UNL     1       1.789   7.979  20.290  0.00  0.00    +0.000 A 
ATOM      4  N   UNL     1       1.159   8.938  19.601  0.00  0.00    +0.000 NA
ATOM      5  C   UNL     1       1.341   9.008  18.273  0.00  0.00    +0.000 A 
ATOM      6  N   UNL     1       0.629   9.951  17.533  0.00  0.00    +0.000 N 
ATOM      7  N   UNL     1       2.118   8.164  17.588  0.00  0.00    +0.000 NA
ATOM      8  H   UNL     1       0.898   9.909  16.559  0.00  0.00    +0.000 HD
ENDROOT
BRANCH   6   9
ATOM      9  C   UNL     1      -0.639  10.491  17.797  0.00  0.00    +0.000 A 
ATOM     10  C   UNL     1      -0.741  11.593  18.655  0.00  0.00    +0.000 A 
ATOM     11  C   UNL     1      -1.992  12.090  19.041  0.00  0.00    +0.000 A 
ATOM     12  C   UNL     1      -3.165  11.507  18.554  0.00  0.00    +0.000 A 
ATOM     13  C   UNL     1      -3.077  10.438  17.661  0.00  0.00    +0.000 A 
ATOM     14  C   UNL     1      -1.825   9.935  17.291  0.00  0.00    +0.000 A 
BRANCH  12  15
ATOM     15  C   UNL     1      -4.447  11.985  18.985  0.00  0.00    +0.000 C 
ATOM     16  N   UNL     1      -5.487  12.356  19.339  0.00  0.00    +0.000 NA
ENDBRANCH  12  15
ENDBRANCH   6   9
BRANCH   3  17
ATOM     17  N   UNL     1       1.560   7.993  21.670  0.00  0.00    +0.000 N 
ATOM     18  H   UNL     1       2.240   7.351  22.076  0.00  0.00    +0.000 HD
BRANCH  17  19
ATOM     19  C   UNL     1       1.269   9.220  22.403  0.00  0.00    +0.000 C 
ATOM     20  C   UNL     1       0.092  10.089  22.065  0.00  0.00    +0.000 C 
ATOM     21  C   UNL     1       0.060   9.237  23.299  0.00  0.00    +0.000 C 
ENDBRANCH  17  19
ENDBRANCH   3  17
BRANCH   1  22
ATOM     22  O   UNL     1       3.216   6.066  17.657  0.00  0.00    +0.000 OA
BRANCH  22  30
ATOM     23  C   UNL     1       1.008   3.958  18.270  0.00  0.00    +0.000 C 
ATOM     24  C   UNL     1       2.468   3.898  18.635  0.00  0.00    +0.000 A 
ATOM     25  C   UNL     1       2.851   2.786  19.417  0.00  0.00    +0.000 A 
ATOM     26  C   UNL     1       4.141   2.647  19.928  0.00  0.00    +0.000 A 
ATOM     27  C   UNL     1       5.069   3.659  19.679  0.00  0.00    +0.000 A 
ATOM     28  C   UNL     1       4.739   4.770  18.878  0.00  0.00    +0.000 A 
ATOM     29  C   UNL     1       5.771   5.847  18.676  0.00  0.00    +0.000 C 
ATOM     30  C   UNL     1       3.436   4.878  18.334  0.00  0.00    +0.000 A 
BRANCH  26  31
ATOM     31  C   UNL     1       4.447   1.452  20.735  0.00  0.00    +0.000 C 
ATOM     32  C   UNL     1       5.659   1.245  21.258  0.00  0.00    +0.000 C 
BRANCH  32  33
ATOM     33  C   UNL     1       6.055  -0.009  22.019  0.00  0.00    +0.000 C 
ATOM     34  N   UNL     1       6.383  -1.049  22.652  0.00  0.00    +0.000 NA
ENDBRANCH  32  33
ENDBRANCH  26  31
ENDBRANCH  22  30
ENDBRANCH   1  22
TORSDOF 8
ENDMDL
MODEL 9
REMARK VINA RESULT:      -6.8      5.037      7.448
REMARK  Name = 
REMARK  10 active torsions:
REMARK  status: ('A' for Active; 'I' for Inactive)
REMARK    1  A    between atoms: C_1  and  C_2
REMARK    2  A    between atoms: C_4  and  C_5
REMARK    3  A    between atoms: C_6  and  C_7
REMARK    4  A    between atoms: C_10  and  C_11
REMARK    5  A    between atoms: C_12  and  O_13
REMARK    6  A    between atoms: O_13  and  C_14
REMARK    7  A    between atoms: C_16  and  N_17
REMARK    8  A    between atoms: N_17  and  C_18
REMARK    9  A    between atoms: N_23  and  C_24
REMARK   10  A    between atoms: C_27  and  C_28
REMARK                            x       y       z     vdW  Elec       q    Type
REMARK                         _______ _______ _______ _____ _____    ______ ____
ROOT
ATOM      1  C   UNL     1       0.149  12.201  20.504  0.00  0.00    +0.000 A 
ATOM      2  C   UNL     1      -0.573  13.061  19.714  0.00  0.00    +0.000 A 
ATOM      3  C   UNL     1       0.038  14.253  19.436  0.00  0.00    +0.000 A 
ATOM      4  N   UNL     1       1.237  14.563  19.943  0.00  0.00    +0.000 NA
ATOM      5  C   UNL     1       1.832  13.694  20.776  0.00  0.00    +0.000 A 
ATOM      6  N   UNL     1       3.115  13.968  21.248  0.00  0.00    +0.000 N 
ATOM      7  N   UNL     1       1.297  12.522  21.127  0.00  0.00    +0.000 NA
ATOM      8  H   UNL     1       3.415  13.247  21.890  0.00  0.00    +0.000 HD
ENDROOT
BRANCH   6   9
ATOM      9  C   UNL     1       4.139  14.697  20.622  0.00  0.00    +0.000 A 
ATOM     10  C   UNL     1       5.017  15.448  21.411  0.00  0.00    +0.000 A 
ATOM     11  C   UNL     1       5.977  16.282  20.825  0.00  0.00    +0.000 A 
ATOM     12  C   UNL     1       6.089  16.362  19.434  0.00  0.00    +0.000 A 
ATOM     13  C   UNL     1       5.251  15.582  18.635  0.00  0.00    +0.000 A 
ATOM     14  C   UNL     1       4.284  14.762  19.227  0.00  0.00    +0.000 A 
BRANCH  12  15
ATOM     15  C   UNL     1       7.040  17.251  18.832  0.00  0.00    +0.000 C 
ATOM     16  N   UNL     1       7.822  17.962  18.354  0.00  0.00    +0.000 NA
ENDBRANCH  12  15
ENDBRANCH   6   9
BRANCH   3  17
ATOM     17  N   UNL     1      -0.519  15.224  18.597  0.00  0.00    +0.000 N 
ATOM     18  H   UNL     1      -1.498  14.965  18.475  0.00  0.00    +0.000 HD
BRANCH  17  19
ATOM     19  C   UNL     1      -0.208  16.642  18.725  0.00  0.00    +0.000 C 
ATOM     20  C   UNL     1      -0.435  17.612  17.602  0.00  0.00    +0.000 C 
ATOM     21  C   UNL     1      -1.355  17.615  18.786  0.00  0.00    +0.000 C 
ENDBRANCH  17  19
ENDBRANCH   3  17
BRANCH   1  22
ATOM     22  O   UNL     1      -0.345  10.908  20.571  0.00  0.00    +0.000 OA
BRANCH  22  30
ATOM     23  C   UNL     1       0.982  10.336  17.814  0.00  0.00    +0.000 C 
ATOM     24  C   UNL     1       1.095   9.525  19.078  0.00  0.00    +0.000 A 
ATOM     25  C   UNL     1       1.829   8.324  18.962  0.00  0.00    +0.000 A 
ATOM     26  C   UNL     1       1.928   7.411  20.011  0.00  0.00    +0.000 A 
ATOM     27  C   UNL     1       1.253   7.688  21.202  0.00  0.00    +0.000 A 
ATOM     28  C   UNL     1       0.536   8.889  21.371  0.00  0.00    +0.000 A 
ATOM     29  C   UNL     1      -0.201   9.114  22.663  0.00  0.00    +0.000 C 
ATOM     30  C   UNL     1       0.476   9.824  20.309  0.00  0.00    +0.000 A 
BRANCH  26  31
ATOM     31  C   UNL     1       2.714   6.183  19.797  0.00  0.00    +0.000 C 
ATOM     32  C   UNL     1       2.364   5.016  20.345  0.00  0.00    +0.000 C 
BRANCH  32  33
ATOM     33  C   UNL     1       3.186   3.743  20.232  0.00  0.00    +0.000 C 
ATOM     34  N   UNL     1       3.868   2.686  20.138  0.00  0.00    +0.000 NA
ENDBRANCH  32  33
ENDBRANCH  26  31
ENDBRANCH  22  30
ENDBRANCH   1  22
TORSDOF 8
ENDMDL
