MODEL 1
REMARK VINA RESULT:      -6.8      0.000      0.000
REMARK  Name = 
REMARK  5 active torsions:
REMARK  status: ('A' for Active; 'I' for Inactive)
REMARK    1  A    between atoms: C_2  and  C_3
REMARK    2  A    between atoms: C_4  and  C_5
REMARK    3  A    between atoms: C_6  and  C_7
REMARK    4  A    between atoms: C_14  and  C_15
REMARK    5  A    between atoms: N_26  and  O_27
REMARK                            x       y       z     vdW  Elec       q    Type
REMARK                         _______ _______ _______ _____ _____    ______ ____
ROOT
ATOM      1  C   UNL     1       1.498   8.901  19.257  0.00  0.00    +0.000 C 
ATOM      2  C   UNL     1       1.520   8.020  20.288  0.00  0.00    +0.000 C 
ATOM      3  N   UNL     1       2.309   6.891  20.179  0.00  0.00    +0.000 N 
ATOM      4  C   UNL     1       2.337   5.600  20.612  0.00  0.00    +0.000 C 
ATOM      5  O   UNL     1       1.696   4.903  21.354  0.00  0.00    +0.000 OA
ATOM      6  C   UNL     1       3.423   5.296  19.655  0.00  0.00    +0.000 C 
ATOM      7  C   UNL     1       4.053   4.202  19.208  0.00  0.00    +0.000 C 
ATOM      8  C   UNL     1       3.475   6.765  19.314  0.00  0.00    +0.000 C 
ATOM      9  S   UNL     1       2.936   7.216  17.676  0.00  0.00    +0.000 S 
ATOM     10  O   UNL     1       1.791   6.440  17.229  0.00  0.00    +0.000 OA
ATOM     11  O   UNL     1       4.067   7.400  16.774  0.00  0.00    +0.000 OA
ATOM     12  C   UNL     1       2.369   8.849  18.022  0.00  0.00    +0.000 C 
ENDROOT
BRANCH   7  13
ATOM     13  C   UNL     1       5.124   4.234  18.189  0.00  0.00    +0.000 A 
ATOM     14  C   UNL     1       4.874   3.956  16.855  0.00  0.00    +0.000 A 
ATOM     15  C   UNL     1       5.917   4.047  15.933  0.00  0.00    +0.000 A 
ATOM     16  C   UNL     1       7.187   4.402  16.378  0.00  0.00    +0.000 A 
ATOM     17  C   UNL     1       7.350   4.653  17.731  0.00  0.00    +0.000 A 
ATOM     18  N   UNL     1       6.355   4.573  18.644  0.00  0.00    +0.000 NA
ENDBRANCH   7  13
BRANCH   2  19
ATOM     19  C   UNL     1       0.619   8.332  21.566  0.00  0.00    +0.000 C 
ATOM     20  O   UNL     1      -0.560   7.918  21.555  0.00  0.00    +0.000 OA
ATOM     21  O   UNL     1       1.198   9.038  22.472  0.00  0.00    +0.000 OA
ENDBRANCH   2  19
BRANCH   1  23
ATOM     22  C   UNL     1      -0.472  10.036  18.305  0.00  0.00    +0.000 C 
ATOM     23  C   UNL     1       0.579  10.023  19.143  0.00  0.00    +0.000 C 
BRANCH  22  25
ATOM     24  O   UNL     1      -1.271  12.034  19.253  0.00  0.00    +0.000 OA
ATOM     25  C   UNL     1      -1.385  11.197  18.359  0.00  0.00    +0.000 C 
ATOM     26  N   UNL     1      -2.386  11.154  17.426  0.00  0.00    +0.000 N 
ATOM     27  H   UNL     1      -2.715  10.258  17.070  0.00  0.00    +0.000 HD
BRANCH  26  28
ATOM     28  O   UNL     1      -3.381  12.146  17.578  0.00  0.00    +0.000 OA
ATOM     29  H   UNL     1      -3.984  11.720  18.219  0.00  0.00    +0.000 HD
ENDBRANCH  26  28
ENDBRANCH  22  25
ENDBRANCH   1  23
TORSDOF 5
ENDMDL
MODEL 2
REMARK VINA RESULT:      -6.4      0.550      1.120
REMARK  Name = 
REMARK  5 active torsions:
REMARK  status: ('A' for Active; 'I' for Inactive)
REMARK    1  A    between atoms: C_2  and  C_3
REMARK    2  A    between atoms: C_4  and  C_5
REMARK    3  A    between atoms: C_6  and  C_7
REMARK    4  A    between atoms: C_14  and  C_15
REMARK    5  A    between atoms: N_26  and  O_27
REMARK                            x       y       z     vdW  Elec       q    Type
REMARK                         _______ _______ _______ _____ _____    ______ ____
ROOT
ATOM      1  C   UNL     1       1.448   8.866  19.214  0.00  0.00    +0.000 C 
ATOM      2  C   UNL     1       1.519   8.008  20.262  0.00  0.00    +0.000 C 
ATOM      3  N   UNL     1       2.345   6.905  20.162  0.00  0.00    +0.000 N 
ATOM      4  C   UNL     1       2.425   5.625  20.621  0.00  0.00    +0.000 C 
ATOM      5  O   UNL     1       1.823   4.922  21.388  0.00  0.00    +0.000 OA
ATOM      6  C   UNL     1       3.504   5.339  19.650  0.00  0.00    +0.000 C 
ATOM      7  C   UNL     1       4.164   4.258  19.214  0.00  0.00    +0.000 C 
ATOM      8  C   UNL     1       3.499   6.801  19.278  0.00  0.00    +0.000 C 
ATOM      9  S   UNL     1       2.916   7.199  17.641  0.00  0.00    +0.000 S 
ATOM     10  O   UNL     1       1.792   6.374  17.232  0.00  0.00    +0.000 OA
ATOM     11  O   UNL     1       4.024   7.402  16.716  0.00  0.00    +0.000 OA
ATOM     12  C   UNL     1       2.299   8.818  17.965  0.00  0.00    +0.000 C 
ENDROOT
BRANCH   7  13
ATOM     13  C   UNL     1       5.215   4.306  18.176  0.00  0.00    +0.000 A 
ATOM     14  C   UNL     1       6.513   4.697  18.464  0.00  0.00    +0.000 A 
ATOM     15  C   UNL     1       7.472   4.677  17.451  0.00  0.00    +0.000 A 
ATOM     16  C   UNL     1       7.099   4.278  16.171  0.00  0.00    +0.000 A 
ATOM     17  C   UNL     1       5.778   3.913  15.968  0.00  0.00    +0.000 A 
ATOM     18  N   UNL     1       4.830   3.922  16.934  0.00  0.00    +0.000 NA
ENDBRANCH   7  13
BRANCH   2  19
ATOM     19  C   UNL     1       0.631   8.315  21.550  0.00  0.00    +0.000 C 
ATOM     20  O   UNL     1       1.159   8.973  22.471  0.00  0.00    +0.000 OA
ATOM     21  O   UNL     1      -0.548   7.797  21.527  0.00  0.00    +0.000 OA
ENDBRANCH   2  19
BRANCH   1  23
ATOM     22  C   UNL     1      -0.407  10.042  18.096  0.00  0.00    +0.000 C 
ATOM     23  C   UNL     1       0.489   9.953  19.094  0.00  0.00    +0.000 C 
BRANCH  22  25
ATOM     24  O   UNL     1      -1.489  11.842  19.154  0.00  0.00    +0.000 OA
ATOM     25  C   UNL     1      -1.391  11.144  18.146  0.00  0.00    +0.000 C 
ATOM     26  N   UNL     1      -2.210  11.200  17.051  0.00  0.00    +0.000 N 
ATOM     27  H   UNL     1      -2.413  10.355  16.519  0.00  0.00    +0.000 HD
BRANCH  26  28
ATOM     28  O   UNL     1      -3.280  12.117  17.158  0.00  0.00    +0.000 OA
ATOM     29  H   UNL     1      -2.916  12.897  16.692  0.00  0.00    +0.000 HD
ENDBRANCH  26  28
ENDBRANCH  22  25
ENDBRANCH   1  23
TORSDOF 5
ENDMDL
MODEL 3
REMARK VINA RESULT:      -6.4      0.862      1.252
REMARK  Name = 
REMARK  5 active torsions:
REMARK  status: ('A' for Active; 'I' for Inactive)
REMARK    1  A    between atoms: C_2  and  C_3
REMARK    2  A    between atoms: C_4  and  C_5
REMARK    3  A    between atoms: C_6  and  C_7
REMARK    4  A    between atoms: C_14  and  C_15
REMARK    5  A    between atoms: N_26  and  O_27
REMARK                            x       y       z     vdW  Elec       q    Type
REMARK                         _______ _______ _______ _____ _____    ______ ____
ROOT
ATOM      1  C   UNL     1       1.438   9.001  19.335  0.00  0.00    +0.000 C 
ATOM      2  C   UNL     1       1.448   8.084  20.334  0.00  0.00    +0.000 C 
ATOM      3  N   UNL     1       2.224   6.951  20.188  0.00  0.00    +0.000 N 
ATOM      4  C   UNL     1       2.237   5.645  20.575  0.00  0.00    +0.000 C 
ATOM      5  O   UNL     1       1.587   4.930  21.292  0.00  0.00    +0.000 OA
ATOM      6  C   UNL     1       3.322   5.363  19.610  0.00  0.00    +0.000 C 
ATOM      7  C   UNL     1       3.941   4.279  19.127  0.00  0.00    +0.000 C 
ATOM      8  C   UNL     1       3.391   6.843  19.321  0.00  0.00    +0.000 C 
ATOM      9  S   UNL     1       2.860   7.356  17.699  0.00  0.00    +0.000 S 
ATOM     10  O   UNL     1       1.709   6.609  17.223  0.00  0.00    +0.000 OA
ATOM     11  O   UNL     1       3.995   7.559  16.806  0.00  0.00    +0.000 OA
ATOM     12  C   UNL     1       2.311   8.982  18.101  0.00  0.00    +0.000 C 
ENDROOT
BRANCH   7  13
ATOM     13  C   UNL     1       5.014   4.335  18.112  0.00  0.00    +0.000 A 
ATOM     14  C   UNL     1       6.307   4.717  18.434  0.00  0.00    +0.000 A 
ATOM     15  C   UNL     1       7.288   4.705  17.441  0.00  0.00    +0.000 A 
ATOM     16  C   UNL     1       6.941   4.323  16.148  0.00  0.00    +0.000 A 
ATOM     17  C   UNL     1       5.623   3.966  15.913  0.00  0.00    +0.000 A 
ATOM     18  N   UNL     1       4.655   3.967  16.857  0.00  0.00    +0.000 NA
ENDBRANCH   7  13
BRANCH   2  19
ATOM     19  C   UNL     1       0.547   8.361  21.621  0.00  0.00    +0.000 C 
ATOM     20  O   UNL     1      -0.627   7.934  21.606  0.00  0.00    +0.000 OA
ATOM     21  O   UNL     1       1.121   9.057  22.539  0.00  0.00    +0.000 OA
ENDBRANCH   2  19
BRANCH   1  23
ATOM     22  C   UNL     1      -0.396  10.279  18.296  0.00  0.00    +0.000 C 
ATOM     23  C   UNL     1       0.532  10.137  19.258  0.00  0.00    +0.000 C 
BRANCH  22  25
ATOM     24  O   UNL     1      -2.281  11.516  17.627  0.00  0.00    +0.000 OA
ATOM     25  C   UNL     1      -1.320  11.429  18.391  0.00  0.00    +0.000 C 
ATOM     26  N   UNL     1      -0.924  12.382  19.290  0.00  0.00    +0.000 N 
ATOM     27  H   UNL     1       0.064  12.498  19.509  0.00  0.00    +0.000 HD
BRANCH  26  28
ATOM     28  O   UNL     1      -1.681  13.574  19.262  0.00  0.00    +0.000 OA
ATOM     29  H   UNL     1      -1.937  13.620  18.319  0.00  0.00    +0.000 HD
ENDBRANCH  26  28
ENDBRANCH  22  25
ENDBRANCH   1  23
TORSDOF 5
ENDMDL
MODEL 4
REMARK VINA RESULT:      -6.3      2.751      3.896
REMARK  Name = 
REMARK  5 active torsions:
REMARK  status: ('A' for Active; 'I' for Inactive)
REMARK    1  A    between atoms: C_2  and  C_3
REMARK    2  A    between atoms: C_4  and  C_5
REMARK    3  A    between atoms: C_6  and  C_7
REMARK    4  A    between atoms: C_14  and  C_15
REMARK    5  A    between atoms: N_26  and  O_27
REMARK                            x       y       z     vdW  Elec       q    Type
REMARK                         _______ _______ _______ _____ _____    ______ ____
ROOT
ATOM      1  C   UNL     1       2.406   5.679  20.227  0.00  0.00    +0.000 C 
ATOM      2  C   UNL     1       2.552   4.332  20.256  0.00  0.00    +0.000 C 
ATOM      3  N   UNL     1       3.298   3.724  19.265  0.00  0.00    +0.000 N 
ATOM      4  C   UNL     1       3.361   2.541  18.592  0.00  0.00    +0.000 C 
ATOM      5  O   UNL     1       2.815   1.470  18.636  0.00  0.00    +0.000 OA
ATOM      6  C   UNL     1       4.300   3.138  17.618  0.00  0.00    +0.000 C 
ATOM      7  C   UNL     1       4.843   2.788  16.445  0.00  0.00    +0.000 C 
ATOM      8  C   UNL     1       4.332   4.380  18.474  0.00  0.00    +0.000 C 
ATOM      9  S   UNL     1       3.583   5.839  17.778  0.00  0.00    +0.000 S 
ATOM     10  O   UNL     1       2.374   5.545  17.028  0.00  0.00    +0.000 OA
ATOM     11  O   UNL     1       4.583   6.727  17.198  0.00  0.00    +0.000 OA
ATOM     12  C   UNL     1       3.099   6.630  19.278  0.00  0.00    +0.000 C 
ENDROOT
BRANCH   7  13
ATOM     13  C   UNL     1       5.765   3.654  15.680  0.00  0.00    +0.000 A 
ATOM     14  C   UNL     1       5.664   3.799  14.305  0.00  0.00    +0.000 A 
ATOM     15  C   UNL     1       6.534   4.666  13.646  0.00  0.00    +0.000 A 
ATOM     16  C   UNL     1       7.493   5.356  14.382  0.00  0.00    +0.000 A 
ATOM     17  C   UNL     1       7.531   5.144  15.751  0.00  0.00    +0.000 A 
ATOM     18  N   UNL     1       6.698   4.310  16.414  0.00  0.00    +0.000 NA
ENDBRANCH   7  13
BRANCH   2  19
ATOM     19  C   UNL     1       1.840   3.521  21.430  0.00  0.00    +0.000 C 
ATOM     20  O   UNL     1       2.429   3.463  22.530  0.00  0.00    +0.000 OA
ATOM     21  O   UNL     1       0.734   2.953  21.098  0.00  0.00    +0.000 OA
ENDBRANCH   2  19
BRANCH   1  23
ATOM     22  C   UNL     1       1.409   7.776  21.055  0.00  0.00    +0.000 C 
ATOM     23  C   UNL     1       1.501   6.435  21.080  0.00  0.00    +0.000 C 
BRANCH  22  25
ATOM     24  O   UNL     1      -0.812   8.155  21.728  0.00  0.00    +0.000 OA
ATOM     25  C   UNL     1       0.378   8.415  21.900  0.00  0.00    +0.000 C 
ATOM     26  N   UNL     1       0.875   9.363  22.753  0.00  0.00    +0.000 N 
ATOM     27  H   UNL     1       1.728   9.866  22.517  0.00  0.00    +0.000 HD
BRANCH  26  28
ATOM     28  O   UNL     1      -0.106  10.121  23.432  0.00  0.00    +0.000 OA
ATOM     29  H   UNL     1      -0.282  10.835  22.786  0.00  0.00    +0.000 HD
ENDBRANCH  26  28
ENDBRANCH  22  25
ENDBRANCH   1  23
TORSDOF 5
ENDMDL
MODEL 5
REMARK VINA RESULT:      -6.1      3.302      5.063
REMARK  Name = 
REMARK  5 active torsions:
REMARK  status: ('A' for Active; 'I' for Inactive)
REMARK    1  A    between atoms: C_2  and  C_3
REMARK    2  A    between atoms: C_4  and  C_5
REMARK    3  A    between atoms: C_6  and  C_7
REMARK    4  A    between atoms: C_14  and  C_15
REMARK    5  A    between atoms: N_26  and  O_27
REMARK                            x       y       z     vdW  Elec       q    Type
REMARK                         _______ _______ _______ _____ _____    ______ ____
ROOT
ATOM      1  C   UNL     1      -0.479  10.988  21.298  0.00  0.00    +0.000 C 
ATOM      2  C   UNL     1       0.032  11.407  20.114  0.00  0.00    +0.000 C 
ATOM      3  N   UNL     1       0.770  10.517  19.358  0.00  0.00    +0.000 N 
ATOM      4  C   UNL     1       1.799  10.520  18.465  0.00  0.00    +0.000 C 
ATOM      5  O   UNL     1       2.468  11.337  17.890  0.00  0.00    +0.000 OA
ATOM      6  C   UNL     1       1.911   9.049  18.580  0.00  0.00    +0.000 C 
ATOM      7  C   UNL     1       2.765   8.100  18.177  0.00  0.00    +0.000 C 
ATOM      8  C   UNL     1       0.671   9.065  19.440  0.00  0.00    +0.000 C 
ATOM      9  S   UNL     1       0.893   8.642  21.157  0.00  0.00    +0.000 S 
ATOM     10  O   UNL     1       2.127   9.174  21.709  0.00  0.00    +0.000 OA
ATOM     11  O   UNL     1       0.539   7.251  21.413  0.00  0.00    +0.000 OA
ATOM     12  C   UNL     1      -0.440   9.575  21.836  0.00  0.00    +0.000 C 
ENDROOT
BRANCH   7  13
ATOM     13  C   UNL     1       2.599   6.665  18.488  0.00  0.00    +0.000 A 
ATOM     14  C   UNL     1       1.823   5.829  17.701  0.00  0.00    +0.000 A 
ATOM     15  C   UNL     1       1.743   4.473  18.020  0.00  0.00    +0.000 A 
ATOM     16  C   UNL     1       2.432   3.995  19.130  0.00  0.00    +0.000 A 
ATOM     17  C   UNL     1       3.175   4.902  19.868  0.00  0.00    +0.000 A 
ATOM     18  N   UNL     1       3.271   6.220  19.579  0.00  0.00    +0.000 NA
ENDBRANCH   7  13
BRANCH   2  19
ATOM     19  C   UNL     1      -0.239  12.913  19.666  0.00  0.00    +0.000 C 
ATOM     20  O   UNL     1      -1.298  13.148  19.046  0.00  0.00    +0.000 OA
ATOM     21  O   UNL     1       0.707  13.737  19.950  0.00  0.00    +0.000 OA
ENDBRANCH   2  19
BRANCH   1  23
ATOM     22  C   UNL     1      -2.430  11.873  22.517  0.00  0.00    +0.000 C 
ATOM     23  C   UNL     1      -1.106  11.854  22.285  0.00  0.00    +0.000 C 
BRANCH  22  25
ATOM     24  O   UNL     1      -2.322  13.751  23.928  0.00  0.00    +0.000 OA
ATOM     25  C   UNL     1      -2.928  12.726  23.617  0.00  0.00    +0.000 C 
ATOM     26  N   UNL     1      -4.001  12.197  24.282  0.00  0.00    +0.000 N 
ATOM     27  H   UNL     1      -4.136  11.188  24.314  0.00  0.00    +0.000 HD
BRANCH  26  28
ATOM     28  O   UNL     1      -4.375  12.894  25.453  0.00  0.00    +0.000 OA
ATOM     29  H   UNL     1      -5.167  13.379  25.146  0.00  0.00    +0.000 HD
ENDBRANCH  26  28
ENDBRANCH  22  25
ENDBRANCH   1  23
TORSDOF 5
ENDMDL
MODEL 6
REMARK VINA RESULT:      -6.1      5.464     11.463
REMARK  Name = 
REMARK  5 active torsions:
REMARK  status: ('A' for Active; 'I' for Inactive)
REMARK    1  A    between atoms: C_2  and  C_3
REMARK    2  A    between atoms: C_4  and  C_5
REMARK    3  A    between atoms: C_6  and  C_7
REMARK    4  A    between atoms: C_14  and  C_15
REMARK    5  A    between atoms: N_26  and  O_27
REMARK                            x       y       z     vdW  Elec       q    Type
REMARK                         _______ _______ _______ _____ _____    ______ ____
ROOT
ATOM      1  C   UNL     1      -2.703  12.056  19.155  0.00  0.00    +0.000 C 
ATOM      2  C   UNL     1      -3.881  11.665  18.610  0.00  0.00    +0.000 C 
ATOM      3  N   UNL     1      -5.055  12.171  19.134  0.00  0.00    +0.000 N 
ATOM      4  C   UNL     1      -6.357  11.807  19.303  0.00  0.00    +0.000 C 
ATOM      5  O   UNL     1      -7.065  10.886  18.990  0.00  0.00    +0.000 OA
ATOM      6  C   UNL     1      -6.568  12.959  20.207  0.00  0.00    +0.000 C 
ATOM      7  C   UNL     1      -7.531  13.389  21.032  0.00  0.00    +0.000 C 
ATOM      8  C   UNL     1      -5.171  13.422  19.872  0.00  0.00    +0.000 C 
ATOM      9  S   UNL     1      -3.974  13.341  21.190  0.00  0.00    +0.000 S 
ATOM     10  O   UNL     1      -4.133  12.158  22.019  0.00  0.00    +0.000 OA
ATOM     11  O   UNL     1      -3.796  14.639  21.829  0.00  0.00    +0.000 OA
ATOM     12  C   UNL     1      -2.521  13.118  20.216  0.00  0.00    +0.000 C 
ENDROOT
BRANCH   7  13
ATOM     13  C   UNL     1      -7.421  14.618  21.846  0.00  0.00    +0.000 A 
ATOM     14  C   UNL     1      -6.990  14.587  23.164  0.00  0.00    +0.000 A 
ATOM     15  C   UNL     1      -6.863  15.786  23.866  0.00  0.00    +0.000 A 
ATOM     16  C   UNL     1      -7.185  16.982  23.233  0.00  0.00    +0.000 A 
ATOM     17  C   UNL     1      -7.618  16.920  21.918  0.00  0.00    +0.000 A 
ATOM     18  N   UNL     1      -7.748  15.772  21.214  0.00  0.00    +0.000 NA
ENDBRANCH   7  13
BRANCH   2  19
ATOM     19  C   UNL     1      -3.845  10.627  17.400  0.00  0.00    +0.000 C 
ATOM     20  O   UNL     1      -4.045  11.074  16.251  0.00  0.00    +0.000 OA
ATOM     21  O   UNL     1      -3.661   9.402  17.748  0.00  0.00    +0.000 OA
ENDBRANCH   2  19
BRANCH   1  23
ATOM     22  C   UNL     1      -0.811  10.546  19.617  0.00  0.00    +0.000 C 
ATOM     23  C   UNL     1      -1.408  11.469  18.845  0.00  0.00    +0.000 C 
BRANCH  22  25
ATOM     24  O   UNL     1       1.199   9.361  19.916  0.00  0.00    +0.000 OA
ATOM     25  C   UNL     1       0.457   9.957  19.136  0.00  0.00    +0.000 C 
ATOM     26  N   UNL     1       0.739  10.250  17.829  0.00  0.00    +0.000 N 
ATOM     27  H   UNL     1       0.377  11.103  17.407  0.00  0.00    +0.000 HD
BRANCH  26  28
ATOM     28  O   UNL     1       2.029   9.864  17.401  0.00  0.00    +0.000 OA
ATOM     29  H   UNL     1       2.180  10.480  16.656  0.00  0.00    +0.000 HD
ENDBRANCH  26  28
ENDBRANCH  22  25
ENDBRANCH   1  23
TORSDOF 5
ENDMDL
MODEL 7
REMARK VINA RESULT:      -6.0      4.739     10.176
REMARK  Name = 
REMARK  5 active torsions:
REMARK  status: ('A' for Active; 'I' for Inactive)
REMARK    1  A    between atoms: C_2  and  C_3
REMARK    2  A    between atoms: C_4  and  C_5
REMARK    3  A    between atoms: C_6  and  C_7
REMARK    4  A    between atoms: C_14  and  C_15
REMARK    5  A    between atoms: N_26  and  O_27
REMARK                            x       y       z     vdW  Elec       q    Type
REMARK                         _______ _______ _______ _____ _____    ______ ____
ROOT
ATOM      1  C   UNL     1      -0.568  11.173  19.982  0.00  0.00    +0.000 C 
ATOM      2  C   UNL     1      -1.771  11.508  19.453  0.00  0.00    +0.000 C 
ATOM      3  N   UNL     1      -2.587  12.372  20.156  0.00  0.00    +0.000 N 
ATOM      4  C   UNL     1      -3.912  12.630  20.338  0.00  0.00    +0.000 C 
ATOM      5  O   UNL     1      -4.958  12.240  19.889  0.00  0.00    +0.000 OA
ATOM      6  C   UNL     1      -3.590  13.515  21.478  0.00  0.00    +0.000 C 
ATOM      7  C   UNL     1      -4.267  14.150  22.443  0.00  0.00    +0.000 C 
ATOM      8  C   UNL     1      -2.128  13.335  21.149  0.00  0.00    +0.000 C 
ATOM      9  S   UNL     1      -1.159  12.416  22.330  0.00  0.00    +0.000 S 
ATOM     10  O   UNL     1      -1.886  11.294  22.898  0.00  0.00    +0.000 OA
ATOM     11  O   UNL     1      -0.415  13.304  23.215  0.00  0.00    +0.000 OA
ATOM     12  C   UNL     1       0.053  11.764  21.228  0.00  0.00    +0.000 C 
ENDROOT
BRANCH   7  13
ATOM     13  C   UNL     1      -3.622  14.971  23.490  0.00  0.00    +0.000 A 
ATOM     14  C   UNL     1      -3.315  14.456  24.739  0.00  0.00    +0.000 A 
ATOM     15  C   UNL     1      -2.665  15.268  25.669  0.00  0.00    +0.000 A 
ATOM     16  C   UNL     1      -2.353  16.580  25.325  0.00  0.00    +0.000 A 
ATOM     17  C   UNL     1      -2.706  17.016  24.059  0.00  0.00    +0.000 A 
ATOM     18  N   UNL     1      -3.335  16.249  23.138  0.00  0.00    +0.000 NA
ENDBRANCH   7  13
BRANCH   2  19
ATOM     19  C   UNL     1      -2.182  10.870  18.051  0.00  0.00    +0.000 C 
ATOM     20  O   UNL     1      -2.668   9.719  18.061  0.00  0.00    +0.000 OA
ATOM     21  O   UNL     1      -1.916  11.603  17.027  0.00  0.00    +0.000 OA
ENDBRANCH   2  19
BRANCH   1  23
ATOM     22  C   UNL     1       1.049   9.331  20.244  0.00  0.00    +0.000 C 
ATOM     23  C   UNL     1       0.310  10.136  19.461  0.00  0.00    +0.000 C 
BRANCH  22  25
ATOM     24  O   UNL     1       1.973   8.248  18.371  0.00  0.00    +0.000 OA
ATOM     25  C   UNL     1       1.821   8.251  19.592  0.00  0.00    +0.000 C 
ATOM     26  N   UNL     1       2.208   7.257  20.450  0.00  0.00    +0.000 N 
ATOM     27  H   UNL     1       1.663   7.064  21.288  0.00  0.00    +0.000 HD
BRANCH  26  28
ATOM     28  O   UNL     1       2.777   6.125  19.825  0.00  0.00    +0.000 OA
ATOM     29  H   UNL     1       3.732   6.332  19.877  0.00  0.00    +0.000 HD
ENDBRANCH  26  28
ENDBRANCH  22  25
ENDBRANCH   1  23
TORSDOF 5
ENDMDL
MODEL 8
REMARK VINA RESULT:      -5.9      4.787     10.247
REMARK  Name = 
REMARK  5 active torsions:
REMARK  status: ('A' for Active; 'I' for Inactive)
REMARK    1  A    between atoms: C_2  and  C_3
REMARK    2  A    between atoms: C_4  and  C_5
REMARK    3  A    between atoms: C_6  and  C_7
REMARK    4  A    between atoms: C_14  and  C_15
REMARK    5  A    between atoms: N_26  and  O_27
REMARK                            x       y       z     vdW  Elec       q    Type
REMARK                         _______ _______ _______ _____ _____    ______ ____
ROOT
ATOM      1  C   UNL     1      -0.542  11.138  20.132  0.00  0.00    +0.000 C 
ATOM      2  C   UNL     1      -1.697  11.521  19.532  0.00  0.00    +0.000 C 
ATOM      3  N   UNL     1      -2.495  12.455  20.163  0.00  0.00    +0.000 N 
ATOM      4  C   UNL     1      -3.810  12.794  20.269  0.00  0.00    +0.000 C 
ATOM      5  O   UNL     1      -4.853  12.448  19.782  0.00  0.00    +0.000 OA
ATOM      6  C   UNL     1      -3.492  13.700  21.395  0.00  0.00    +0.000 C 
ATOM      7  C   UNL     1      -4.177  14.407  22.303  0.00  0.00    +0.000 C 
ATOM      8  C   UNL     1      -2.029  13.426  21.146  0.00  0.00    +0.000 C 
ATOM      9  S   UNL     1      -1.174  12.497  22.404  0.00  0.00    +0.000 S 
ATOM     10  O   UNL     1      -1.992  11.439  22.972  0.00  0.00    +0.000 OA
ATOM     11  O   UNL     1      -0.423  13.373  23.296  0.00  0.00    +0.000 OA
ATOM     12  C   UNL     1       0.050  11.737  21.387  0.00  0.00    +0.000 C 
ENDROOT
BRANCH   7  13
ATOM     13  C   UNL     1      -3.537  15.228  23.353  0.00  0.00    +0.000 A 
ATOM     14  C   UNL     1      -3.162  16.543  23.127  0.00  0.00    +0.000 A 
ATOM     15  C   UNL     1      -2.605  17.280  24.172  0.00  0.00    +0.000 A 
ATOM     16  C   UNL     1      -2.426  16.673  25.412  0.00  0.00    +0.000 A 
ATOM     17  C   UNL     1      -2.819  15.352  25.546  0.00  0.00    +0.000 A 
ATOM     18  N   UNL     1      -3.363  14.616  24.550  0.00  0.00    +0.000 NA
ENDBRANCH   7  13
BRANCH   2  19
ATOM     19  C   UNL     1      -2.076  10.857  18.133  0.00  0.00    +0.000 C 
ATOM     20  O   UNL     1      -1.835  11.515  17.099  0.00  0.00    +0.000 OA
ATOM     21  O   UNL     1      -2.651   9.709  18.221  0.00  0.00    +0.000 OA
ENDBRANCH   2  19
BRANCH   1  23
ATOM     22  C   UNL     1       1.018   9.273  20.531  0.00  0.00    +0.000 C 
ATOM     23  C   UNL     1       0.297  10.035  19.691  0.00  0.00    +0.000 C 
BRANCH  22  25
ATOM     24  O   UNL     1       1.999   8.076  18.760  0.00  0.00    +0.000 OA
ATOM     25  C   UNL     1       1.750   8.120  19.964  0.00  0.00    +0.000 C 
ATOM     26  N   UNL     1       1.985   7.119  20.868  0.00  0.00    +0.000 N 
ATOM     27  H   UNL     1       1.360   6.990  21.662  0.00  0.00    +0.000 HD
BRANCH  26  28
ATOM     28  O   UNL     1       2.509   5.930  20.311  0.00  0.00    +0.000 OA
ATOM     29  H   UNL     1       2.910   6.263  19.483  0.00  0.00    +0.000 HD
ENDBRANCH  26  28
ENDBRANCH  22  25
ENDBRANCH   1  23
TORSDOF 5
ENDMDL
MODEL 9
REMARK VINA RESULT:      -5.9      4.410      9.159
REMARK  Name = 
REMARK  5 active torsions:
REMARK  status: ('A' for Active; 'I' for Inactive)
REMARK    1  A    between atoms: C_2  and  C_3
REMARK    2  A    between atoms: C_4  and  C_5
REMARK    3  A    between atoms: C_6  and  C_7
REMARK    4  A    between atoms: C_14  and  C_15
REMARK    5  A    between atoms: N_26  and  O_27
REMARK                            x       y       z     vdW  Elec       q    Type
REMARK                         _______ _______ _______ _____ _____    ______ ____
ROOT
ATOM      1  C   UNL     1       0.566  10.909  20.707  0.00  0.00    +0.000 C 
ATOM      2  C   UNL     1      -0.098  11.505  21.729  0.00  0.00    +0.000 C 
ATOM      3  N   UNL     1      -0.295  12.871  21.685  0.00  0.00    +0.000 N 
ATOM      4  C   UNL     1      -0.426  13.928  22.534  0.00  0.00    +0.000 C 
ATOM      5  O   UNL     1      -0.498  14.103  23.722  0.00  0.00    +0.000 OA
ATOM      6  C   UNL     1      -0.284  14.866  21.399  0.00  0.00    +0.000 C 
ATOM      7  C   UNL     1      -0.127  16.186  21.236  0.00  0.00    +0.000 C 
ATOM      8  C   UNL     1      -0.303  13.677  20.470  0.00  0.00    +0.000 C 
ATOM      9  S   UNL     1       1.220  13.315  19.618  0.00  0.00    +0.000 S 
ATOM     10  O   UNL     1       2.392  13.527  20.450  0.00  0.00    +0.000 OA
ATOM     11  O   UNL     1       1.208  13.842  18.258  0.00  0.00    +0.000 OA
ATOM     12  C   UNL     1       1.011  11.575  19.425  0.00  0.00    +0.000 C 
ENDROOT
BRANCH   7  13
ATOM     13  C   UNL     1       0.014  16.836  19.917  0.00  0.00    +0.000 A 
ATOM     14  C   UNL     1       1.255  17.145  19.382  0.00  0.00    +0.000 A 
ATOM     15  C   UNL     1       1.326  17.716  18.111  0.00  0.00    +0.000 A 
ATOM     16  C   UNL     1       0.148  17.976  17.417  0.00  0.00    +0.000 A 
ATOM     17  C   UNL     1      -1.049  17.645  18.031  0.00  0.00    +0.000 A 
ATOM     18  N   UNL     1      -1.145  17.089  19.260  0.00  0.00    +0.000 NA
ENDBRANCH   7  13
BRANCH   2  19
ATOM     19  C   UNL     1      -0.604  10.592  22.934  0.00  0.00    +0.000 C 
ATOM     20  O   UNL     1      -1.800  10.700  23.277  0.00  0.00    +0.000 OA
ATOM     21  O   UNL     1       0.307   9.860  23.474  0.00  0.00    +0.000 OA
ENDBRANCH   2  19
BRANCH   1  23
ATOM     22  C   UNL     1       1.501   8.908  19.612  0.00  0.00    +0.000 C 
ATOM     23  C   UNL     1       1.015   9.525  20.704  0.00  0.00    +0.000 C 
BRANCH  22  25
ATOM     24  O   UNL     1       2.443   6.916  18.791  0.00  0.00    +0.000 OA
ATOM     25  C   UNL     1       2.017   7.532  19.768  0.00  0.00    +0.000 C 
ATOM     26  N   UNL     1       1.852   7.021  21.027  0.00  0.00    +0.000 N 
ATOM     27  H   UNL     1       1.093   7.354  21.619  0.00  0.00    +0.000 HD
BRANCH  26  28
ATOM     28  O   UNL     1       2.159   5.647  21.154  0.00  0.00    +0.000 OA
ATOM     29  H   UNL     1       1.982   5.324  20.248  0.00  0.00    +0.000 HD
ENDBRANCH  26  28
ENDBRANCH  22  25
ENDBRANCH   1  23
TORSDOF 5
ENDMDL
