MODEL 1
REMARK VINA RESULT:      -7.4      0.000      0.000
REMARK  Name = 
REMARK  6 active torsions:
REMARK  status: ('A' for Active; 'I' for Inactive)
REMARK    1  A    between atoms: C_2  and  C_3
REMARK    2  A    between atoms: C_3  and  N_4
REMARK    3  A    between atoms: C_11  and  C_12
REMARK    4  A    between atoms: C_11  and  N_14
REMARK    5  A    between atoms: C_12  and  C_13
REMARK    6  A    between atoms: N_14  and  C_15
REMARK                            x       y       z     vdW  Elec       q    Type
REMARK                         _______ _______ _______ _____ _____    ______ ____
ROOT
ATOM      1  N   UNL     1       3.580   5.731  19.128  0.00  0.00    +0.000 N 
ATOM      2  C   UNL     1       4.107   6.088  17.908  0.00  0.00    +0.000 C 
ATOM      3  O   UNL     1       4.983   5.464  17.316  0.00  0.00    +0.000 OA
ATOM      4  N   UNL     1       3.572   7.195  17.311  0.00  0.00    +0.000 N 
ATOM      5  C   UNL     1       2.793   8.136  17.914  0.00  0.00    +0.000 C 
ATOM      6  O   UNL     1       2.686   9.260  17.430  0.00  0.00    +0.000 OA
ATOM      7  C   UNL     1       2.170   7.702  19.193  0.00  0.00    +0.000 C 
ATOM      8  C   UNL     1       1.395   8.566  19.908  0.00  0.00    +0.000 C 
ATOM      9  C   UNL     1       2.382   6.277  19.561  0.00  0.00    +0.000 C 
ATOM     10  O   UNL     1       1.494   5.619  20.093  0.00  0.00    +0.000 OA
ATOM     11  H   UNL     1       4.013   7.475  16.445  0.00  0.00    +0.000 HD
ENDROOT
BRANCH   8  12
ATOM     12  C   UNL     1       0.800   8.309  21.307  0.00  0.00    +0.000 C 
ATOM     13  C   UNL     1       1.043   9.298  22.449  0.00  0.00    +0.000 C 
ENDBRANCH   8  12
BRANCH   8  14
ATOM     14  N   UNL     1       1.115   9.879  19.472  0.00  0.00    +0.000 N 
ATOM     15  H   UNL     1       1.771  10.166  18.731  0.00  0.00    +0.000 HD
BRANCH  14  16
ATOM     16  C   UNL     1      -0.169  10.269  18.959  0.00  0.00    +0.000 A 
ATOM     17  C   UNL     1      -0.895  11.236  19.695  0.00  0.00    +0.000 A 
ATOM     18  C   UNL     1      -2.154  11.682  19.281  0.00  0.00    +0.000 A 
ATOM     19  C   UNL     1      -2.677  11.167  18.111  0.00  0.00    +0.000 A 
ATOM     20  C   UNL     1      -1.968  10.223  17.362  0.00  0.00    +0.000 A 
ATOM     21  C   UNL     1      -0.730   9.749  17.784  0.00  0.00    +0.000 A 
ATOM     22  C   UNL     1      -2.749   9.816  16.151  0.00  0.00    +0.000 C 
ATOM     23  C   UNL     1      -3.788  10.946  16.065  0.00  0.00    +0.000 C 
ATOM     24  C   UNL     1      -4.016  11.439  17.499  0.00  0.00    +0.000 C 
ENDBRANCH  14  16
ENDBRANCH   8  14
BRANCH   1  25
ATOM     25  C   UNL     1       3.980   4.435  19.671  0.00  0.00    +0.000 C 
BRANCH  25  27
ATOM     26  C   UNL     1       3.693   2.090  18.790  0.00  0.00    +0.000 C 
ATOM     27  C   UNL     1       3.219   3.329  18.986  0.00  0.00    +0.000 C 
ENDBRANCH  25  27
ENDBRANCH   1  25
TORSDOF 5
ENDMDL
MODEL 2
REMARK VINA RESULT:      -7.2      3.068      7.692
REMARK  Name = 
REMARK  6 active torsions:
REMARK  status: ('A' for Active; 'I' for Inactive)
REMARK    1  A    between atoms: C_2  and  C_3
REMARK    2  A    between atoms: C_3  and  N_4
REMARK    3  A    between atoms: C_11  and  C_12
REMARK    4  A    between atoms: C_11  and  N_14
REMARK    5  A    between atoms: C_12  and  C_13
REMARK    6  A    between atoms: N_14  and  C_15
REMARK                            x       y       z     vdW  Elec       q    Type
REMARK                         _______ _______ _______ _____ _____    ______ ____
ROOT
ATOM      1  N   UNL     1      -0.988  11.756  21.127  0.00  0.00    +0.000 N 
ATOM      2  C   UNL     1      -1.012  11.504  22.480  0.00  0.00    +0.000 C 
ATOM      3  O   UNL     1      -1.538  12.233  23.316  0.00  0.00    +0.000 OA
ATOM      4  N   UNL     1      -0.442  10.334  22.895  0.00  0.00    +0.000 N 
ATOM      5  C   UNL     1       0.392   9.542  22.165  0.00  0.00    +0.000 C 
ATOM      6  O   UNL     1       1.145   8.748  22.722  0.00  0.00    +0.000 OA
ATOM      7  C   UNL     1       0.346   9.777  20.696  0.00  0.00    +0.000 C 
ATOM      8  C   UNL     1       1.158   9.070  19.861  0.00  0.00    +0.000 C 
ATOM      9  C   UNL     1      -0.686  10.742  20.231  0.00  0.00    +0.000 C 
ATOM     10  O   UNL     1      -1.303  10.560  19.187  0.00  0.00    +0.000 OA
ATOM     11  H   UNL     1      -0.418  10.196  23.897  0.00  0.00    +0.000 HD
ENDROOT
BRANCH   8  12
ATOM     12  C   UNL     1       1.323   9.296  18.346  0.00  0.00    +0.000 C 
ATOM     13  C   UNL     1       2.079  10.518  17.818  0.00  0.00    +0.000 C 
ENDBRANCH   8  12
BRANCH   8  14
ATOM     14  N   UNL     1       2.046   8.073  20.323  0.00  0.00    +0.000 N 
ATOM     15  H   UNL     1       1.964   7.956  21.344  0.00  0.00    +0.000 HD
BRANCH  14  16
ATOM     16  C   UNL     1       2.028   6.727  19.823  0.00  0.00    +0.000 A 
ATOM     17  C   UNL     1       2.576   6.506  18.538  0.00  0.00    +0.000 A 
ATOM     18  C   UNL     1       2.607   5.233  17.960  0.00  0.00    +0.000 A 
ATOM     19  C   UNL     1       2.100   4.174  18.687  0.00  0.00    +0.000 A 
ATOM     20  C   UNL     1       1.568   4.371  19.966  0.00  0.00    +0.000 A 
ATOM     21  C   UNL     1       1.503   5.638  20.534  0.00  0.00    +0.000 A 
ATOM     22  C   UNL     1       1.077   3.076  20.537  0.00  0.00    +0.000 C 
ATOM     23  C   UNL     1       1.776   2.055  19.623  0.00  0.00    +0.000 C 
ATOM     24  C   UNL     1       1.966   2.743  18.266  0.00  0.00    +0.000 C 
ENDBRANCH  14  16
ENDBRANCH   8  14
BRANCH   1  25
ATOM     25  C   UNL     1      -1.782  12.883  20.646  0.00  0.00    +0.000 C 
BRANCH  25  27
ATOM     26  C   UNL     1      -0.408  14.237  19.023  0.00  0.00    +0.000 C 
ATOM     27  C   UNL     1      -0.878  14.026  20.261  0.00  0.00    +0.000 C 
ENDBRANCH  25  27
ENDBRANCH   1  25
TORSDOF 5
ENDMDL
MODEL 3
REMARK VINA RESULT:      -7.1      2.974      7.660
REMARK  Name = 
REMARK  6 active torsions:
REMARK  status: ('A' for Active; 'I' for Inactive)
REMARK    1  A    between atoms: C_2  and  C_3
REMARK    2  A    between atoms: C_3  and  N_4
REMARK    3  A    between atoms: C_11  and  C_12
REMARK    4  A    between atoms: C_11  and  N_14
REMARK    5  A    between atoms: C_12  and  C_13
REMARK    6  A    between atoms: N_14  and  C_15
REMARK                            x       y       z     vdW  Elec       q    Type
REMARK                         _______ _______ _______ _____ _____    ______ ____
ROOT
ATOM      1  N   UNL     1      -0.777  11.686  20.751  0.00  0.00    +0.000 N 
ATOM      2  C   UNL     1      -0.822  11.597  22.124  0.00  0.00    +0.000 C 
ATOM      3  O   UNL     1      -1.328  12.439  22.861  0.00  0.00    +0.000 OA
ATOM      4  N   UNL     1      -0.301  10.463  22.681  0.00  0.00    +0.000 N 
ATOM      5  C   UNL     1       0.508   9.561  22.060  0.00  0.00    +0.000 C 
ATOM      6  O   UNL     1       1.226   8.811  22.716  0.00  0.00    +0.000 OA
ATOM      7  C   UNL     1       0.484   9.622  20.573  0.00  0.00    +0.000 C 
ATOM      8  C   UNL     1       1.276   8.792  19.838  0.00  0.00    +0.000 C 
ATOM      9  C   UNL     1      -0.507  10.564  19.985  0.00  0.00    +0.000 C 
ATOM     10  O   UNL     1      -1.121  10.282  18.961  0.00  0.00    +0.000 OA
ATOM     11  H   UNL     1      -0.291  10.444  23.692  0.00  0.00    +0.000 HD
ENDROOT
BRANCH   8  12
ATOM     12  C   UNL     1       1.461   8.832  18.308  0.00  0.00    +0.000 C 
ATOM     13  C   UNL     1       2.245   9.969  17.648  0.00  0.00    +0.000 C 
ENDBRANCH   8  12
BRANCH   8  14
ATOM     14  N   UNL     1       2.121   7.825  20.425  0.00  0.00    +0.000 N 
ATOM     15  H   UNL     1       1.978   7.787  21.445  0.00  0.00    +0.000 HD
BRANCH  14  16
ATOM     16  C   UNL     1       2.112   6.445  20.029  0.00  0.00    +0.000 A 
ATOM     17  C   UNL     1       1.358   5.548  20.822  0.00  0.00    +0.000 A 
ATOM     18  C   UNL     1       1.285   4.184  20.523  0.00  0.00    +0.000 A 
ATOM     19  C   UNL     1       1.959   3.724  19.409  0.00  0.00    +0.000 A 
ATOM     20  C   UNL     1       2.697   4.597  18.604  0.00  0.00    +0.000 A 
ATOM     21  C   UNL     1       2.802   5.948  18.914  0.00  0.00    +0.000 A 
ATOM     22  C   UNL     1       3.339   3.856  17.472  0.00  0.00    +0.000 C 
ATOM     23  C   UNL     1       2.538   2.543  17.475  0.00  0.00    +0.000 C 
ATOM     24  C   UNL     1       2.082   2.313  18.920  0.00  0.00    +0.000 C 
ENDBRANCH  14  16
ENDBRANCH   8  14
BRANCH   1  25
ATOM     25  C   UNL     1      -1.524  12.778  20.131  0.00  0.00    +0.000 C 
BRANCH  25  27
ATOM     26  C   UNL     1      -0.396  14.923  19.438  0.00  0.00    +0.000 C 
ATOM     27  C   UNL     1      -0.606  13.609  19.272  0.00  0.00    +0.000 C 
ENDBRANCH  25  27
ENDBRANCH   1  25
TORSDOF 5
ENDMDL
MODEL 4
REMARK VINA RESULT:      -7.0      2.989      7.753
REMARK  Name = 
REMARK  6 active torsions:
REMARK  status: ('A' for Active; 'I' for Inactive)
REMARK    1  A    between atoms: C_2  and  C_3
REMARK    2  A    between atoms: C_3  and  N_4
REMARK    3  A    between atoms: C_11  and  C_12
REMARK    4  A    between atoms: C_11  and  N_14
REMARK    5  A    between atoms: C_12  and  C_13
REMARK    6  A    between atoms: N_14  and  C_15
REMARK                            x       y       z     vdW  Elec       q    Type
REMARK                         _______ _______ _______ _____ _____    ______ ____
ROOT
ATOM      1  N   UNL     1      -1.087  11.871  21.174  0.00  0.00    +0.000 N 
ATOM      2  C   UNL     1      -1.099  11.636  22.531  0.00  0.00    +0.000 C 
ATOM      3  O   UNL     1      -1.632  12.367  23.360  0.00  0.00    +0.000 OA
ATOM      4  N   UNL     1      -0.507  10.481  22.956  0.00  0.00    +0.000 N 
ATOM      5  C   UNL     1       0.335   9.694  22.231  0.00  0.00    +0.000 C 
ATOM      6  O   UNL     1       1.105   8.920  22.793  0.00  0.00    +0.000 OA
ATOM      7  C   UNL     1       0.276   9.909  20.760  0.00  0.00    +0.000 C 
ATOM      8  C   UNL     1       1.095   9.205  19.928  0.00  0.00    +0.000 C 
ATOM      9  C   UNL     1      -0.774  10.852  20.289  0.00  0.00    +0.000 C 
ATOM     10  O   UNL     1      -1.394  10.646  19.251  0.00  0.00    +0.000 OA
ATOM     11  H   UNL     1      -0.475  10.356  23.959  0.00  0.00    +0.000 HD
ENDROOT
BRANCH   8  12
ATOM     12  C   UNL     1       1.247   9.416  18.409  0.00  0.00    +0.000 C 
ATOM     13  C   UNL     1       2.167  10.509  17.862  0.00  0.00    +0.000 C 
ENDBRANCH   8  12
BRANCH   8  14
ATOM     14  N   UNL     1       2.002   8.230  20.397  0.00  0.00    +0.000 N 
ATOM     15  H   UNL     1       1.920   8.115  21.418  0.00  0.00    +0.000 HD
BRANCH  14  16
ATOM     16  C   UNL     1       2.013   6.881  19.904  0.00  0.00    +0.000 A 
ATOM     17  C   UNL     1       2.593   6.661  18.632  0.00  0.00    +0.000 A 
ATOM     18  C   UNL     1       2.652   5.385  18.061  0.00  0.00    +0.000 A 
ATOM     19  C   UNL     1       2.144   4.324  18.783  0.00  0.00    +0.000 A 
ATOM     20  C   UNL     1       1.581   4.519  20.048  0.00  0.00    +0.000 A 
ATOM     21  C   UNL     1       1.487   5.788  20.608  0.00  0.00    +0.000 A 
ATOM     22  C   UNL     1       1.094   3.221  20.615  0.00  0.00    +0.000 C 
ATOM     23  C   UNL     1       1.826   2.205  19.722  0.00  0.00    +0.000 C 
ATOM     24  C   UNL     1       2.038   2.889  18.366  0.00  0.00    +0.000 C 
ENDBRANCH  14  16
ENDBRANCH   8  14
BRANCH   1  25
ATOM     25  C   UNL     1      -1.903  12.979  20.684  0.00  0.00    +0.000 C 
BRANCH  25  27
ATOM     26  C   UNL     1      -4.304  12.750  19.951  0.00  0.00    +0.000 C 
ATOM     27  C   UNL     1      -3.364  12.684  20.905  0.00  0.00    +0.000 C 
ENDBRANCH  25  27
ENDBRANCH   1  25
TORSDOF 5
ENDMDL
MODEL 5
REMARK VINA RESULT:      -7.0      0.466      1.480
REMARK  Name = 
REMARK  6 active torsions:
REMARK  status: ('A' for Active; 'I' for Inactive)
REMARK    1  A    between atoms: C_2  and  C_3
REMARK    2  A    between atoms: C_3  and  N_4
REMARK    3  A    between atoms: C_11  and  C_12
REMARK    4  A    between atoms: C_11  and  N_14
REMARK    5  A    between atoms: C_12  and  C_13
REMARK    6  A    between atoms: N_14  and  C_15
REMARK                            x       y       z     vdW  Elec       q    Type
REMARK                         _______ _______ _______ _____ _____    ______ ____
ROOT
ATOM      1  N   UNL     1       3.615   5.759  19.096  0.00  0.00    +0.000 N 
ATOM      2  C   UNL     1       4.136   6.121  17.874  0.00  0.00    +0.000 C 
ATOM      3  O   UNL     1       5.015   5.504  17.280  0.00  0.00    +0.000 OA
ATOM      4  N   UNL     1       3.590   7.223  17.280  0.00  0.00    +0.000 N 
ATOM      5  C   UNL     1       2.805   8.158  17.885  0.00  0.00    +0.000 C 
ATOM      6  O   UNL     1       2.687   9.281  17.402  0.00  0.00    +0.000 OA
ATOM      7  C   UNL     1       2.189   7.719  19.166  0.00  0.00    +0.000 C 
ATOM      8  C   UNL     1       1.409   8.576  19.883  0.00  0.00    +0.000 C 
ATOM      9  C   UNL     1       2.414   6.295  19.533  0.00  0.00    +0.000 C 
ATOM     10  O   UNL     1       1.533   5.629  20.067  0.00  0.00    +0.000 OA
ATOM     11  H   UNL     1       4.026   7.507  16.412  0.00  0.00    +0.000 HD
ENDROOT
BRANCH   8  12
ATOM     12  C   UNL     1       0.821   8.314  21.284  0.00  0.00    +0.000 C 
ATOM     13  C   UNL     1       1.024   9.325  22.414  0.00  0.00    +0.000 C 
ENDBRANCH   8  12
BRANCH   8  14
ATOM     14  N   UNL     1       1.117   9.887  19.448  0.00  0.00    +0.000 N 
ATOM     15  H   UNL     1       1.724  10.154  18.659  0.00  0.00    +0.000 HD
BRANCH  14  16
ATOM     16  C   UNL     1      -0.194  10.288  19.021  0.00  0.00    +0.000 A 
ATOM     17  C   UNL     1      -0.691   9.712  17.827  0.00  0.00    +0.000 A 
ATOM     18  C   UNL     1      -1.955  10.037  17.325  0.00  0.00    +0.000 A 
ATOM     19  C   UNL     1      -2.730  10.931  18.037  0.00  0.00    +0.000 A 
ATOM     20  C   UNL     1      -2.262  11.499  19.226  0.00  0.00    +0.000 A 
ATOM     21  C   UNL     1      -0.994  11.208  19.715  0.00  0.00    +0.000 A 
ATOM     22  C   UNL     1      -3.279  12.439  19.797  0.00  0.00    +0.000 C 
ATOM     23  C   UNL     1      -4.546  12.018  19.033  0.00  0.00    +0.000 C 
ATOM     24  C   UNL     1      -4.077  11.477  17.677  0.00  0.00    +0.000 C 
ENDBRANCH  14  16
ENDBRANCH   8  14
BRANCH   1  25
ATOM     25  C   UNL     1       4.027   4.466  19.637  0.00  0.00    +0.000 C 
BRANCH  25  27
ATOM     26  C   UNL     1       3.670   2.046  19.027  0.00  0.00    +0.000 C 
ATOM     27  C   UNL     1       3.424   3.349  18.826  0.00  0.00    +0.000 C 
ENDBRANCH  25  27
ENDBRANCH   1  25
TORSDOF 5
ENDMDL
MODEL 6
REMARK VINA RESULT:      -6.8      2.586      7.637
REMARK  Name = 
REMARK  6 active torsions:
REMARK  status: ('A' for Active; 'I' for Inactive)
REMARK    1  A    between atoms: C_2  and  C_3
REMARK    2  A    between atoms: C_3  and  N_4
REMARK    3  A    between atoms: C_11  and  C_12
REMARK    4  A    between atoms: C_11  and  N_14
REMARK    5  A    between atoms: C_12  and  C_13
REMARK    6  A    between atoms: N_14  and  C_15
REMARK                            x       y       z     vdW  Elec       q    Type
REMARK                         _______ _______ _______ _____ _____    ______ ____
ROOT
ATOM      1  N   UNL     1      -0.578  11.543  20.464  0.00  0.00    +0.000 N 
ATOM      2  C   UNL     1      -0.587  11.533  21.841  0.00  0.00    +0.000 C 
ATOM      3  O   UNL     1      -1.058  12.424  22.542  0.00  0.00    +0.000 OA
ATOM      4  N   UNL     1      -0.071  10.423  22.447  0.00  0.00    +0.000 N 
ATOM      5  C   UNL     1       0.706   9.472  21.857  0.00  0.00    +0.000 C 
ATOM      6  O   UNL     1       1.428   8.747  22.536  0.00  0.00    +0.000 OA
ATOM      7  C   UNL     1       0.642   9.450  20.371  0.00  0.00    +0.000 C 
ATOM      8  C   UNL     1       1.400   8.565  19.663  0.00  0.00    +0.000 C 
ATOM      9  C   UNL     1      -0.347  10.375  19.756  0.00  0.00    +0.000 C 
ATOM     10  O   UNL     1      -0.993  10.048  18.766  0.00  0.00    +0.000 OA
ATOM     11  H   UNL     1      -0.034  10.460  23.457  0.00  0.00    +0.000 HD
ENDROOT
BRANCH   8  12
ATOM     12  C   UNL     1       1.545   8.516  18.130  0.00  0.00    +0.000 C 
ATOM     13  C   UNL     1       2.923   8.626  17.474  0.00  0.00    +0.000 C 
ENDBRANCH   8  12
BRANCH   8  14
ATOM     14  N   UNL     1       2.244   7.617  20.282  0.00  0.00    +0.000 N 
ATOM     15  H   UNL     1       2.143   7.653  21.308  0.00  0.00    +0.000 HD
BRANCH  14  16
ATOM     16  C   UNL     1       2.183   6.214  19.984  0.00  0.00    +0.000 A 
ATOM     17  C   UNL     1       1.157   5.463  20.606  0.00  0.00    +0.000 A 
ATOM     18  C   UNL     1       1.012   4.090  20.383  0.00  0.00    +0.000 A 
ATOM     19  C   UNL     1       1.891   3.473  19.516  0.00  0.00    +0.000 A 
ATOM     20  C   UNL     1       2.902   4.201  18.880  0.00  0.00    +0.000 A 
ATOM     21  C   UNL     1       3.074   5.559  19.122  0.00  0.00    +0.000 A 
ATOM     22  C   UNL     1       3.724   3.307  18.004  0.00  0.00    +0.000 C 
ATOM     23  C   UNL     1       2.809   2.078  17.878  0.00  0.00    +0.000 C 
ATOM     24  C   UNL     1       1.977   2.020  19.165  0.00  0.00    +0.000 C 
ENDBRANCH  14  16
ENDBRANCH   8  14
BRANCH   1  25
ATOM     25  C   UNL     1      -1.322  12.612  19.802  0.00  0.00    +0.000 C 
BRANCH  25  27
ATOM     26  C   UNL     1      -3.715  12.148  19.161  0.00  0.00    +0.000 C 
ATOM     27  C   UNL     1      -2.795  12.467  20.083  0.00  0.00    +0.000 C 
ENDBRANCH  25  27
ENDBRANCH   1  25
TORSDOF 5
ENDMDL
MODEL 7
REMARK VINA RESULT:      -6.7      3.091      7.750
REMARK  Name = 
REMARK  6 active torsions:
REMARK  status: ('A' for Active; 'I' for Inactive)
REMARK    1  A    between atoms: C_2  and  C_3
REMARK    2  A    between atoms: C_3  and  N_4
REMARK    3  A    between atoms: C_11  and  C_12
REMARK    4  A    between atoms: C_11  and  N_14
REMARK    5  A    between atoms: C_12  and  C_13
REMARK    6  A    between atoms: N_14  and  C_15
REMARK                            x       y       z     vdW  Elec       q    Type
REMARK                         _______ _______ _______ _____ _____    ______ ____
ROOT
ATOM      1  N   UNL     1      -1.190  11.953  21.102  0.00  0.00    +0.000 N 
ATOM      2  C   UNL     1      -1.197  11.801  22.470  0.00  0.00    +0.000 C 
ATOM      3  O   UNL     1      -1.741  12.573  23.255  0.00  0.00    +0.000 OA
ATOM      4  N   UNL     1      -0.589  10.682  22.964  0.00  0.00    +0.000 N 
ATOM      5  C   UNL     1       0.264   9.864  22.286  0.00  0.00    +0.000 C 
ATOM      6  O   UNL     1       1.044   9.136  22.893  0.00  0.00    +0.000 OA
ATOM      7  C   UNL     1       0.201   9.989  20.805  0.00  0.00    +0.000 C 
ATOM      8  C   UNL     1       1.029   9.248  20.017  0.00  0.00    +0.000 C 
ATOM      9  C   UNL     1      -0.863  10.887  20.280  0.00  0.00    +0.000 C 
ATOM     10  O   UNL     1      -1.481  10.610  19.257  0.00  0.00    +0.000 OA
ATOM     11  H   UNL     1      -0.554  10.618  23.973  0.00  0.00    +0.000 HD
ENDROOT
BRANCH   8  12
ATOM     12  C   UNL     1       1.176   9.368  18.487  0.00  0.00    +0.000 C 
ATOM     13  C   UNL     1       2.042  10.469  17.872  0.00  0.00    +0.000 C 
ENDBRANCH   8  12
BRANCH   8  14
ATOM     14  N   UNL     1       1.950   8.315  20.542  0.00  0.00    +0.000 N 
ATOM     15  H   UNL     1       1.836   8.225  21.563  0.00  0.00    +0.000 HD
BRANCH  14  16
ATOM     16  C   UNL     1       2.020   6.954  20.087  0.00  0.00    +0.000 A 
ATOM     17  C   UNL     1       1.337   5.979  20.853  0.00  0.00    +0.000 A 
ATOM     18  C   UNL     1       1.344   4.627  20.496  0.00  0.00    +0.000 A 
ATOM     19  C   UNL     1       2.026   4.257  19.353  0.00  0.00    +0.000 A 
ATOM     20  C   UNL     1       2.694   5.209  18.576  0.00  0.00    +0.000 A 
ATOM     21  C   UNL     1       2.720   6.550  18.942  0.00  0.00    +0.000 A 
ATOM     22  C   UNL     1       3.361   4.558  17.403  0.00  0.00    +0.000 C 
ATOM     23  C   UNL     1       2.644   3.198  17.361  0.00  0.00    +0.000 C 
ATOM     24  C   UNL     1       2.228   2.880  18.803  0.00  0.00    +0.000 C 
ENDBRANCH  14  16
ENDBRANCH   8  14
BRANCH   1  25
ATOM     25  C   UNL     1      -2.021  13.018  20.547  0.00  0.00    +0.000 C 
BRANCH  25  27
ATOM     26  C   UNL     1      -4.496  13.396  20.247  0.00  0.00    +0.000 C 
ATOM     27  C   UNL     1      -3.477  12.725  20.803  0.00  0.00    +0.000 C 
ENDBRANCH  25  27
ENDBRANCH   1  25
TORSDOF 5
ENDMDL
MODEL 8
REMARK VINA RESULT:      -6.6      3.260      7.785
REMARK  Name = 
REMARK  6 active torsions:
REMARK  status: ('A' for Active; 'I' for Inactive)
REMARK    1  A    between atoms: C_2  and  C_3
REMARK    2  A    between atoms: C_3  and  N_4
REMARK    3  A    between atoms: C_11  and  C_12
REMARK    4  A    between atoms: C_11  and  N_14
REMARK    5  A    between atoms: C_12  and  C_13
REMARK    6  A    between atoms: N_14  and  C_15
REMARK                            x       y       z     vdW  Elec       q    Type
REMARK                         _______ _______ _______ _____ _____    ______ ____
ROOT
ATOM      1  N   UNL     1      -2.493  13.052  20.314  0.00  0.00    +0.000 N 
ATOM      2  C   UNL     1      -3.503  12.349  19.698  0.00  0.00    +0.000 C 
ATOM      3  O   UNL     1      -4.690  12.418  20.006  0.00  0.00    +0.000 OA
ATOM      4  N   UNL     1      -3.143  11.560  18.642  0.00  0.00    +0.000 N 
ATOM      5  C   UNL     1      -1.877  11.170  18.325  0.00  0.00    +0.000 C 
ATOM      6  O   UNL     1      -1.687  10.178  17.625  0.00  0.00    +0.000 OA
ATOM      7  C   UNL     1      -0.800  11.991  18.939  0.00  0.00    +0.000 C 
ATOM      8  C   UNL     1       0.509  11.680  18.724  0.00  0.00    +0.000 C 
ATOM      9  C   UNL     1      -1.256  13.184  19.701  0.00  0.00    +0.000 C 
ATOM     10  O   UNL     1      -0.630  14.238  19.667  0.00  0.00    +0.000 OA
ATOM     11  H   UNL     1      -3.890  11.007  18.242  0.00  0.00    +0.000 HD
ENDROOT
BRANCH   8  12
ATOM     12  C   UNL     1       1.725  12.347  19.398  0.00  0.00    +0.000 C 
ATOM     13  C   UNL     1       2.629  13.296  18.609  0.00  0.00    +0.000 C 
ENDBRANCH   8  12
BRANCH   8  14
ATOM     14  N   UNL     1       0.913  10.609  17.897  0.00  0.00    +0.000 N 
ATOM     15  H   UNL     1       1.638  10.915  17.231  0.00  0.00    +0.000 HD
BRANCH  14  16
ATOM     16  C   UNL     1       1.432   9.377  18.423  0.00  0.00    +0.000 A 
ATOM     17  C   UNL     1       1.070   9.034  19.747  0.00  0.00    +0.000 A 
ATOM     18  C   UNL     1       1.523   7.857  20.352  0.00  0.00    +0.000 A 
ATOM     19  C   UNL     1       2.329   7.013  19.615  0.00  0.00    +0.000 A 
ATOM     20  C   UNL     1       2.686   7.328  18.300  0.00  0.00    +0.000 A 
ATOM     21  C   UNL     1       2.267   8.511  17.702  0.00  0.00    +0.000 A 
ATOM     22  C   UNL     1       3.569   6.264  17.724  0.00  0.00    +0.000 C 
ATOM     23  C   UNL     1       3.327   5.104  18.704  0.00  0.00    +0.000 C 
ATOM     24  C   UNL     1       2.982   5.740  20.056  0.00  0.00    +0.000 C 
ENDBRANCH  14  16
ENDBRANCH   8  14
BRANCH   1  25
ATOM     25  C   UNL     1      -2.887  14.064  21.291  0.00  0.00    +0.000 C 
BRANCH  25  27
ATOM     26  C   UNL     1      -2.421  12.434  23.157  0.00  0.00    +0.000 C 
ATOM     27  C   UNL     1      -2.393  13.680  22.662  0.00  0.00    +0.000 C 
ENDBRANCH  25  27
ENDBRANCH   1  25
TORSDOF 5
ENDMDL
MODEL 9
REMARK VINA RESULT:      -6.6      3.002      4.853
REMARK  Name = 
REMARK  6 active torsions:
REMARK  status: ('A' for Active; 'I' for Inactive)
REMARK    1  A    between atoms: C_2  and  C_3
REMARK    2  A    between atoms: C_3  and  N_4
REMARK    3  A    between atoms: C_11  and  C_12
REMARK    4  A    between atoms: C_11  and  N_14
REMARK    5  A    between atoms: C_12  and  C_13
REMARK    6  A    between atoms: N_14  and  C_15
REMARK                            x       y       z     vdW  Elec       q    Type
REMARK                         _______ _______ _______ _____ _____    ______ ____
ROOT
ATOM      1  N   UNL     1       5.941   3.856  16.441  0.00  0.00    +0.000 N 
ATOM      2  C   UNL     1       6.988   4.445  17.114  0.00  0.00    +0.000 C 
ATOM      3  O   UNL     1       8.174   4.278  16.842  0.00  0.00    +0.000 OA
ATOM      4  N   UNL     1       6.660   5.305  18.123  0.00  0.00    +0.000 N 
ATOM      5  C   UNL     1       5.440   5.417  18.719  0.00  0.00    +0.000 C 
ATOM      6  O   UNL     1       5.336   5.913  19.837  0.00  0.00    +0.000 OA
ATOM      7  C   UNL     1       4.311   4.844  17.939  0.00  0.00    +0.000 C 
ATOM      8  C   UNL     1       3.045   4.865  18.444  0.00  0.00    +0.000 C 
ATOM      9  C   UNL     1       4.654   4.349  16.579  0.00  0.00    +0.000 C 
ATOM     10  O   UNL     1       3.884   4.498  15.635  0.00  0.00    +0.000 OA
ATOM     11  H   UNL     1       7.442   5.681  18.642  0.00  0.00    +0.000 HD
ENDROOT
BRANCH   8  12
ATOM     12  C   UNL     1       1.806   4.192  17.822  0.00  0.00    +0.000 C 
ATOM     13  C   UNL     1       1.204   2.934  18.452  0.00  0.00    +0.000 C 
ENDBRANCH   8  12
BRANCH   8  14
ATOM     14  N   UNL     1       2.731   5.449  19.691  0.00  0.00    +0.000 N 
ATOM     15  H   UNL     1       3.568   5.502  20.291  0.00  0.00    +0.000 HD
BRANCH  14  16
ATOM     16  C   UNL     1       2.144   6.754  19.811  0.00  0.00    +0.000 A 
ATOM     17  C   UNL     1       1.444   7.042  21.006  0.00  0.00    +0.000 A 
ATOM     18  C   UNL     1       0.835   8.283  21.221  0.00  0.00    +0.000 A 
ATOM     19  C   UNL     1       0.947   9.243  20.236  0.00  0.00    +0.000 A 
ATOM     20  C   UNL     1       1.647   8.982  19.054  0.00  0.00    +0.000 A 
ATOM     21  C   UNL     1       2.227   7.741  18.818  0.00  0.00    +0.000 A 
ATOM     22  C   UNL     1       1.614  10.174  18.147  0.00  0.00    +0.000 C 
ATOM     23  C   UNL     1       1.186  11.285  19.120  0.00  0.00    +0.000 C 
ATOM     24  C   UNL     1       0.338  10.611  20.206  0.00  0.00    +0.000 C 
ENDBRANCH  14  16
ENDBRANCH   8  14
BRANCH   1  25
ATOM     25  C   UNL     1       6.266   3.114  15.225  0.00  0.00    +0.000 C 
BRANCH  25  27
ATOM     26  C   UNL     1       5.958   3.780  12.813  0.00  0.00    +0.000 C 
ATOM     27  C   UNL     1       6.377   4.058  14.056  0.00  0.00    +0.000 C 
ENDBRANCH  25  27
ENDBRANCH   1  25
TORSDOF 5
ENDMDL
