MODEL 1
REMARK VINA RESULT:      -7.0      0.000      0.000
REMARK  Name = 
REMARK  7 active torsions:
REMARK  status: ('A' for Active; 'I' for Inactive)
REMARK    1  A    between atoms: C_1  and  C_2
REMARK    2  A    between atoms: C_2  and  N_3
REMARK    3  A    between atoms: C_8  and  C_9
REMARK    4  A    between atoms: N_11  and  C_12
REMARK    5  A    between atoms: C_12  and  C_13
REMARK    6  A    between atoms: C_18  and  O_19
REMARK    7  A    between atoms: O_19  and  C_20
REMARK                            x       y       z     vdW  Elec       q    Type
REMARK                         _______ _______ _______ _____ _____    ______ ____
ROOT
ATOM      1  C   UNL     1       4.692   2.833  19.873  0.00  0.00    +0.000 C 
ATOM      2  O   UNL     1       4.994   1.671  20.136  0.00  0.00    +0.000 OA
ATOM      3  N   UNL     1       5.698   3.738  19.656  0.00  0.00    +0.000 N 
ATOM      4  H   UNL     1       6.620   3.325  19.697  0.00  0.00    +0.000 HD
ENDROOT
BRANCH   1  10
ATOM      5  N   UNL     1       2.307   2.626  19.005  0.00  0.00    +0.000 N 
ATOM      6  C   UNL     1       1.039   2.645  19.556  0.00  0.00    +0.000 C 
ATOM      7  O   UNL     1       0.002   2.291  19.022  0.00  0.00    +0.000 OA
ATOM      8  C   UNL     1       1.127   3.254  20.938  0.00  0.00    +0.000 C 
ATOM      9  C   UNL     1       2.621   3.292  21.219  0.00  0.00    +0.000 C 
ATOM     10  C   UNL     1       3.243   3.347  19.834  0.00  0.00    +0.000 C 
BRANCH   5  12
ATOM     11  C   UNL     1       2.687   3.557  16.728  0.00  0.00    +0.000 C 
ATOM     12  C   UNL     1       2.583   2.315  17.606  0.00  0.00    +0.000 C 
ENDBRANCH   5  12
ENDBRANCH   1  10
BRANCH   3  13
ATOM     13  C   UNL     1       5.565   5.091  19.151  0.00  0.00    +0.000 C 
BRANCH  13  14
ATOM     14  C   UNL     1       5.641   5.208  17.658  0.00  0.00    +0.000 A 
ATOM     15  C   UNL     1       6.396   4.248  16.949  0.00  0.00    +0.000 A 
ATOM     16  C   UNL     1       6.544   4.316  15.565  0.00  0.00    +0.000 A 
ATOM     17  C   UNL     1       5.914   5.328  14.856  0.00  0.00    +0.000 A 
ATOM     18  C   UNL     1       5.143   6.271  15.535  0.00  0.00    +0.000 A 
ATOM     19  C   UNL     1       4.991   6.221  16.927  0.00  0.00    +0.000 A 
BRANCH  19  20
ATOM     20  O   UNL     1       4.310   7.299  17.429  0.00  0.00    +0.000 OA
ATOM     21  C   UNL     1       3.016   7.109  17.988  0.00  0.00    +0.000 C 
ENDBRANCH  19  20
ENDBRANCH  13  14
ENDBRANCH   3  13
TORSDOF 5
ENDMDL
MODEL 2
REMARK VINA RESULT:      -7.0      1.091      1.324
REMARK  Name = 
REMARK  7 active torsions:
REMARK  status: ('A' for Active; 'I' for Inactive)
REMARK    1  A    between atoms: C_1  and  C_2
REMARK    2  A    between atoms: C_2  and  N_3
REMARK    3  A    between atoms: C_8  and  C_9
REMARK    4  A    between atoms: N_11  and  C_12
REMARK    5  A    between atoms: C_12  and  C_13
REMARK    6  A    between atoms: C_18  and  O_19
REMARK    7  A    between atoms: O_19  and  C_20
REMARK                            x       y       z     vdW  Elec       q    Type
REMARK                         _______ _______ _______ _____ _____    ______ ____
ROOT
ATOM      1  C   UNL     1       4.674   2.721  19.893  0.00  0.00    +0.000 C 
ATOM      2  O   UNL     1       5.070   1.617  20.258  0.00  0.00    +0.000 OA
ATOM      3  N   UNL     1       5.568   3.577  19.304  0.00  0.00    +0.000 N 
ATOM      4  H   UNL     1       6.489   3.174  19.193  0.00  0.00    +0.000 HD
ENDROOT
BRANCH   1  10
ATOM      5  N   UNL     1       2.218   2.736  19.217  0.00  0.00    +0.000 N 
ATOM      6  C   UNL     1       1.004   2.611  19.864  0.00  0.00    +0.000 C 
ATOM      7  O   UNL     1      -0.083   2.402  19.353  0.00  0.00    +0.000 OA
ATOM      8  C   UNL     1       1.224   2.847  21.342  0.00  0.00    +0.000 C 
ATOM      9  C   UNL     1       2.736   2.816  21.490  0.00  0.00    +0.000 C 
ATOM     10  C   UNL     1       3.237   3.224  20.115  0.00  0.00    +0.000 C 
BRANCH   5  12
ATOM     11  C   UNL     1       1.984   4.148  17.180  0.00  0.00    +0.000 C 
ATOM     12  C   UNL     1       2.365   2.793  17.766  0.00  0.00    +0.000 C 
ENDBRANCH   5  12
ENDBRANCH   1  10
BRANCH   3  13
ATOM     13  C   UNL     1       5.272   4.830  18.638  0.00  0.00    +0.000 C 
BRANCH  13  14
ATOM     14  C   UNL     1       5.639   4.863  17.184  0.00  0.00    +0.000 A 
ATOM     15  C   UNL     1       5.560   3.661  16.447  0.00  0.00    +0.000 A 
ATOM     16  C   UNL     1       5.923   3.608  15.102  0.00  0.00    +0.000 A 
ATOM     17  C   UNL     1       6.342   4.762  14.456  0.00  0.00    +0.000 A 
ATOM     18  C   UNL     1       6.401   5.964  15.161  0.00  0.00    +0.000 A 
ATOM     19  C   UNL     1       6.048   6.033  16.516  0.00  0.00    +0.000 A 
BRANCH  19  20
ATOM     20  O   UNL     1       6.294   7.262  17.069  0.00  0.00    +0.000 OA
ATOM     21  C   UNL     1       7.603   7.570  17.532  0.00  0.00    +0.000 C 
ENDBRANCH  19  20
ENDBRANCH  13  14
ENDBRANCH   3  13
TORSDOF 5
ENDMDL
MODEL 3
REMARK VINA RESULT:      -6.8      1.432      2.050
REMARK  Name = 
REMARK  7 active torsions:
REMARK  status: ('A' for Active; 'I' for Inactive)
REMARK    1  A    between atoms: C_1  and  C_2
REMARK    2  A    between atoms: C_2  and  N_3
REMARK    3  A    between atoms: C_8  and  C_9
REMARK    4  A    between atoms: N_11  and  C_12
REMARK    5  A    between atoms: C_12  and  C_13
REMARK    6  A    between atoms: C_18  and  O_19
REMARK    7  A    between atoms: O_19  and  C_20
REMARK                            x       y       z     vdW  Elec       q    Type
REMARK                         _______ _______ _______ _____ _____    ______ ____
ROOT
ATOM      1  C   UNL     1       4.675   2.712  19.935  0.00  0.00    +0.000 C 
ATOM      2  O   UNL     1       5.068   1.763  20.609  0.00  0.00    +0.000 OA
ATOM      3  N   UNL     1       5.590   3.416  19.197  0.00  0.00    +0.000 N 
ATOM      4  H   UNL     1       6.526   3.036  19.258  0.00  0.00    +0.000 HD
ENDROOT
BRANCH   1  10
ATOM      5  N   UNL     1       2.296   2.503  19.049  0.00  0.00    +0.000 N 
ATOM      6  C   UNL     1       1.028   2.464  19.596  0.00  0.00    +0.000 C 
ATOM      7  O   UNL     1      -0.001   2.119  19.040  0.00  0.00    +0.000 OA
ATOM      8  C   UNL     1       1.100   2.997  21.010  0.00  0.00    +0.000 C 
ATOM      9  C   UNL     1       2.591   3.051  21.298  0.00  0.00    +0.000 C 
ATOM     10  C   UNL     1       3.215   3.196  19.920  0.00  0.00    +0.000 C 
BRANCH   5  12
ATOM     11  C   UNL     1       2.550   3.557  16.808  0.00  0.00    +0.000 C 
ATOM     12  C   UNL     1       2.582   2.277  17.636  0.00  0.00    +0.000 C 
ENDBRANCH   5  12
ENDBRANCH   1  10
BRANCH   3  13
ATOM     13  C   UNL     1       5.316   4.433  18.200  0.00  0.00    +0.000 C 
BRANCH  13  14
ATOM     14  C   UNL     1       6.318   5.548  18.158  0.00  0.00    +0.000 A 
ATOM     15  C   UNL     1       7.308   5.596  19.164  0.00  0.00    +0.000 A 
ATOM     16  C   UNL     1       8.248   6.625  19.211  0.00  0.00    +0.000 A 
ATOM     17  C   UNL     1       8.238   7.610  18.234  0.00  0.00    +0.000 A 
ATOM     18  C   UNL     1       7.283   7.565  17.218  0.00  0.00    +0.000 A 
ATOM     19  C   UNL     1       6.327   6.542  17.162  0.00  0.00    +0.000 A 
BRANCH  19  20
ATOM     20  O   UNL     1       5.397   6.736  16.174  0.00  0.00    +0.000 OA
ATOM     21  C   UNL     1       5.377   5.859  15.054  0.00  0.00    +0.000 C 
ENDBRANCH  19  20
ENDBRANCH  13  14
ENDBRANCH   3  13
TORSDOF 5
ENDMDL
MODEL 4
REMARK VINA RESULT:      -6.6      2.694      6.020
REMARK  Name = 
REMARK  7 active torsions:
REMARK  status: ('A' for Active; 'I' for Inactive)
REMARK    1  A    between atoms: C_1  and  C_2
REMARK    2  A    between atoms: C_2  and  N_3
REMARK    3  A    between atoms: C_8  and  C_9
REMARK    4  A    between atoms: N_11  and  C_12
REMARK    5  A    between atoms: C_12  and  C_13
REMARK    6  A    between atoms: C_18  and  O_19
REMARK    7  A    between atoms: O_19  and  C_20
REMARK                            x       y       z     vdW  Elec       q    Type
REMARK                         _______ _______ _______ _____ _____    ______ ____
ROOT
ATOM      1  C   UNL     1       5.050   4.803  18.163  0.00  0.00    +0.000 C 
ATOM      2  O   UNL     1       5.711   4.083  18.908  0.00  0.00    +0.000 OA
ATOM      3  N   UNL     1       3.966   5.463  18.681  0.00  0.00    +0.000 N 
ATOM      4  H   UNL     1       3.846   5.311  19.673  0.00  0.00    +0.000 HD
ENDROOT
BRANCH   1  10
ATOM      5  N   UNL     1       6.552   5.635  16.282  0.00  0.00    +0.000 N 
ATOM      6  C   UNL     1       7.069   5.112  15.112  0.00  0.00    +0.000 C 
ATOM      7  O   UNL     1       7.974   5.574  14.439  0.00  0.00    +0.000 OA
ATOM      8  C   UNL     1       6.272   3.879  14.747  0.00  0.00    +0.000 C 
ATOM      9  C   UNL     1       5.454   3.597  15.996  0.00  0.00    +0.000 C 
ATOM     10  C   UNL     1       5.335   4.958  16.660  0.00  0.00    +0.000 C 
BRANCH   5  12
ATOM     11  C   UNL     1       7.789   6.848  18.070  0.00  0.00    +0.000 C 
ATOM     12  C   UNL     1       6.918   6.941  16.822  0.00  0.00    +0.000 C 
ENDBRANCH   5  12
ENDBRANCH   1  10
BRANCH   3  13
ATOM     13  C   UNL     1       3.178   6.494  18.034  0.00  0.00    +0.000 C 
BRANCH  13  14
ATOM     14  C   UNL     1       2.341   7.315  18.970  0.00  0.00    +0.000 A 
ATOM     15  C   UNL     1       2.009   8.633  18.590  0.00  0.00    +0.000 A 
ATOM     16  C   UNL     1       1.267   9.466  19.426  0.00  0.00    +0.000 A 
ATOM     17  C   UNL     1       0.815   8.989  20.647  0.00  0.00    +0.000 A 
ATOM     18  C   UNL     1       1.111   7.680  21.029  0.00  0.00    +0.000 A 
ATOM     19  C   UNL     1       1.862   6.833  20.204  0.00  0.00    +0.000 A 
BRANCH  19  20
ATOM     20  O   UNL     1       2.161   5.636  20.800  0.00  0.00    +0.000 OA
ATOM     21  C   UNL     1       1.293   4.525  20.610  0.00  0.00    +0.000 C 
ENDBRANCH  19  20
ENDBRANCH  13  14
ENDBRANCH   3  13
TORSDOF 5
ENDMDL
MODEL 5
REMARK VINA RESULT:      -6.5      2.151      2.871
REMARK  Name = 
REMARK  7 active torsions:
REMARK  status: ('A' for Active; 'I' for Inactive)
REMARK    1  A    between atoms: C_1  and  C_2
REMARK    2  A    between atoms: C_2  and  N_3
REMARK    3  A    between atoms: C_8  and  C_9
REMARK    4  A    between atoms: N_11  and  C_12
REMARK    5  A    between atoms: C_12  and  C_13
REMARK    6  A    between atoms: C_18  and  O_19
REMARK    7  A    between atoms: O_19  and  C_20
REMARK                            x       y       z     vdW  Elec       q    Type
REMARK                         _______ _______ _______ _____ _____    ______ ____
ROOT
ATOM      1  C   UNL     1       5.172   4.153  18.408  0.00  0.00    +0.000 C 
ATOM      2  O   UNL     1       5.892   3.968  19.387  0.00  0.00    +0.000 OA
ATOM      3  N   UNL     1       5.712   3.990  17.159  0.00  0.00    +0.000 N 
ATOM      4  H   UNL     1       6.675   3.683  17.179  0.00  0.00    +0.000 HD
ENDROOT
BRANCH   1  10
ATOM      5  N   UNL     1       2.715   3.620  18.815  0.00  0.00    +0.000 N 
ATOM      6  C   UNL     1       1.689   4.158  19.566  0.00  0.00    +0.000 C 
ATOM      7  O   UNL     1       0.621   3.633  19.834  0.00  0.00    +0.000 OA
ATOM      8  C   UNL     1       2.073   5.566  19.962  0.00  0.00    +0.000 C 
ATOM      9  C   UNL     1       3.550   5.648  19.610  0.00  0.00    +0.000 C 
ATOM     10  C   UNL     1       3.709   4.618  18.504  0.00  0.00    +0.000 C 
BRANCH   5  12
ATOM     11  C   UNL     1       3.528   1.274  18.620  0.00  0.00    +0.000 C 
ATOM     12  C   UNL     1       2.613   2.365  18.075  0.00  0.00    +0.000 C 
ENDBRANCH   5  12
ENDBRANCH   1  10
BRANCH   3  13
ATOM     13  C   UNL     1       5.002   3.971  15.894  0.00  0.00    +0.000 C 
BRANCH  13  14
ATOM     14  C   UNL     1       5.865   4.225  14.694  0.00  0.00    +0.000 A 
ATOM     15  C   UNL     1       5.513   3.607  13.474  0.00  0.00    +0.000 A 
ATOM     16  C   UNL     1       6.290   3.767  12.327  0.00  0.00    +0.000 A 
ATOM     17  C   UNL     1       7.418   4.573  12.368  0.00  0.00    +0.000 A 
ATOM     18  C   UNL     1       7.767   5.212  13.557  0.00  0.00    +0.000 A 
ATOM     19  C   UNL     1       7.002   5.056  14.720  0.00  0.00    +0.000 A 
BRANCH  19  20
ATOM     20  O   UNL     1       7.569   5.652  15.816  0.00  0.00    +0.000 OA
ATOM     21  C   UNL     1       6.960   6.810  16.374  0.00  0.00    +0.000 C 
ENDBRANCH  19  20
ENDBRANCH  13  14
ENDBRANCH   3  13
TORSDOF 5
ENDMDL
MODEL 6
REMARK VINA RESULT:      -6.5      2.179      3.128
REMARK  Name = 
REMARK  7 active torsions:
REMARK  status: ('A' for Active; 'I' for Inactive)
REMARK    1  A    between atoms: C_1  and  C_2
REMARK    2  A    between atoms: C_2  and  N_3
REMARK    3  A    between atoms: C_8  and  C_9
REMARK    4  A    between atoms: N_11  and  C_12
REMARK    5  A    between atoms: C_12  and  C_13
REMARK    6  A    between atoms: C_18  and  O_19
REMARK    7  A    between atoms: O_19  and  C_20
REMARK                            x       y       z     vdW  Elec       q    Type
REMARK                         _______ _______ _______ _____ _____    ______ ____
ROOT
ATOM      1  C   UNL     1       3.197   3.495  17.651  0.00  0.00    +0.000 C 
ATOM      2  O   UNL     1       2.355   3.373  16.764  0.00  0.00    +0.000 OA
ATOM      3  N   UNL     1       4.513   3.269  17.341  0.00  0.00    +0.000 N 
ATOM      4  H   UNL     1       4.660   3.056  16.364  0.00  0.00    +0.000 HD
ENDROOT
BRANCH   1  10
ATOM      5  N   UNL     1       2.570   5.209  19.427  0.00  0.00    +0.000 N 
ATOM      6  C   UNL     1       1.623   5.308  20.428  0.00  0.00    +0.000 C 
ATOM      7  O   UNL     1       1.306   6.312  21.043  0.00  0.00    +0.000 OA
ATOM      8  C   UNL     1       1.072   3.926  20.703  0.00  0.00    +0.000 C 
ATOM      9  C   UNL     1       1.590   3.095  19.540  0.00  0.00    +0.000 C 
ATOM     10  C   UNL     1       2.849   3.829  19.111  0.00  0.00    +0.000 C 
BRANCH   5  12
ATOM     11  C   UNL     1       2.895   7.198  17.965  0.00  0.00    +0.000 C 
ATOM     12  C   UNL     1       3.472   6.293  19.048  0.00  0.00    +0.000 C 
ENDBRANCH   5  12
ENDBRANCH   1  10
BRANCH   3  13
ATOM     13  C   UNL     1       5.668   3.540  18.176  0.00  0.00    +0.000 C 
BRANCH  13  14
ATOM     14  C   UNL     1       6.355   4.840  17.882  0.00  0.00    +0.000 A 
ATOM     15  C   UNL     1       7.159   5.416  18.890  0.00  0.00    +0.000 A 
ATOM     16  C   UNL     1       7.796   6.641  18.702  0.00  0.00    +0.000 A 
ATOM     17  C   UNL     1       7.669   7.303  17.490  0.00  0.00    +0.000 A 
ATOM     18  C   UNL     1       6.900   6.738  16.472  0.00  0.00    +0.000 A 
ATOM     19  C   UNL     1       6.246   5.511  16.648  0.00  0.00    +0.000 A 
BRANCH  19  20
ATOM     20  O   UNL     1       5.437   5.181  15.593  0.00  0.00    +0.000 OA
ATOM     21  C   UNL     1       6.006   4.567  14.443  0.00  0.00    +0.000 C 
ENDBRANCH  19  20
ENDBRANCH  13  14
ENDBRANCH   3  13
TORSDOF 5
ENDMDL
MODEL 7
REMARK VINA RESULT:      -6.5      2.262      3.626
REMARK  Name = 
REMARK  7 active torsions:
REMARK  status: ('A' for Active; 'I' for Inactive)
REMARK    1  A    between atoms: C_1  and  C_2
REMARK    2  A    between atoms: C_2  and  N_3
REMARK    3  A    between atoms: C_8  and  C_9
REMARK    4  A    between atoms: N_11  and  C_12
REMARK    5  A    between atoms: C_12  and  C_13
REMARK    6  A    between atoms: C_18  and  O_19
REMARK    7  A    between atoms: O_19  and  C_20
REMARK                            x       y       z     vdW  Elec       q    Type
REMARK                         _______ _______ _______ _____ _____    ______ ____
ROOT
ATOM      1  C   UNL     1       2.199   4.206  17.937  0.00  0.00    +0.000 C 
ATOM      2  O   UNL     1       1.091   4.094  17.417  0.00  0.00    +0.000 OA
ATOM      3  N   UNL     1       3.206   3.374  17.521  0.00  0.00    +0.000 N 
ATOM      4  H   UNL     1       2.926   2.757  16.770  0.00  0.00    +0.000 HD
ENDROOT
BRANCH   1  10
ATOM      5  N   UNL     1       2.274   6.593  18.823  0.00  0.00    +0.000 N 
ATOM      6  C   UNL     1       1.865   7.245  19.970  0.00  0.00    +0.000 C 
ATOM      7  O   UNL     1       1.764   8.448  20.135  0.00  0.00    +0.000 OA
ATOM      8  C   UNL     1       1.619   6.210  21.046  0.00  0.00    +0.000 C 
ATOM      9  C   UNL     1       1.640   4.892  20.289  0.00  0.00    +0.000 C 
ATOM     10  C   UNL     1       2.507   5.192  19.077  0.00  0.00    +0.000 C 
BRANCH   5  12
ATOM     11  C   UNL     1       4.332   7.201  17.561  0.00  0.00    +0.000 C 
ATOM     12  C   UNL     1       2.812   7.272  17.648  0.00  0.00    +0.000 C 
ENDBRANCH   5  12
ENDBRANCH   1  10
BRANCH   3  13
ATOM     13  C   UNL     1       4.613   3.464  17.859  0.00  0.00    +0.000 C 
BRANCH  13  14
ATOM     14  C   UNL     1       5.483   3.997  16.760  0.00  0.00    +0.000 A 
ATOM     15  C   UNL     1       4.967   4.012  15.446  0.00  0.00    +0.000 A 
ATOM     16  C   UNL     1       5.732   4.456  14.369  0.00  0.00    +0.000 A 
ATOM     17  C   UNL     1       7.019   4.924  14.587  0.00  0.00    +0.000 A 
ATOM     18  C   UNL     1       7.538   4.940  15.881  0.00  0.00    +0.000 A 
ATOM     19  C   UNL     1       6.784   4.490  16.974  0.00  0.00    +0.000 A 
BRANCH  19  20
ATOM     20  O   UNL     1       7.502   4.460  18.141  0.00  0.00    +0.000 OA
ATOM     21  C   UNL     1       7.646   5.653  18.902  0.00  0.00    +0.000 C 
ENDBRANCH  19  20
ENDBRANCH  13  14
ENDBRANCH   3  13
TORSDOF 5
ENDMDL
MODEL 8
REMARK VINA RESULT:      -6.4      2.421      5.512
REMARK  Name = 
REMARK  7 active torsions:
REMARK  status: ('A' for Active; 'I' for Inactive)
REMARK    1  A    between atoms: C_1  and  C_2
REMARK    2  A    between atoms: C_2  and  N_3
REMARK    3  A    between atoms: C_8  and  C_9
REMARK    4  A    between atoms: N_11  and  C_12
REMARK    5  A    between atoms: C_12  and  C_13
REMARK    6  A    between atoms: C_18  and  O_19
REMARK    7  A    between atoms: O_19  and  C_20
REMARK                            x       y       z     vdW  Elec       q    Type
REMARK                         _______ _______ _______ _____ _____    ______ ____
ROOT
ATOM      1  C   UNL     1       3.883   4.139  17.634  0.00  0.00    +0.000 C 
ATOM      2  O   UNL     1       3.390   3.014  17.658  0.00  0.00    +0.000 OA
ATOM      3  N   UNL     1       3.044   5.222  17.584  0.00  0.00    +0.000 N 
ATOM      4  H   UNL     1       2.066   4.968  17.614  0.00  0.00    +0.000 HD
ENDROOT
BRANCH   1  10
ATOM      5  N   UNL     1       5.888   5.302  16.578  0.00  0.00    +0.000 N 
ATOM      6  C   UNL     1       6.980   6.016  17.031  0.00  0.00    +0.000 C 
ATOM      7  O   UNL     1       7.728   6.714  16.368  0.00  0.00    +0.000 OA
ATOM      8  C   UNL     1       7.153   5.739  18.508  0.00  0.00    +0.000 C 
ATOM      9  C   UNL     1       5.863   5.035  18.895  0.00  0.00    +0.000 C 
ATOM     10  C   UNL     1       5.398   4.402  17.594  0.00  0.00    +0.000 C 
BRANCH   5  12
ATOM     11  C   UNL     1       6.284   3.991  14.498  0.00  0.00    +0.000 C 
ATOM     12  C   UNL     1       5.546   5.145  15.167  0.00  0.00    +0.000 C 
ENDBRANCH   5  12
ENDBRANCH   1  10
BRANCH   3  13
ATOM     13  C   UNL     1       3.405   6.618  17.739  0.00  0.00    +0.000 C 
BRANCH  13  14
ATOM     14  C   UNL     1       2.531   7.383  18.688  0.00  0.00    +0.000 A 
ATOM     15  C   UNL     1       2.083   8.665  18.300  0.00  0.00    +0.000 A 
ATOM     16  C   UNL     1       1.301   9.449  19.146  0.00  0.00    +0.000 A 
ATOM     17  C   UNL     1       0.924   8.956  20.387  0.00  0.00    +0.000 A 
ATOM     18  C   UNL     1       1.336   7.682  20.778  0.00  0.00    +0.000 A 
ATOM     19  C   UNL     1       2.129   6.884  19.942  0.00  0.00    +0.000 A 
BRANCH  19  20
ATOM     20  O   UNL     1       2.541   5.725  20.545  0.00  0.00    +0.000 OA
ATOM     21  C   UNL     1       1.614   4.659  20.713  0.00  0.00    +0.000 C 
ENDBRANCH  19  20
ENDBRANCH  13  14
ENDBRANCH   3  13
TORSDOF 5
ENDMDL
MODEL 9
REMARK VINA RESULT:      -6.4      1.994      5.747
REMARK  Name = 
REMARK  7 active torsions:
REMARK  status: ('A' for Active; 'I' for Inactive)
REMARK    1  A    between atoms: C_1  and  C_2
REMARK    2  A    between atoms: C_2  and  N_3
REMARK    3  A    between atoms: C_8  and  C_9
REMARK    4  A    between atoms: N_11  and  C_12
REMARK    5  A    between atoms: C_12  and  C_13
REMARK    6  A    between atoms: C_18  and  O_19
REMARK    7  A    between atoms: O_19  and  C_20
REMARK                            x       y       z     vdW  Elec       q    Type
REMARK                         _______ _______ _______ _____ _____    ______ ____
ROOT
ATOM      1  C   UNL     1       3.699   6.515  17.645  0.00  0.00    +0.000 C 
ATOM      2  O   UNL     1       4.020   7.693  17.513  0.00  0.00    +0.000 OA
ATOM      3  N   UNL     1       2.374   6.213  17.826  0.00  0.00    +0.000 N 
ATOM      4  H   UNL     1       1.773   7.026  17.790  0.00  0.00    +0.000 HD
ENDROOT
BRANCH   1  10
ATOM      5  N   UNL     1       5.799   5.400  16.733  0.00  0.00    +0.000 N 
ATOM      6  C   UNL     1       6.944   4.840  17.268  0.00  0.00    +0.000 C 
ATOM      7  O   UNL     1       7.971   4.560  16.673  0.00  0.00    +0.000 OA
ATOM      8  C   UNL     1       6.697   4.555  18.733  0.00  0.00    +0.000 C 
ATOM      9  C   UNL     1       5.403   5.295  19.030  0.00  0.00    +0.000 C 
ATOM     10  C   UNL     1       4.710   5.357  17.679  0.00  0.00    +0.000 C 
BRANCH   5  12
ATOM     11  C   UNL     1       5.486   4.299  14.522  0.00  0.00    +0.000 C 
ATOM     12  C   UNL     1       5.583   5.604  15.304  0.00  0.00    +0.000 C 
ENDBRANCH   5  12
ENDBRANCH   1  10
BRANCH   3  13
ATOM     13  C   UNL     1       1.765   4.897  17.811  0.00  0.00    +0.000 C 
BRANCH  13  14
ATOM     14  C   UNL     1       1.915   4.128  19.090  0.00  0.00    +0.000 A 
ATOM     15  C   UNL     1       1.717   4.811  20.309  0.00  0.00    +0.000 A 
ATOM     16  C   UNL     1       1.878   4.171  21.536  0.00  0.00    +0.000 A 
ATOM     17  C   UNL     1       2.209   2.824  21.571  0.00  0.00    +0.000 A 
ATOM     18  C   UNL     1       2.385   2.126  20.376  0.00  0.00    +0.000 A 
ATOM     19  C   UNL     1       2.234   2.757  19.135  0.00  0.00    +0.000 A 
BRANCH  19  20
ATOM     20  O   UNL     1       2.571   1.948  18.081  0.00  0.00    +0.000 OA
ATOM     21  C   UNL     1       3.821   1.269  18.095  0.00  0.00    +0.000 C 
ENDBRANCH  19  20
ENDBRANCH  13  14
ENDBRANCH   3  13
TORSDOF 5
ENDMDL
