MODEL 1
REMARK VINA RESULT:      -8.5      0.000      0.000
REMARK  Name = 
REMARK  4 active torsions:
REMARK  status: ('A' for Active; 'I' for Inactive)
REMARK    1  A    between atoms: C_1  and  N_2
REMARK    2  A    between atoms: N_4  and  N_5
REMARK    3  A    between atoms: C_6  and  C_8
REMARK    4  A    between atoms: C_23  and  C_24
REMARK                            x       y       z     vdW  Elec       q    Type
REMARK                         _______ _______ _______ _____ _____    ______ ____
ROOT
ATOM      1  C   UNL     1       1.712  11.446  18.945  0.00  0.00    +0.000 C 
ATOM      2  N   UNL     1       0.949  10.930  20.072  0.00  0.00    +0.000 N 
ATOM      3  C   UNL     1       0.932   9.556  20.288  0.00  0.00    +0.000 A 
ATOM      4  N   UNL     1       1.552   8.720  19.523  0.00  0.00    +0.000 NA
ATOM      5  S   UNL     1      -0.022   9.140  21.716  0.00  0.00    +0.000 S 
ATOM      6  C   UNL     1      -0.399  10.879  21.977  0.00  0.00    +0.000 A 
ATOM      7  C   UNL     1      -1.190  11.369  23.005  0.00  0.00    +0.000 A 
ATOM      8  C   UNL     1      -1.399  12.740  23.076  0.00  0.00    +0.000 A 
ATOM      9  C   UNL     1      -0.816  13.566  22.120  0.00  0.00    +0.000 A 
ATOM     10  C   UNL     1      -0.010  13.086  21.051  0.00  0.00    +0.000 A 
ATOM     11  C   UNL     1       0.214  11.697  20.980  0.00  0.00    +0.000 A 
ENDROOT
BRANCH   4  12
ATOM     12  N   UNL     1       1.539   7.380  19.717  0.00  0.00    +0.000 N 
ATOM     13  C   UNL     1       2.367   6.620  18.899  0.00  0.00    +0.000 C 
ATOM     14  O   UNL     1       3.069   7.107  18.009  0.00  0.00    +0.000 OA
ATOM     15  H   UNL     1       0.900   6.990  20.401  0.00  0.00    +0.000 HD
BRANCH  13  16
ATOM     16  C   UNL     1       2.378   5.112  19.186  0.00  0.00    +0.000 C 
ATOM     17  C   UNL     1       1.492   4.755  20.402  0.00  0.00    +0.000 C 
ATOM     18  C   UNL     1       1.510   3.235  20.652  0.00  0.00    +0.000 C 
ATOM     19  C   UNL     1       0.969   2.508  19.412  0.00  0.00    +0.000 C 
ATOM     20  C   UNL     1       1.846   2.827  18.192  0.00  0.00    +0.000 C 
ATOM     21  C   UNL     1       3.289   2.377  18.467  0.00  0.00    +0.000 C 
ATOM     22  C   UNL     1       3.844   3.110  19.700  0.00  0.00    +0.000 C 
ATOM     23  C   UNL     1       2.958   2.786  20.916  0.00  0.00    +0.000 C 
ATOM     24  C   UNL     1       3.823   4.629  19.451  0.00  0.00    +0.000 C 
ATOM     25  C   UNL     1       1.834   4.344  17.949  0.00  0.00    +0.000 C 
ENDBRANCH  13  16
ENDBRANCH   4  12
BRANCH  10  26
ATOM     26  C   UNL     1       0.549  14.173  20.157  0.00  0.00    +0.000 C 
ATOM     27  F   UNL     1       0.143  15.422  20.554  0.00  0.00    +0.000 F 
ATOM     28  F   UNL     1       1.905  14.232  20.174  0.00  0.00    +0.000 F 
ATOM     29  F   UNL     1       0.185  14.100  18.848  0.00  0.00    +0.000 F 
ENDBRANCH  10  26
TORSDOF 3
ENDMDL
MODEL 2
REMARK VINA RESULT:      -8.4      0.277      1.436
REMARK  Name = 
REMARK  4 active torsions:
REMARK  status: ('A' for Active; 'I' for Inactive)
REMARK    1  A    between atoms: C_1  and  N_2
REMARK    2  A    between atoms: N_4  and  N_5
REMARK    3  A    between atoms: C_6  and  C_8
REMARK    4  A    between atoms: C_23  and  C_24
REMARK                            x       y       z     vdW  Elec       q    Type
REMARK                         _______ _______ _______ _____ _____    ______ ____
ROOT
ATOM      1  C   UNL     1       1.834  11.431  18.649  0.00  0.00    +0.000 C 
ATOM      2  N   UNL     1       1.085  10.960  19.805  0.00  0.00    +0.000 N 
ATOM      3  C   UNL     1       1.031   9.591  20.047  0.00  0.00    +0.000 A 
ATOM      4  N   UNL     1       1.604   8.723  19.282  0.00  0.00    +0.000 NA
ATOM      5  S   UNL     1       0.103   9.231  21.507  0.00  0.00    +0.000 S 
ATOM      6  C   UNL     1      -0.213  10.985  21.745  0.00  0.00    +0.000 A 
ATOM      7  C   UNL     1      -0.960  11.519  22.784  0.00  0.00    +0.000 A 
ATOM      8  C   UNL     1      -1.124  12.896  22.835  0.00  0.00    +0.000 A 
ATOM      9  C   UNL     1      -0.541  13.686  21.849  0.00  0.00    +0.000 A 
ATOM     10  C   UNL     1       0.221  13.162  20.770  0.00  0.00    +0.000 A 
ATOM     11  C   UNL     1       0.399  11.765  20.717  0.00  0.00    +0.000 A 
ENDROOT
BRANCH   4  12
ATOM     12  N   UNL     1       1.554   7.387  19.501  0.00  0.00    +0.000 N 
ATOM     13  C   UNL     1       2.439   6.599  18.773  0.00  0.00    +0.000 C 
ATOM     14  O   UNL     1       3.223   7.058  17.938  0.00  0.00    +0.000 OA
ATOM     15  H   UNL     1       0.852   7.020  20.133  0.00  0.00    +0.000 HD
BRANCH  13  16
ATOM     16  C   UNL     1       2.403   5.097  19.091  0.00  0.00    +0.000 C 
ATOM     17  C   UNL     1       3.803   4.558  19.465  0.00  0.00    +0.000 C 
ATOM     18  C   UNL     1       3.729   3.056  19.795  0.00  0.00    +0.000 C 
ATOM     19  C   UNL     1       2.778   2.840  20.983  0.00  0.00    +0.000 C 
ATOM     20  C   UNL     1       1.372   3.347  20.628  0.00  0.00    +0.000 C 
ATOM     21  C   UNL     1       0.848   2.585  19.401  0.00  0.00    +0.000 C 
ATOM     22  C   UNL     1       1.787   2.806  18.203  0.00  0.00    +0.000 C 
ATOM     23  C   UNL     1       3.192   2.297  18.568  0.00  0.00    +0.000 C 
ATOM     24  C   UNL     1       1.862   4.308  17.877  0.00  0.00    +0.000 C 
ATOM     25  C   UNL     1       1.449   4.843  20.292  0.00  0.00    +0.000 C 
ENDBRANCH  13  16
ENDBRANCH   4  12
BRANCH  10  26
ATOM     26  C   UNL     1       0.790  14.215  19.841  0.00  0.00    +0.000 C 
ATOM     27  F   UNL     1       0.408  15.481  20.208  0.00  0.00    +0.000 F 
ATOM     28  F   UNL     1       2.147  14.251  19.844  0.00  0.00    +0.000 F 
ATOM     29  F   UNL     1       0.412  14.113  18.538  0.00  0.00    +0.000 F 
ENDBRANCH  10  26
TORSDOF 3
ENDMDL
MODEL 3
REMARK VINA RESULT:      -8.4      0.121      1.466
REMARK  Name = 
REMARK  4 active torsions:
REMARK  status: ('A' for Active; 'I' for Inactive)
REMARK    1  A    between atoms: C_1  and  N_2
REMARK    2  A    between atoms: N_4  and  N_5
REMARK    3  A    between atoms: C_6  and  C_8
REMARK    4  A    between atoms: C_23  and  C_24
REMARK                            x       y       z     vdW  Elec       q    Type
REMARK                         _______ _______ _______ _____ _____    ______ ____
ROOT
ATOM      1  C   UNL     1       1.758  11.454  19.006  0.00  0.00    +0.000 C 
ATOM      2  N   UNL     1       0.975  10.912  20.107  0.00  0.00    +0.000 N 
ATOM      3  C   UNL     1       0.957   9.534  20.292  0.00  0.00    +0.000 A 
ATOM      4  N   UNL     1       1.592   8.716  19.521  0.00  0.00    +0.000 NA
ATOM      5  S   UNL     1      -0.024   9.085  21.693  0.00  0.00    +0.000 S 
ATOM      6  C   UNL     1      -0.409  10.817  21.984  0.00  0.00    +0.000 A 
ATOM      7  C   UNL     1      -1.220  11.284  23.008  0.00  0.00    +0.000 A 
ATOM      8  C   UNL     1      -1.433  12.652  23.105  0.00  0.00    +0.000 A 
ATOM      9  C   UNL     1      -0.833  13.499  22.179  0.00  0.00    +0.000 A 
ATOM     10  C   UNL     1      -0.006  13.044  21.116  0.00  0.00    +0.000 A 
ATOM     11  C   UNL     1       0.222  11.657  21.017  0.00  0.00    +0.000 A 
ENDROOT
BRANCH   4  12
ATOM     12  N   UNL     1       1.578   7.371  19.686  0.00  0.00    +0.000 N 
ATOM     13  C   UNL     1       2.351   6.624  18.804  0.00  0.00    +0.000 C 
ATOM     14  O   UNL     1       3.005   7.126  17.887  0.00  0.00    +0.000 OA
ATOM     15  H   UNL     1       0.975   6.970  20.395  0.00  0.00    +0.000 HD
BRANCH  13  16
ATOM     16  C   UNL     1       2.364   5.109  19.056  0.00  0.00    +0.000 C 
ATOM     17  C   UNL     1       1.969   4.316  17.789  0.00  0.00    +0.000 C 
ATOM     18  C   UNL     1       2.010   2.802  18.070  0.00  0.00    +0.000 C 
ATOM     19  C   UNL     1       3.433   2.398  18.486  0.00  0.00    +0.000 C 
ATOM     20  C   UNL     1       3.843   3.157  19.757  0.00  0.00    +0.000 C 
ATOM     21  C   UNL     1       2.859   2.825  20.890  0.00  0.00    +0.000 C 
ATOM     22  C   UNL     1       1.433   3.238  20.487  0.00  0.00    +0.000 C 
ATOM     23  C   UNL     1       1.033   2.475  19.212  0.00  0.00    +0.000 C 
ATOM     24  C   UNL     1       1.394   4.750  20.204  0.00  0.00    +0.000 C 
ATOM     25  C   UNL     1       3.793   4.666  19.479  0.00  0.00    +0.000 C 
ENDBRANCH  13  16
ENDBRANCH   4  12
BRANCH  10  26
ATOM     26  C   UNL     1       0.568  14.152  20.256  0.00  0.00    +0.000 C 
ATOM     27  F   UNL     1       0.147  15.391  20.670  0.00  0.00    +0.000 F 
ATOM     28  F   UNL     1       1.923  14.216  20.304  0.00  0.00    +0.000 F 
ATOM     29  F   UNL     1       0.233  14.105  18.938  0.00  0.00    +0.000 F 
ENDBRANCH  10  26
TORSDOF 3
ENDMDL
MODEL 4
REMARK VINA RESULT:      -8.3      4.544      9.274
REMARK  Name = 
REMARK  4 active torsions:
REMARK  status: ('A' for Active; 'I' for Inactive)
REMARK    1  A    between atoms: C_1  and  N_2
REMARK    2  A    between atoms: N_4  and  N_5
REMARK    3  A    between atoms: C_6  and  C_8
REMARK    4  A    between atoms: C_23  and  C_24
REMARK                            x       y       z     vdW  Elec       q    Type
REMARK                         _______ _______ _______ _____ _____    ______ ____
ROOT
ATOM      1  C   UNL     1       2.041   4.740  20.935  0.00  0.00    +0.000 C 
ATOM      2  N   UNL     1       2.556   5.453  19.774  0.00  0.00    +0.000 N 
ATOM      3  C   UNL     1       2.260   6.806  19.643  0.00  0.00    +0.000 A 
ATOM      4  N   UNL     1       1.538   7.451  20.498  0.00  0.00    +0.000 NA
ATOM      5  S   UNL     1       2.999   7.488  18.189  0.00  0.00    +0.000 S 
ATOM      6  C   UNL     1       3.687   5.879  17.778  0.00  0.00    +0.000 A 
ATOM      7  C   UNL     1       4.454   5.613  16.653  0.00  0.00    +0.000 A 
ATOM      8  C   UNL     1       4.913   4.317  16.464  0.00  0.00    +0.000 A 
ATOM      9  C   UNL     1       4.588   3.338  17.398  0.00  0.00    +0.000 A 
ATOM     10  C   UNL     1       3.796   3.584  18.552  0.00  0.00    +0.000 A 
ATOM     11  C   UNL     1       3.335   4.900  18.755  0.00  0.00    +0.000 A 
ENDROOT
BRANCH   4  12
ATOM     12  N   UNL     1       1.237   8.766  20.378  0.00  0.00    +0.000 N 
ATOM     13  C   UNL     1       0.121   9.219  21.073  0.00  0.00    +0.000 C 
ATOM     14  O   UNL     1      -0.600   8.479  21.748  0.00  0.00    +0.000 OA
ATOM     15  H   UNL     1       1.794   9.343  19.758  0.00  0.00    +0.000 HD
BRANCH  13  16
ATOM     16  C   UNL     1      -0.158  10.725  20.970  0.00  0.00    +0.000 C 
ATOM     17  C   UNL     1       1.136  11.528  20.702  0.00  0.00    +0.000 C 
ATOM     18  C   UNL     1       0.821  13.031  20.586  0.00  0.00    +0.000 C 
ATOM     19  C   UNL     1      -0.156  13.259  19.422  0.00  0.00    +0.000 C 
ATOM     20  C   UNL     1      -1.461  12.489  19.674  0.00  0.00    +0.000 C 
ATOM     21  C   UNL     1      -2.096  12.975  20.985  0.00  0.00    +0.000 C 
ATOM     22  C   UNL     1      -1.131  12.739  22.158  0.00  0.00    +0.000 C 
ATOM     23  C   UNL     1       0.174  13.512  21.896  0.00  0.00    +0.000 C 
ATOM     24  C   UNL     1      -0.814  11.237  22.272  0.00  0.00    +0.000 C 
ATOM     25  C   UNL     1      -1.144  10.991  19.798  0.00  0.00    +0.000 C 
ENDBRANCH  13  16
ENDBRANCH   4  12
BRANCH  10  26
ATOM     26  C   UNL     1       3.605   2.375  19.445  0.00  0.00    +0.000 C 
ATOM     27  F   UNL     1       4.117   1.234  18.879  0.00  0.00    +0.000 F 
ATOM     28  F   UNL     1       4.249   2.486  20.635  0.00  0.00    +0.000 F 
ATOM     29  F   UNL     1       2.315   2.058  19.735  0.00  0.00    +0.000 F 
ENDBRANCH  10  26
TORSDOF 3
ENDMDL
MODEL 5
REMARK VINA RESULT:      -8.2      4.549      9.267
REMARK  Name = 
REMARK  4 active torsions:
REMARK  status: ('A' for Active; 'I' for Inactive)
REMARK    1  A    between atoms: C_1  and  N_2
REMARK    2  A    between atoms: N_4  and  N_5
REMARK    3  A    between atoms: C_6  and  C_8
REMARK    4  A    between atoms: C_23  and  C_24
REMARK                            x       y       z     vdW  Elec       q    Type
REMARK                         _______ _______ _______ _____ _____    ______ ____
ROOT
ATOM      1  C   UNL     1       2.072   4.726  20.968  0.00  0.00    +0.000 C 
ATOM      2  N   UNL     1       2.568   5.434  19.796  0.00  0.00    +0.000 N 
ATOM      3  C   UNL     1       2.265   6.786  19.661  0.00  0.00    +0.000 A 
ATOM      4  N   UNL     1       1.552   7.432  20.523  0.00  0.00    +0.000 NA
ATOM      5  S   UNL     1       2.981   7.462  18.194  0.00  0.00    +0.000 S 
ATOM      6  C   UNL     1       3.670   5.854  17.782  0.00  0.00    +0.000 A 
ATOM      7  C   UNL     1       4.423   5.584  16.649  0.00  0.00    +0.000 A 
ATOM      8  C   UNL     1       4.884   4.289  16.460  0.00  0.00    +0.000 A 
ATOM      9  C   UNL     1       4.576   3.314  17.404  0.00  0.00    +0.000 A 
ATOM     10  C   UNL     1       3.799   3.563  18.567  0.00  0.00    +0.000 A 
ATOM     11  C   UNL     1       3.335   4.879  18.770  0.00  0.00    +0.000 A 
ENDROOT
BRANCH   4  12
ATOM     12  N   UNL     1       1.244   8.745  20.400  0.00  0.00    +0.000 N 
ATOM     13  C   UNL     1       0.087   9.179  21.037  0.00  0.00    +0.000 C 
ATOM     14  O   UNL     1      -0.662   8.425  21.665  0.00  0.00    +0.000 OA
ATOM     15  H   UNL     1       1.828   9.334  19.818  0.00  0.00    +0.000 HD
BRANCH  13  16
ATOM     16  C   UNL     1      -0.201  10.684  20.934  0.00  0.00    +0.000 C 
ATOM     17  C   UNL     1      -0.875  11.226  22.216  0.00  0.00    +0.000 C 
ATOM     18  C   UNL     1      -1.133  12.738  22.088  0.00  0.00    +0.000 C 
ATOM     19  C   UNL     1       0.202  13.469  21.880  0.00  0.00    +0.000 C 
ATOM     20  C   UNL     1       0.883  12.964  20.599  0.00  0.00    +0.000 C 
ATOM     21  C   UNL     1      -0.038  13.220  19.396  0.00  0.00    +0.000 C 
ATOM     22  C   UNL     1      -1.374  12.482  19.589  0.00  0.00    +0.000 C 
ATOM     23  C   UNL     1      -2.046  12.992  20.876  0.00  0.00    +0.000 C 
ATOM     24  C   UNL     1      -1.114  10.971  19.720  0.00  0.00    +0.000 C 
ATOM     25  C   UNL     1       1.133  11.454  20.725  0.00  0.00    +0.000 C 
ENDBRANCH  13  16
ENDBRANCH   4  12
BRANCH  10  26
ATOM     26  C   UNL     1       3.625   2.359  19.470  0.00  0.00    +0.000 C 
ATOM     27  F   UNL     1       4.129   1.216  18.901  0.00  0.00    +0.000 F 
ATOM     28  F   UNL     1       4.289   2.477  20.648  0.00  0.00    +0.000 F 
ATOM     29  F   UNL     1       2.341   2.042  19.784  0.00  0.00    +0.000 F 
ENDBRANCH  10  26
TORSDOF 3
ENDMDL
MODEL 6
REMARK VINA RESULT:      -8.2      2.268      3.009
REMARK  Name = 
REMARK  4 active torsions:
REMARK  status: ('A' for Active; 'I' for Inactive)
REMARK    1  A    between atoms: C_1  and  N_2
REMARK    2  A    between atoms: N_4  and  N_5
REMARK    3  A    between atoms: C_6  and  C_8
REMARK    4  A    between atoms: C_23  and  C_24
REMARK                            x       y       z     vdW  Elec       q    Type
REMARK                         _______ _______ _______ _____ _____    ______ ____
ROOT
ATOM      1  C   UNL     1      -0.009   9.596  22.932  0.00  0.00    +0.000 C 
ATOM      2  N   UNL     1       0.119   9.857  21.505  0.00  0.00    +0.000 N 
ATOM      3  C   UNL     1       0.901   8.997  20.742  0.00  0.00    +0.000 A 
ATOM      4  N   UNL     1       1.530   7.988  21.247  0.00  0.00    +0.000 NA
ATOM      5  S   UNL     1       0.902   9.468  19.038  0.00  0.00    +0.000 S 
ATOM      6  C   UNL     1      -0.167  10.863  19.418  0.00  0.00    +0.000 A 
ATOM      7  C   UNL     1      -0.624  11.784  18.488  0.00  0.00    +0.000 A 
ATOM      8  C   UNL     1      -1.440  12.816  18.931  0.00  0.00    +0.000 A 
ATOM      9  C   UNL     1      -1.766  12.891  20.282  0.00  0.00    +0.000 A 
ATOM     10  C   UNL     1      -1.302  11.965  21.256  0.00  0.00    +0.000 A 
ATOM     11  C   UNL     1      -0.481  10.910  20.811  0.00  0.00    +0.000 A 
ENDROOT
BRANCH   4  12
ATOM     12  N   UNL     1       2.301   7.147  20.517  0.00  0.00    +0.000 N 
ATOM     13  C   UNL     1       1.839   5.844  20.368  0.00  0.00    +0.000 C 
ATOM     14  O   UNL     1       0.799   5.433  20.889  0.00  0.00    +0.000 OA
ATOM     15  H   UNL     1       3.190   7.481  20.162  0.00  0.00    +0.000 HD
BRANCH  13  16
ATOM     16  C   UNL     1       2.701   4.933  19.483  0.00  0.00    +0.000 C 
ATOM     17  C   UNL     1       2.869   3.526  20.102  0.00  0.00    +0.000 C 
ATOM     18  C   UNL     1       3.722   2.633  19.183  0.00  0.00    +0.000 C 
ATOM     19  C   UNL     1       3.029   2.497  17.818  0.00  0.00    +0.000 C 
ATOM     20  C   UNL     1       2.871   3.880  17.170  0.00  0.00    +0.000 C 
ATOM     21  C   UNL     1       4.255   4.520  16.986  0.00  0.00    +0.000 C 
ATOM     22  C   UNL     1       4.951   4.672  18.348  0.00  0.00    +0.000 C 
ATOM     23  C   UNL     1       5.103   3.283  18.991  0.00  0.00    +0.000 C 
ATOM     24  C   UNL     1       4.097   5.563  19.268  0.00  0.00    +0.000 C 
ATOM     25  C   UNL     1       2.027   4.773  18.092  0.00  0.00    +0.000 C 
ENDBRANCH  13  16
ENDBRANCH   4  12
BRANCH  10  26
ATOM     26  C   UNL     1      -1.818  12.225  22.656  0.00  0.00    +0.000 C 
ATOM     27  F   UNL     1      -0.839  12.725  23.478  0.00  0.00    +0.000 F 
ATOM     28  F   UNL     1      -2.807  13.155  22.696  0.00  0.00    +0.000 F 
ATOM     29  F   UNL     1      -2.290  11.135  23.318  0.00  0.00    +0.000 F 
ENDBRANCH  10  26
TORSDOF 3
ENDMDL
MODEL 7
REMARK VINA RESULT:      -8.2      2.276      3.187
REMARK  Name = 
REMARK  4 active torsions:
REMARK  status: ('A' for Active; 'I' for Inactive)
REMARK    1  A    between atoms: C_1  and  N_2
REMARK    2  A    between atoms: N_4  and  N_5
REMARK    3  A    between atoms: C_6  and  C_8
REMARK    4  A    between atoms: C_23  and  C_24
REMARK                            x       y       z     vdW  Elec       q    Type
REMARK                         _______ _______ _______ _____ _____    ______ ____
ROOT
ATOM      1  C   UNL     1      -0.060   9.568  22.814  0.00  0.00    +0.000 C 
ATOM      2  N   UNL     1       0.119   9.920  21.413  0.00  0.00    +0.000 N 
ATOM      3  C   UNL     1       0.913   9.098  20.619  0.00  0.00    +0.000 A 
ATOM      4  N   UNL     1       1.507   8.047  21.077  0.00  0.00    +0.000 NA
ATOM      5  S   UNL     1       0.978   9.680  18.952  0.00  0.00    +0.000 S 
ATOM      6  C   UNL     1      -0.080  11.067  19.389  0.00  0.00    +0.000 A 
ATOM      7  C   UNL     1      -0.490  12.055  18.508  0.00  0.00    +0.000 A 
ATOM      8  C   UNL     1      -1.304  13.070  18.992  0.00  0.00    +0.000 A 
ATOM      9  C   UNL     1      -1.674  13.062  20.334  0.00  0.00    +0.000 A 
ATOM     10  C   UNL     1      -1.258  12.066  21.258  0.00  0.00    +0.000 A 
ATOM     11  C   UNL     1      -0.440  11.028  20.771  0.00  0.00    +0.000 A 
ENDROOT
BRANCH   4  12
ATOM     12  N   UNL     1       2.288   7.242  20.317  0.00  0.00    +0.000 N 
ATOM     13  C   UNL     1       1.909   5.907  20.224  0.00  0.00    +0.000 C 
ATOM     14  O   UNL     1       0.933   5.440  20.817  0.00  0.00    +0.000 OA
ATOM     15  H   UNL     1       3.129   7.625  19.900  0.00  0.00    +0.000 HD
BRANCH  13  16
ATOM     16  C   UNL     1       2.776   5.035  19.306  0.00  0.00    +0.000 C 
ATOM     17  C   UNL     1       1.967   4.485  18.109  0.00  0.00    +0.000 C 
ATOM     18  C   UNL     1       2.868   3.631  17.198  0.00  0.00    +0.000 C 
ATOM     19  C   UNL     1       4.021   4.495  16.665  0.00  0.00    +0.000 C 
ATOM     20  C   UNL     1       4.856   5.036  17.835  0.00  0.00    +0.000 C 
ATOM     21  C   UNL     1       5.424   3.861  18.645  0.00  0.00    +0.000 C 
ATOM     22  C   UNL     1       4.276   2.996  19.194  0.00  0.00    +0.000 C 
ATOM     23  C   UNL     1       3.445   2.461  18.016  0.00  0.00    +0.000 C 
ATOM     24  C   UNL     1       3.374   3.852  20.101  0.00  0.00    +0.000 C 
ATOM     25  C   UNL     1       3.954   5.881  18.746  0.00  0.00    +0.000 C 
ENDBRANCH  13  16
ENDBRANCH   4  12
BRANCH  10  26
ATOM     26  C   UNL     1      -1.816  12.242  22.656  0.00  0.00    +0.000 C 
ATOM     27  F   UNL     1      -2.875  13.116  22.677  0.00  0.00    +0.000 F 
ATOM     28  F   UNL     1      -2.310  11.092  23.181  0.00  0.00    +0.000 F 
ATOM     29  F   UNL     1      -0.947  12.742  23.575  0.00  0.00    +0.000 F 
ENDBRANCH  10  26
TORSDOF 3
ENDMDL
MODEL 8
REMARK VINA RESULT:      -8.2      4.533      9.277
REMARK  Name = 
REMARK  4 active torsions:
REMARK  status: ('A' for Active; 'I' for Inactive)
REMARK    1  A    between atoms: C_1  and  N_2
REMARK    2  A    between atoms: N_4  and  N_5
REMARK    3  A    between atoms: C_6  and  C_8
REMARK    4  A    between atoms: C_23  and  C_24
REMARK                            x       y       z     vdW  Elec       q    Type
REMARK                         _______ _______ _______ _____ _____    ______ ____
ROOT
ATOM      1  C   UNL     1       1.995   4.766  20.920  0.00  0.00    +0.000 C 
ATOM      2  N   UNL     1       2.516   5.473  19.759  0.00  0.00    +0.000 N 
ATOM      3  C   UNL     1       2.220   6.825  19.618  0.00  0.00    +0.000 A 
ATOM      4  N   UNL     1       1.491   7.473  20.464  0.00  0.00    +0.000 NA
ATOM      5  S   UNL     1       2.967   7.499  18.165  0.00  0.00    +0.000 S 
ATOM      6  C   UNL     1       3.661   5.889  17.768  0.00  0.00    +0.000 A 
ATOM      7  C   UNL     1       4.436   5.617  16.651  0.00  0.00    +0.000 A 
ATOM      8  C   UNL     1       4.898   4.321  16.472  0.00  0.00    +0.000 A 
ATOM      9  C   UNL     1       4.568   3.347  17.409  0.00  0.00    +0.000 A 
ATOM     10  C   UNL     1       3.768   3.599  18.556  0.00  0.00    +0.000 A 
ATOM     11  C   UNL     1       3.303   4.915  18.749  0.00  0.00    +0.000 A 
ENDROOT
BRANCH   4  12
ATOM     12  N   UNL     1       1.188   8.787  20.335  0.00  0.00    +0.000 N 
ATOM     13  C   UNL     1       0.081   9.248  21.039  0.00  0.00    +0.000 C 
ATOM     14  O   UNL     1      -0.631   8.515  21.731  0.00  0.00    +0.000 OA
ATOM     15  H   UNL     1       1.738   9.357  19.702  0.00  0.00    +0.000 HD
BRANCH  13  16
ATOM     16  C   UNL     1      -0.198  10.753  20.923  0.00  0.00    +0.000 C 
ATOM     17  C   UNL     1      -1.149  11.069  19.745  0.00  0.00    +0.000 C 
ATOM     18  C   UNL     1      -1.423  12.582  19.669  0.00  0.00    +0.000 C 
ATOM     19  C   UNL     1      -2.079  13.049  20.977  0.00  0.00    +0.000 C 
ATOM     20  C   UNL     1      -1.145  12.767  22.163  0.00  0.00    +0.000 C 
ATOM     21  C   UNL     1       0.183  13.512  21.956  0.00  0.00    +0.000 C 
ATOM     22  C   UNL     1       0.854  13.041  20.654  0.00  0.00    +0.000 C 
ATOM     23  C   UNL     1      -0.090  13.326  19.473  0.00  0.00    +0.000 C 
ATOM     24  C   UNL     1       1.125  11.528  20.731  0.00  0.00    +0.000 C 
ATOM     25  C   UNL     1      -0.865  11.259  22.233  0.00  0.00    +0.000 C 
ENDBRANCH  13  16
ENDBRANCH   4  12
BRANCH  10  26
ATOM     26  C   UNL     1       3.573   2.395  19.455  0.00  0.00    +0.000 C 
ATOM     27  F   UNL     1       4.072   1.248  18.890  0.00  0.00    +0.000 F 
ATOM     28  F   UNL     1       4.225   2.505  20.641  0.00  0.00    +0.000 F 
ATOM     29  F   UNL     1       2.282   2.089  19.754  0.00  0.00    +0.000 F 
ENDBRANCH  10  26
TORSDOF 3
ENDMDL
MODEL 9
REMARK VINA RESULT:      -8.2      2.183      3.199
REMARK  Name = 
REMARK  4 active torsions:
REMARK  status: ('A' for Active; 'I' for Inactive)
REMARK    1  A    between atoms: C_1  and  N_2
REMARK    2  A    between atoms: N_4  and  N_5
REMARK    3  A    between atoms: C_6  and  C_8
REMARK    4  A    between atoms: C_23  and  C_24
REMARK                            x       y       z     vdW  Elec       q    Type
REMARK                         _______ _______ _______ _____ _____    ______ ____
ROOT
ATOM      1  C   UNL     1      -0.081   9.613  22.835  0.00  0.00    +0.000 C 
ATOM      2  N   UNL     1       0.150   9.925  21.432  0.00  0.00    +0.000 N 
ATOM      3  C   UNL     1       0.927   9.051  20.678  0.00  0.00    +0.000 A 
ATOM      4  N   UNL     1       1.462   7.985  21.174  0.00  0.00    +0.000 NA
ATOM      5  S   UNL     1       1.061   9.592  19.001  0.00  0.00    +0.000 S 
ATOM      6  C   UNL     1       0.055  11.033  19.381  0.00  0.00    +0.000 A 
ATOM      7  C   UNL     1      -0.288  12.019  18.468  0.00  0.00    +0.000 A 
ATOM      8  C   UNL     1      -1.067  13.079  18.908  0.00  0.00    +0.000 A 
ATOM      9  C   UNL     1      -1.472  13.118  20.239  0.00  0.00    +0.000 A 
ATOM     10  C   UNL     1      -1.125  12.125  21.195  0.00  0.00    +0.000 A 
ATOM     11  C   UNL     1      -0.342  11.041  20.752  0.00  0.00    +0.000 A 
ENDROOT
BRANCH   4  12
ATOM     12  N   UNL     1       2.225   7.129  20.453  0.00  0.00    +0.000 N 
ATOM     13  C   UNL     1       1.755   5.828  20.322  0.00  0.00    +0.000 C 
ATOM     14  O   UNL     1       0.712   5.431  20.849  0.00  0.00    +0.000 OA
ATOM     15  H   UNL     1       3.116   7.452  20.093  0.00  0.00    +0.000 HD
BRANCH  13  16
ATOM     16  C   UNL     1       2.609   4.900  19.447  0.00  0.00    +0.000 C 
ATOM     17  C   UNL     1       4.070   5.396  19.344  0.00  0.00    +0.000 C 
ATOM     18  C   UNL     1       4.903   4.435  18.476  0.00  0.00    +0.000 C 
ATOM     19  C   UNL     1       4.897   3.037  19.112  0.00  0.00    +0.000 C 
ATOM     20  C   UNL     1       3.457   2.510  19.206  0.00  0.00    +0.000 C 
ATOM     21  C   UNL     1       2.845   2.440  17.798  0.00  0.00    +0.000 C 
ATOM     22  C   UNL     1       2.836   3.838  17.158  0.00  0.00    +0.000 C 
ATOM     23  C   UNL     1       4.281   4.358  17.070  0.00  0.00    +0.000 C 
ATOM     24  C   UNL     1       2.005   4.799  18.027  0.00  0.00    +0.000 C 
ATOM     25  C   UNL     1       2.625   3.473  20.065  0.00  0.00    +0.000 C 
ENDBRANCH  13  16
ENDBRANCH   4  12
BRANCH  10  26
ATOM     26  C   UNL     1      -1.711  12.357  22.573  0.00  0.00    +0.000 C 
ATOM     27  F   UNL     1      -2.684  13.325  22.559  0.00  0.00    +0.000 F 
ATOM     28  F   UNL     1      -2.327  11.260  23.081  0.00  0.00    +0.000 F 
ATOM     29  F   UNL     1      -0.831  12.777  23.521  0.00  0.00    +0.000 F 
ENDBRANCH  10  26
TORSDOF 3
ENDMDL
