MODEL 1
REMARK VINA RESULT:      -7.4      0.000      0.000
REMARK  Name = 
REMARK  7 active torsions:
REMARK  status: ('A' for Active; 'I' for Inactive)
REMARK    1  A    between atoms: C_1  and  O_2
REMARK    2  A    between atoms: O_2  and  C_3
REMARK    3  A    between atoms: C_9  and  C_10
REMARK    4  A    between atoms: C_10  and  C_12
REMARK    5  A    between atoms: C_12  and  S_13
REMARK    6  A    between atoms: S_13  and  C_14
REMARK    7  A    between atoms: C_19  and  N_20
REMARK                            x       y       z     vdW  Elec       q    Type
REMARK                         _______ _______ _______ _____ _____    ______ ____
ROOT
ATOM      1  S   UNL     1       5.610   4.423  16.206  0.00  0.00    +0.000 S 
ENDROOT
BRANCH   1   2
ATOM      2  C   UNL     1       6.606   5.490  17.214  0.00  0.00    +0.000 A 
ATOM      3  N   UNL     1       7.106   4.948  18.337  0.00  0.00    +0.000 NA
ATOM      4  C   UNL     1       7.867   5.736  19.098  0.00  0.00    +0.000 A 
ATOM      5  N   UNL     1       8.331   5.202  20.300  0.00  0.00    +0.000 N 
ATOM      6  C   UNL     1       8.133   7.044  18.772  0.00  0.00    +0.000 A 
ATOM      7  C   UNL     1       7.577   7.511  17.603  0.00  0.00    +0.000 A 
ATOM      8  N   UNL     1       6.816   6.753  16.807  0.00  0.00    +0.000 NA
ATOM      9  H   UNL     1       8.087   4.213  20.314  0.00  0.00    +0.000 HD
ATOM     10  H   UNL     1       9.323   5.353  20.440  0.00  0.00    +0.000 HD
BRANCH   7  11
ATOM     11  N   UNL     1       7.846   8.810  17.173  0.00  0.00    +0.000 N 
ATOM     12  H   UNL     1       7.827   9.484  17.931  0.00  0.00    +0.000 HD
ATOM     13  H   UNL     1       7.197   9.042  16.427  0.00  0.00    +0.000 HD
ENDBRANCH   7  11
ENDBRANCH   1   2
BRANCH   1  14
ATOM     14  C   UNL     1       4.748   3.465  17.502  0.00  0.00    +0.000 C 
BRANCH  14  15
ATOM     15  C   UNL     1       3.268   3.827  17.571  0.00  0.00    +0.000 C 
ATOM     16  O   UNL     1       2.413   3.270  16.882  0.00  0.00    +0.000 OA
BRANCH  15  23
ATOM     17  C   UNL     1       2.369   4.699  19.844  0.00  0.00    +0.000 A 
ATOM     18  C   UNL     1       1.959   5.802  20.617  0.00  0.00    +0.000 A 
ATOM     19  C   UNL     1       1.938   7.089  20.079  0.00  0.00    +0.000 A 
ATOM     20  C   UNL     1       2.337   7.290  18.766  0.00  0.00    +0.000 A 
ATOM     21 CL   UNL     1       2.311   8.877  18.103  0.00  0.00    +0.000 Cl
ATOM     22  C   UNL     1       2.764   6.217  17.994  0.00  0.00    +0.000 A 
ATOM     23  C   UNL     1       2.792   4.904  18.517  0.00  0.00    +0.000 A 
BRANCH  17  25
ATOM     24  C   UNL     1       1.513   3.145  21.431  0.00  0.00    +0.000 C 
ATOM     25  O   UNL     1       2.408   3.431  20.360  0.00  0.00    +0.000 OA
ENDBRANCH  17  25
ENDBRANCH  15  23
ENDBRANCH  14  15
ENDBRANCH   1  14
TORSDOF 6
ENDMDL
MODEL 2
REMARK VINA RESULT:      -7.4      0.116      1.808
REMARK  Name = 
REMARK  7 active torsions:
REMARK  status: ('A' for Active; 'I' for Inactive)
REMARK    1  A    between atoms: C_1  and  O_2
REMARK    2  A    between atoms: O_2  and  C_3
REMARK    3  A    between atoms: C_9  and  C_10
REMARK    4  A    between atoms: C_10  and  C_12
REMARK    5  A    between atoms: C_12  and  S_13
REMARK    6  A    between atoms: S_13  and  C_14
REMARK    7  A    between atoms: C_19  and  N_20
REMARK                            x       y       z     vdW  Elec       q    Type
REMARK                         _______ _______ _______ _____ _____    ______ ____
ROOT
ATOM      1  S   UNL     1       5.508   4.688  16.132  0.00  0.00    +0.000 S 
ENDROOT
BRANCH   1   2
ATOM      2  C   UNL     1       6.573   5.621  17.202  0.00  0.00    +0.000 A 
ATOM      3  N   UNL     1       6.828   6.885  16.827  0.00  0.00    +0.000 NA
ATOM      4  C   UNL     1       7.617   7.602  17.629  0.00  0.00    +0.000 A 
ATOM      5  N   UNL     1       7.943   8.893  17.211  0.00  0.00    +0.000 N 
ATOM      6  C   UNL     1       8.159   7.089  18.783  0.00  0.00    +0.000 A 
ATOM      7  C   UNL     1       7.842   5.784  19.083  0.00  0.00    +0.000 A 
ATOM      8  N   UNL     1       7.049   5.034  18.313  0.00  0.00    +0.000 NA
ATOM      9  H   UNL     1       7.387   9.099  16.383  0.00  0.00    +0.000 HD
ATOM     10  H   UNL     1       7.816   9.585  17.940  0.00  0.00    +0.000 HD
BRANCH   7  11
ATOM     11  N   UNL     1       8.307   5.208  20.265  0.00  0.00    +0.000 N 
ATOM     12  H   UNL     1       7.586   4.694  20.759  0.00  0.00    +0.000 HD
ATOM     13  H   UNL     1       8.728   5.937  20.834  0.00  0.00    +0.000 HD
ENDBRANCH   7  11
ENDBRANCH   1   2
BRANCH   1  14
ATOM     14  C   UNL     1       4.735   3.562  17.347  0.00  0.00    +0.000 C 
BRANCH  14  15
ATOM     15  C   UNL     1       3.247   3.858  17.512  0.00  0.00    +0.000 C 
ATOM     16  O   UNL     1       2.376   3.262  16.878  0.00  0.00    +0.000 OA
BRANCH  15  23
ATOM     17  C   UNL     1       2.419   4.681  19.829  0.00  0.00    +0.000 A 
ATOM     18  C   UNL     1       2.015   5.765  20.631  0.00  0.00    +0.000 A 
ATOM     19  C   UNL     1       1.945   7.058  20.111  0.00  0.00    +0.000 A 
ATOM     20  C   UNL     1       2.287   7.283  18.787  0.00  0.00    +0.000 A 
ATOM     21 CL   UNL     1       2.200   8.878  18.145  0.00  0.00    +0.000 Cl
ATOM     22  C   UNL     1       2.707   6.230  17.985  0.00  0.00    +0.000 A 
ATOM     23  C   UNL     1       2.785   4.912  18.489  0.00  0.00    +0.000 A 
BRANCH  17  25
ATOM     24  C   UNL     1       1.677   3.096  21.442  0.00  0.00    +0.000 C 
ATOM     25  O   UNL     1       2.507   3.409  20.327  0.00  0.00    +0.000 OA
ENDBRANCH  17  25
ENDBRANCH  15  23
ENDBRANCH  14  15
ENDBRANCH   1  14
TORSDOF 6
ENDMDL
MODEL 3
REMARK VINA RESULT:      -7.1      1.572      1.825
REMARK  Name = 
REMARK  7 active torsions:
REMARK  status: ('A' for Active; 'I' for Inactive)
REMARK    1  A    between atoms: C_1  and  O_2
REMARK    2  A    between atoms: O_2  and  C_3
REMARK    3  A    between atoms: C_9  and  C_10
REMARK    4  A    between atoms: C_10  and  C_12
REMARK    5  A    between atoms: C_12  and  S_13
REMARK    6  A    between atoms: S_13  and  C_14
REMARK    7  A    between atoms: C_19  and  N_20
REMARK                            x       y       z     vdW  Elec       q    Type
REMARK                         _______ _______ _______ _____ _____    ______ ____
ROOT
ATOM      1  S   UNL     1       4.263   2.574  18.477  0.00  0.00    +0.000 S 
ENDROOT
BRANCH   1   2
ATOM      2  C   UNL     1       5.350   3.914  18.063  0.00  0.00    +0.000 A 
ATOM      3  N   UNL     1       6.252   4.255  18.999  0.00  0.00    +0.000 NA
ATOM      4  C   UNL     1       7.084   5.252  18.695  0.00  0.00    +0.000 A 
ATOM      5  N   UNL     1       7.977   5.658  19.687  0.00  0.00    +0.000 N 
ATOM      6  C   UNL     1       7.032   5.918  17.494  0.00  0.00    +0.000 A 
ATOM      7  C   UNL     1       6.074   5.499  16.600  0.00  0.00    +0.000 A 
ATOM      8  N   UNL     1       5.228   4.498  16.859  0.00  0.00    +0.000 NA
ATOM      9  H   UNL     1       7.902   4.999  20.459  0.00  0.00    +0.000 HD
ATOM     10  H   UNL     1       8.927   5.745  19.349  0.00  0.00    +0.000 HD
BRANCH   7  11
ATOM     11  N   UNL     1       5.994   6.085  15.338  0.00  0.00    +0.000 N 
ATOM     12  H   UNL     1       5.215   5.734  14.793  0.00  0.00    +0.000 HD
ATOM     13  H   UNL     1       6.887   5.962  14.869  0.00  0.00    +0.000 HD
ENDBRANCH   7  11
ENDBRANCH   1   2
BRANCH   1  14
ATOM     14  C   UNL     1       2.869   2.928  17.349  0.00  0.00    +0.000 C 
BRANCH  14  15
ATOM     15  C   UNL     1       1.662   3.470  18.108  0.00  0.00    +0.000 C 
ATOM     16  O   UNL     1       0.577   2.889  18.135  0.00  0.00    +0.000 OA
BRANCH  15  23
ATOM     17  C   UNL     1       1.480   4.931  20.245  0.00  0.00    +0.000 A 
ATOM     18  C   UNL     1       1.631   6.200  20.834  0.00  0.00    +0.000 A 
ATOM     19  C   UNL     1       2.033   7.302  20.077  0.00  0.00    +0.000 A 
ATOM     20  C   UNL     1       2.297   7.144  18.726  0.00  0.00    +0.000 A 
ATOM     21 CL   UNL     1       2.792   8.502  17.792  0.00  0.00    +0.000 Cl
ATOM     22  C   UNL     1       2.173   5.896  18.130  0.00  0.00    +0.000 A 
ATOM     23  C   UNL     1       1.766   4.766  18.876  0.00  0.00    +0.000 A 
BRANCH  17  25
ATOM     24  C   UNL     1       2.114   3.190  21.739  0.00  0.00    +0.000 C 
ATOM     25  O   UNL     1       1.100   3.838  20.976  0.00  0.00    +0.000 OA
ENDBRANCH  17  25
ENDBRANCH  15  23
ENDBRANCH  14  15
ENDBRANCH   1  14
TORSDOF 6
ENDMDL
MODEL 4
REMARK VINA RESULT:      -7.1      1.685      2.406
REMARK  Name = 
REMARK  7 active torsions:
REMARK  status: ('A' for Active; 'I' for Inactive)
REMARK    1  A    between atoms: C_1  and  O_2
REMARK    2  A    between atoms: O_2  and  C_3
REMARK    3  A    between atoms: C_9  and  C_10
REMARK    4  A    between atoms: C_10  and  C_12
REMARK    5  A    between atoms: C_12  and  S_13
REMARK    6  A    between atoms: S_13  and  C_14
REMARK    7  A    between atoms: C_19  and  N_20
REMARK                            x       y       z     vdW  Elec       q    Type
REMARK                         _______ _______ _______ _____ _____    ______ ____
ROOT
ATOM      1  S   UNL     1       4.751   3.595  18.880  0.00  0.00    +0.000 S 
ENDROOT
BRANCH   1   2
ATOM      2  C   UNL     1       5.649   4.310  17.527  0.00  0.00    +0.000 A 
ATOM      3  N   UNL     1       5.572   3.657  16.355  0.00  0.00    +0.000 NA
ATOM      4  C   UNL     1       6.232   4.191  15.326  0.00  0.00    +0.000 A 
ATOM      5  N   UNL     1       6.215   3.482  14.124  0.00  0.00    +0.000 N 
ATOM      6  C   UNL     1       6.969   5.346  15.439  0.00  0.00    +0.000 A 
ATOM      7  C   UNL     1       6.989   5.942  16.679  0.00  0.00    +0.000 A 
ATOM      8  N   UNL     1       6.335   5.447  17.734  0.00  0.00    +0.000 NA
ATOM      9  H   UNL     1       5.563   2.707  14.232  0.00  0.00    +0.000 HD
ATOM     10  H   UNL     1       5.987   4.065  13.328  0.00  0.00    +0.000 HD
BRANCH   7  11
ATOM     11  N   UNL     1       7.666   7.147  16.862  0.00  0.00    +0.000 N 
ATOM     12  H   UNL     1       8.582   7.021  17.279  0.00  0.00    +0.000 HD
ATOM     13  H   UNL     1       7.072   7.770  17.402  0.00  0.00    +0.000 HD
ENDBRANCH   7  11
ENDBRANCH   1   2
BRANCH   1  14
ATOM     14  C   UNL     1       3.396   2.772  17.971  0.00  0.00    +0.000 C 
BRANCH  14  15
ATOM     15  C   UNL     1       2.063   3.475  18.203  0.00  0.00    +0.000 C 
ATOM     16  O   UNL     1       0.987   2.999  17.837  0.00  0.00    +0.000 OA
BRANCH  15  23
ATOM     17  C   UNL     1       1.617   5.008  20.248  0.00  0.00    +0.000 A 
ATOM     18  C   UNL     1       1.634   6.309  20.786  0.00  0.00    +0.000 A 
ATOM     19  C   UNL     1       2.015   7.404  20.008  0.00  0.00    +0.000 A 
ATOM     20  C   UNL     1       2.392   7.209  18.689  0.00  0.00    +0.000 A 
ATOM     21 CL   UNL     1       2.860   8.558  17.729  0.00  0.00    +0.000 Cl
ATOM     22  C   UNL     1       2.400   5.930  18.146  0.00  0.00    +0.000 A 
ATOM     23  C   UNL     1       2.018   4.806  18.914  0.00  0.00    +0.000 A 
BRANCH  17  25
ATOM     24  C   UNL     1       2.288   3.308  21.774  0.00  0.00    +0.000 C 
ATOM     25  O   UNL     1       1.260   3.922  21.001  0.00  0.00    +0.000 OA
ENDBRANCH  17  25
ENDBRANCH  15  23
ENDBRANCH  14  15
ENDBRANCH   1  14
TORSDOF 6
ENDMDL
MODEL 5
REMARK VINA RESULT:      -7.0      1.609      2.469
REMARK  Name = 
REMARK  7 active torsions:
REMARK  status: ('A' for Active; 'I' for Inactive)
REMARK    1  A    between atoms: C_1  and  O_2
REMARK    2  A    between atoms: O_2  and  C_3
REMARK    3  A    between atoms: C_9  and  C_10
REMARK    4  A    between atoms: C_10  and  C_12
REMARK    5  A    between atoms: C_12  and  S_13
REMARK    6  A    between atoms: S_13  and  C_14
REMARK    7  A    between atoms: C_19  and  N_20
REMARK                            x       y       z     vdW  Elec       q    Type
REMARK                         _______ _______ _______ _____ _____    ______ ____
ROOT
ATOM      1  S   UNL     1       4.884   3.616  19.053  0.00  0.00    +0.000 S 
ENDROOT
BRANCH   1   2
ATOM      2  C   UNL     1       5.671   4.311  17.623  0.00  0.00    +0.000 A 
ATOM      3  N   UNL     1       6.304   5.482  17.805  0.00  0.00    +0.000 NA
ATOM      4  C   UNL     1       6.910   6.009  16.740  0.00  0.00    +0.000 A 
ATOM      5  N   UNL     1       7.509   7.258  16.905  0.00  0.00    +0.000 N 
ATOM      6  C   UNL     1       6.895   5.404  15.506  0.00  0.00    +0.000 A 
ATOM      7  C   UNL     1       6.221   4.208  15.417  0.00  0.00    +0.000 A 
ATOM      8  N   UNL     1       5.608   3.641  16.460  0.00  0.00    +0.000 NA
ATOM      9  H   UNL     1       7.472   7.491  17.895  0.00  0.00    +0.000 HD
ATOM     10  H   UNL     1       8.453   7.293  16.539  0.00  0.00    +0.000 HD
BRANCH   7  11
ATOM     11  N   UNL     1       6.207   3.504  14.213  0.00  0.00    +0.000 N 
ATOM     12  H   UNL     1       7.117   3.474  13.768  0.00  0.00    +0.000 HD
ATOM     13  H   UNL     1       5.490   3.905  13.615  0.00  0.00    +0.000 HD
ENDBRANCH   7  11
ENDBRANCH   1   2
BRANCH   1  14
ATOM     14  C   UNL     1       3.487   2.743  18.262  0.00  0.00    +0.000 C 
BRANCH  14  15
ATOM     15  C   UNL     1       2.324   3.691  17.984  0.00  0.00    +0.000 C 
ATOM     16  O   UNL     1       1.490   3.480  17.104  0.00  0.00    +0.000 OA
BRANCH  15  23
ATOM     17  C   UNL     1       1.693   4.994  20.137  0.00  0.00    +0.000 A 
ATOM     18  C   UNL     1       1.590   6.238  20.787  0.00  0.00    +0.000 A 
ATOM     19  C   UNL     1       1.908   7.425  20.125  0.00  0.00    +0.000 A 
ATOM     20  C   UNL     1       2.342   7.379  18.809  0.00  0.00    +0.000 A 
ATOM     21 CL   UNL     1       2.734   8.841  17.991  0.00  0.00    +0.000 Cl
ATOM     22  C   UNL     1       2.469   6.159  18.157  0.00  0.00    +0.000 A 
ATOM     23  C   UNL     1       2.151   4.945  18.807  0.00  0.00    +0.000 A 
BRANCH  17  25
ATOM     24  C   UNL     1       2.300   3.397  21.795  0.00  0.00    +0.000 C 
ATOM     25  O   UNL     1       1.397   3.820  20.777  0.00  0.00    +0.000 OA
ENDBRANCH  17  25
ENDBRANCH  15  23
ENDBRANCH  14  15
ENDBRANCH   1  14
TORSDOF 6
ENDMDL
MODEL 6
REMARK VINA RESULT:      -7.0      3.223      4.272
REMARK  Name = 
REMARK  7 active torsions:
REMARK  status: ('A' for Active; 'I' for Inactive)
REMARK    1  A    between atoms: C_1  and  O_2
REMARK    2  A    between atoms: O_2  and  C_3
REMARK    3  A    between atoms: C_9  and  C_10
REMARK    4  A    between atoms: C_10  and  C_12
REMARK    5  A    between atoms: C_12  and  S_13
REMARK    6  A    between atoms: S_13  and  C_14
REMARK    7  A    between atoms: C_19  and  N_20
REMARK                            x       y       z     vdW  Elec       q    Type
REMARK                         _______ _______ _______ _____ _____    ______ ____
ROOT
ATOM      1  S   UNL     1       5.050   4.912  16.231  0.00  0.00    +0.000 S 
ENDROOT
BRANCH   1   2
ATOM      2  C   UNL     1       5.928   4.631  14.715  0.00  0.00    +0.000 A 
ATOM      3  N   UNL     1       7.019   5.389  14.513  0.00  0.00    +0.000 NA
ATOM      4  C   UNL     1       7.696   5.179  13.383  0.00  0.00    +0.000 A 
ATOM      5  N   UNL     1       8.788   6.010  13.133  0.00  0.00    +0.000 N 
ATOM      6  C   UNL     1       7.309   4.244  12.453  0.00  0.00    +0.000 A 
ATOM      7  C   UNL     1       6.179   3.517  12.747  0.00  0.00    +0.000 A 
ATOM      8  N   UNL     1       5.477   3.688  13.871  0.00  0.00    +0.000 NA
ATOM      9  H   UNL     1       8.945   6.574  13.967  0.00  0.00    +0.000 HD
ATOM     10  H   UNL     1       9.617   5.497  12.857  0.00  0.00    +0.000 HD
BRANCH   7  11
ATOM     11  N   UNL     1       5.753   2.510  11.882  0.00  0.00    +0.000 N 
ATOM     12  H   UNL     1       4.851   2.710  11.463  0.00  0.00    +0.000 HD
ATOM     13  H   UNL     1       5.764   1.627  12.385  0.00  0.00    +0.000 HD
ENDBRANCH   7  11
ENDBRANCH   1   2
BRANCH   1  14
ATOM     14  C   UNL     1       6.346   4.473  17.442  0.00  0.00    +0.000 C 
BRANCH  14  15
ATOM     15  C   UNL     1       5.931   4.845  18.862  0.00  0.00    +0.000 C 
ATOM     16  O   UNL     1       6.740   5.197  19.721  0.00  0.00    +0.000 OA
BRANCH  15  23
ATOM     17  C   UNL     1       3.706   3.635  19.426  0.00  0.00    +0.000 A 
ATOM     18  C   UNL     1       2.359   3.744  19.818  0.00  0.00    +0.000 A 
ATOM     19  C   UNL     1       1.768   4.992  20.021  0.00  0.00    +0.000 A 
ATOM     20  C   UNL     1       2.520   6.143  19.845  0.00  0.00    +0.000 A 
ATOM     21 CL   UNL     1       1.792   7.682  20.095  0.00  0.00    +0.000 Cl
ATOM     22  C   UNL     1       3.857   6.055  19.479  0.00  0.00    +0.000 A 
ATOM     23  C   UNL     1       4.476   4.802  19.266  0.00  0.00    +0.000 A 
BRANCH  17  25
ATOM     24  C   UNL     1       3.594   1.468  18.446  0.00  0.00    +0.000 C 
ATOM     25  O   UNL     1       4.305   2.418  19.235  0.00  0.00    +0.000 OA
ENDBRANCH  17  25
ENDBRANCH  15  23
ENDBRANCH  14  15
ENDBRANCH   1  14
TORSDOF 6
ENDMDL
MODEL 7
REMARK VINA RESULT:      -7.0      1.952      2.621
REMARK  Name = 
REMARK  7 active torsions:
REMARK  status: ('A' for Active; 'I' for Inactive)
REMARK    1  A    between atoms: C_1  and  O_2
REMARK    2  A    between atoms: O_2  and  C_3
REMARK    3  A    between atoms: C_9  and  C_10
REMARK    4  A    between atoms: C_10  and  C_12
REMARK    5  A    between atoms: C_12  and  S_13
REMARK    6  A    between atoms: S_13  and  C_14
REMARK    7  A    between atoms: C_19  and  N_20
REMARK                            x       y       z     vdW  Elec       q    Type
REMARK                         _______ _______ _______ _____ _____    ______ ____
ROOT
ATOM      1  S   UNL     1       5.369   5.311  15.885  0.00  0.00    +0.000 S 
ENDROOT
BRANCH   1   2
ATOM      2  C   UNL     1       6.488   6.115  17.002  0.00  0.00    +0.000 A 
ATOM      3  N   UNL     1       6.925   5.378  18.036  0.00  0.00    +0.000 NA
ATOM      4  C   UNL     1       7.777   5.967  18.877  0.00  0.00    +0.000 A 
ATOM      5  N   UNL     1       8.181   5.231  19.991  0.00  0.00    +0.000 N 
ATOM      6  C   UNL     1       8.193   7.267  18.716  0.00  0.00    +0.000 A 
ATOM      7  C   UNL     1       7.691   7.943  17.629  0.00  0.00    +0.000 A 
ATOM      8  N   UNL     1       6.843   7.388  16.757  0.00  0.00    +0.000 NA
ATOM      9  H   UNL     1       7.823   4.284  19.883  0.00  0.00    +0.000 HD
ATOM     10  H   UNL     1       9.184   5.247  20.130  0.00  0.00    +0.000 HD
BRANCH   7  11
ATOM     11  N   UNL     1       8.108   9.247  17.364  0.00  0.00    +0.000 N 
ATOM     12  H   UNL     1       8.108   9.833  18.192  0.00  0.00    +0.000 HD
ATOM     13  H   UNL     1       7.532   9.623  16.617  0.00  0.00    +0.000 HD
ENDBRANCH   7  11
ENDBRANCH   1   2
BRANCH   1  14
ATOM     14  C   UNL     1       4.858   3.886  16.909  0.00  0.00    +0.000 C 
BRANCH  14  15
ATOM     15  C   UNL     1       3.358   3.907  17.183  0.00  0.00    +0.000 C 
ATOM     16  O   UNL     1       2.527   3.498  16.371  0.00  0.00    +0.000 OA
BRANCH  15  23
ATOM     17  C   UNL     1       2.724   5.796  18.846  0.00  0.00    +0.000 A 
ATOM     18  C   UNL     1       2.204   6.146  20.106  0.00  0.00    +0.000 A 
ATOM     19  C   UNL     1       1.818   5.166  21.023  0.00  0.00    +0.000 A 
ATOM     20  C   UNL     1       1.940   3.827  20.686  0.00  0.00    +0.000 A 
ATOM     21 CL   UNL     1       1.466   2.619  21.815  0.00  0.00    +0.000 Cl
ATOM     22  C   UNL     1       2.433   3.462  19.439  0.00  0.00    +0.000 A 
ATOM     23  C   UNL     1       2.831   4.436  18.496  0.00  0.00    +0.000 A 
BRANCH  17  25
ATOM     24  C   UNL     1       2.363   7.966  17.939  0.00  0.00    +0.000 C 
ATOM     25  O   UNL     1       3.095   6.744  17.931  0.00  0.00    +0.000 OA
ENDBRANCH  17  25
ENDBRANCH  15  23
ENDBRANCH  14  15
ENDBRANCH   1  14
TORSDOF 6
ENDMDL
MODEL 8
REMARK VINA RESULT:      -6.7      3.364      4.413
REMARK  Name = 
REMARK  7 active torsions:
REMARK  status: ('A' for Active; 'I' for Inactive)
REMARK    1  A    between atoms: C_1  and  O_2
REMARK    2  A    between atoms: O_2  and  C_3
REMARK    3  A    between atoms: C_9  and  C_10
REMARK    4  A    between atoms: C_10  and  C_12
REMARK    5  A    between atoms: C_12  and  S_13
REMARK    6  A    between atoms: S_13  and  C_14
REMARK    7  A    between atoms: C_19  and  N_20
REMARK                            x       y       z     vdW  Elec       q    Type
REMARK                         _______ _______ _______ _____ _____    ______ ____
ROOT
ATOM      1  S   UNL     1       6.693   4.620  16.704  0.00  0.00    +0.000 S 
ENDROOT
BRANCH   1   2
ATOM      2  C   UNL     1       6.916   4.573  14.945  0.00  0.00    +0.000 A 
ATOM      3  N   UNL     1       6.204   3.647  14.282  0.00  0.00    +0.000 NA
ATOM      4  C   UNL     1       6.353   3.609  12.957  0.00  0.00    +0.000 A 
ATOM      5  N   UNL     1       5.671   2.605  12.270  0.00  0.00    +0.000 N 
ATOM      6  C   UNL     1       7.196   4.461  12.284  0.00  0.00    +0.000 A 
ATOM      7  C   UNL     1       7.884   5.375  13.048  0.00  0.00    +0.000 A 
ATOM      8  N   UNL     1       7.757   5.453  14.376  0.00  0.00    +0.000 NA
ATOM      9  H   UNL     1       5.057   2.138  12.934  0.00  0.00    +0.000 HD
ATOM     10  H   UNL     1       5.167   2.954  11.463  0.00  0.00    +0.000 HD
BRANCH   7  11
ATOM     11  N   UNL     1       8.716   6.311  12.435  0.00  0.00    +0.000 N 
ATOM     12  H   UNL     1       9.696   6.060  12.493  0.00  0.00    +0.000 HD
ATOM     13  H   UNL     1       8.520   7.224  12.834  0.00  0.00    +0.000 HD
ENDBRANCH   7  11
ENDBRANCH   1   2
BRANCH   1  14
ATOM     14  C   UNL     1       5.168   5.622  16.810  0.00  0.00    +0.000 C 
BRANCH  14  15
ATOM     15  C   UNL     1       3.974   4.776  17.239  0.00  0.00    +0.000 C 
ATOM     16  O   UNL     1       3.631   3.756  16.640  0.00  0.00    +0.000 OA
BRANCH  15  23
ATOM     17  C   UNL     1       2.833   6.484  18.825  0.00  0.00    +0.000 A 
ATOM     18  C   UNL     1       2.054   6.701  19.977  0.00  0.00    +0.000 A 
ATOM     19  C   UNL     1       1.625   5.633  20.767  0.00  0.00    +0.000 A 
ATOM     20  C   UNL     1       1.960   4.337  20.408  0.00  0.00    +0.000 A 
ATOM     21 CL   UNL     1       1.432   3.021  21.381  0.00  0.00    +0.000 Cl
ATOM     22  C   UNL     1       2.711   4.101  19.263  0.00  0.00    +0.000 A 
ATOM     23  C   UNL     1       3.159   5.167  18.449  0.00  0.00    +0.000 A 
BRANCH  17  25
ATOM     24  C   UNL     1       2.296   8.537  17.746  0.00  0.00    +0.000 C 
ATOM     25  O   UNL     1       3.251   7.519  18.032  0.00  0.00    +0.000 OA
ENDBRANCH  17  25
ENDBRANCH  15  23
ENDBRANCH  14  15
ENDBRANCH   1  14
TORSDOF 6
ENDMDL
MODEL 9
REMARK VINA RESULT:      -6.7      2.584      3.543
REMARK  Name = 
REMARK  7 active torsions:
REMARK  status: ('A' for Active; 'I' for Inactive)
REMARK    1  A    between atoms: C_1  and  O_2
REMARK    2  A    between atoms: O_2  and  C_3
REMARK    3  A    between atoms: C_9  and  C_10
REMARK    4  A    between atoms: C_10  and  C_12
REMARK    5  A    between atoms: C_12  and  S_13
REMARK    6  A    between atoms: S_13  and  C_14
REMARK    7  A    between atoms: C_19  and  N_20
REMARK                            x       y       z     vdW  Elec       q    Type
REMARK                         _______ _______ _______ _____ _____    ______ ____
ROOT
ATOM      1  S   UNL     1       5.566   4.997  16.820  0.00  0.00    +0.000 S 
ENDROOT
BRANCH   1   2
ATOM      2  C   UNL     1       6.196   4.731  15.183  0.00  0.00    +0.000 A 
ATOM      3  N   UNL     1       7.284   5.442  14.844  0.00  0.00    +0.000 NA
ATOM      4  C   UNL     1       7.775   5.242  13.620  0.00  0.00    +0.000 A 
ATOM      5  N   UNL     1       8.862   6.027  13.236  0.00  0.00    +0.000 N 
ATOM      6  C   UNL     1       7.206   4.362  12.730  0.00  0.00    +0.000 A 
ATOM      7  C   UNL     1       6.094   3.680  13.167  0.00  0.00    +0.000 A 
ATOM      8  N   UNL     1       5.575   3.843  14.387  0.00  0.00    +0.000 NA
ATOM      9  H   UNL     1       9.169   6.551  14.053  0.00  0.00    +0.000 HD
ATOM     10  H   UNL     1       9.612   5.485  12.824  0.00  0.00    +0.000 HD
BRANCH   7  11
ATOM     11  N   UNL     1       5.492   2.728  12.344  0.00  0.00    +0.000 N 
ATOM     12  H   UNL     1       4.822   2.151  12.840  0.00  0.00    +0.000 HD
ATOM     13  H   UNL     1       6.223   2.183  11.896  0.00  0.00    +0.000 HD
ENDBRANCH   7  11
ENDBRANCH   1   2
BRANCH   1  14
ATOM     14  C   UNL     1       4.568   3.481  17.034  0.00  0.00    +0.000 C 
BRANCH  14  15
ATOM     15  C   UNL     1       3.111   3.812  17.338  0.00  0.00    +0.000 C 
ATOM     16  O   UNL     1       2.169   3.220  16.810  0.00  0.00    +0.000 OA
BRANCH  15  23
ATOM     17  C   UNL     1       2.538   4.708  19.706  0.00  0.00    +0.000 A 
ATOM     18  C   UNL     1       2.237   5.818  20.516  0.00  0.00    +0.000 A 
ATOM     19  C   UNL     1       2.135   7.100  19.972  0.00  0.00    +0.000 A 
ATOM     20  C   UNL     1       2.343   7.286  18.615  0.00  0.00    +0.000 A 
ATOM     21 CL   UNL     1       2.217   8.865  17.943  0.00  0.00    +0.000 Cl
ATOM     22  C   UNL     1       2.661   6.205  17.802  0.00  0.00    +0.000 A 
ATOM     23  C   UNL     1       2.768   4.898  18.330  0.00  0.00    +0.000 A 
BRANCH  17  25
ATOM     24  C   UNL     1       1.446   2.786  20.589  0.00  0.00    +0.000 C 
ATOM     25  O   UNL     1       2.655   3.446  20.225  0.00  0.00    +0.000 OA
ENDBRANCH  17  25
ENDBRANCH  15  23
ENDBRANCH  14  15
ENDBRANCH   1  14
TORSDOF 6
ENDMDL
