MODEL 1
REMARK VINA RESULT:      -7.9      0.000      0.000
REMARK  Name = 
REMARK  5 active torsions:
REMARK  status: ('A' for Active; 'I' for Inactive)
REMARK    1  A    between atoms: C_1  and  C_2
REMARK    2  A    between atoms: C_4  and  C_5
REMARK    3  A    between atoms: N_7  and  C_8
REMARK    4  A    between atoms: C_11  and  C_12
REMARK    5  A    between atoms: C_23  and  C_24
REMARK                            x       y       z     vdW  Elec       q    Type
REMARK                         _______ _______ _______ _____ _____    ______ ____
ROOT
ATOM      1  C   UNL     1       0.569  11.409  21.220  0.00  0.00    +0.000 C 
ATOM      2  O   UNL     1       1.754  11.739  21.189  0.00  0.00    +0.000 OA
ATOM      3  N   UNL     1       0.074  10.301  20.562  0.00  0.00    +0.000 N 
ATOM      4  H   UNL     1      -0.935  10.207  20.522  0.00  0.00    +0.000 HD
ENDROOT
BRANCH   1   8
ATOM      5  C   UNL     1      -3.561  12.366  23.938  0.00  0.00    +0.000 C 
ATOM      6  C   UNL     1      -2.306  12.740  23.215  0.00  0.00    +0.000 A 
ATOM      7  C   UNL     1      -1.532  11.751  22.534  0.00  0.00    +0.000 A 
ATOM      8  C   UNL     1      -0.382  12.240  21.953  0.00  0.00    +0.000 A 
ATOM      9  S   UNL     1      -0.252  13.918  22.187  0.00  0.00    +0.000 S 
ATOM     10  C   UNL     1      -1.712  13.999  23.128  0.00  0.00    +0.000 A 
BRANCH  10  11
ATOM     11  C   UNL     1      -2.149  15.291  23.713  0.00  0.00    +0.000 A 
ATOM     12  C   UNL     1      -2.966  16.174  22.987  0.00  0.00    +0.000 A 
ATOM     13  C   UNL     1      -3.465  17.349  23.557  0.00  0.00    +0.000 A 
ATOM     14  C   UNL     1      -3.126  17.687  24.862  0.00  0.00    +0.000 A 
ATOM     15  C   UNL     1      -2.286  16.851  25.590  0.00  0.00    +0.000 A 
ATOM     16  C   UNL     1      -1.809  15.662  25.025  0.00  0.00    +0.000 A 
ENDBRANCH  10  11
ENDBRANCH   1   8
BRANCH   3  17
ATOM     17  C   UNL     1       0.853   9.325  19.890  0.00  0.00    +0.000 A 
ATOM     18  C   UNL     1       1.206   9.416  18.538  0.00  0.00    +0.000 A 
ATOM     19  C   UNL     1       1.986   8.430  17.926  0.00  0.00    +0.000 A 
ATOM     20  C   UNL     1       2.450   7.333  18.657  0.00  0.00    +0.000 A 
ATOM     21  C   UNL     1       2.155   7.273  20.023  0.00  0.00    +0.000 A 
ATOM     22  C   UNL     1       1.335   8.241  20.626  0.00  0.00    +0.000 A 
BRANCH  20  23
ATOM     23  C   UNL     1       3.350   6.369  17.963  0.00  0.00    +0.000 C 
ATOM     24  O   UNL     1       4.486   6.764  17.700  0.00  0.00    +0.000 OA
ATOM     25  N   UNL     1       2.938   5.079  17.648  0.00  0.00    +0.000 N 
ATOM     26  C   UNL     1       1.592   4.502  17.706  0.00  0.00    +0.000 C 
ATOM     27  C   UNL     1       1.620   3.249  18.593  0.00  0.00    +0.000 C 
ATOM     28  O   UNL     1       2.578   2.294  18.103  0.00  0.00    +0.000 OA
ATOM     29  C   UNL     1       3.900   2.864  18.052  0.00  0.00    +0.000 C 
ATOM     30  C   UNL     1       3.933   4.116  17.167  0.00  0.00    +0.000 C 
ENDBRANCH  20  23
ENDBRANCH   3  17
TORSDOF 4
ENDMDL
MODEL 2
REMARK VINA RESULT:      -7.7      1.427      1.659
REMARK  Name = 
REMARK  5 active torsions:
REMARK  status: ('A' for Active; 'I' for Inactive)
REMARK    1  A    between atoms: C_1  and  C_2
REMARK    2  A    between atoms: C_4  and  C_5
REMARK    3  A    between atoms: N_7  and  C_8
REMARK    4  A    between atoms: C_11  and  C_12
REMARK    5  A    between atoms: C_23  and  C_24
REMARK                            x       y       z     vdW  Elec       q    Type
REMARK                         _______ _______ _______ _____ _____    ______ ____
ROOT
ATOM      1  C   UNL     1      -0.694  10.700  20.010  0.00  0.00    +0.000 C 
ATOM      2  O   UNL     1      -1.375  10.214  19.107  0.00  0.00    +0.000 OA
ATOM      3  N   UNL     1       0.526  10.185  20.399  0.00  0.00    +0.000 N 
ATOM      4  H   UNL     1       0.928  10.561  21.251  0.00  0.00    +0.000 HD
ENDROOT
BRANCH   1   8
ATOM      5  C   UNL     1      -3.757  14.599  20.889  0.00  0.00    +0.000 C 
ATOM      6  C   UNL     1      -2.605  13.695  21.191  0.00  0.00    +0.000 A 
ATOM      7  C   UNL     1      -2.263  12.626  20.308  0.00  0.00    +0.000 A 
ATOM      8  C   UNL     1      -1.206  11.855  20.743  0.00  0.00    +0.000 A 
ATOM      9  S   UNL     1      -0.588  12.448  22.209  0.00  0.00    +0.000 S 
ATOM     10  C   UNL     1      -1.773  13.716  22.310  0.00  0.00    +0.000 A 
BRANCH  10  11
ATOM     11  C   UNL     1      -1.794  14.622  23.486  0.00  0.00    +0.000 A 
ATOM     12  C   UNL     1      -2.742  14.455  24.510  0.00  0.00    +0.000 A 
ATOM     13  C   UNL     1      -2.716  15.237  25.669  0.00  0.00    +0.000 A 
ATOM     14  C   UNL     1      -1.758  16.234  25.813  0.00  0.00    +0.000 A 
ATOM     15  C   UNL     1      -0.832  16.448  24.796  0.00  0.00    +0.000 A 
ATOM     16  C   UNL     1      -0.845  15.645  23.649  0.00  0.00    +0.000 A 
ENDBRANCH  10  11
ENDBRANCH   1   8
BRANCH   3  17
ATOM     17  C   UNL     1       1.227   9.141  19.745  0.00  0.00    +0.000 A 
ATOM     18  C   UNL     1       1.674   9.224  18.421  0.00  0.00    +0.000 A 
ATOM     19  C   UNL     1       2.372   8.168  17.826  0.00  0.00    +0.000 A 
ATOM     20  C   UNL     1       2.657   7.006  18.547  0.00  0.00    +0.000 A 
ATOM     21  C   UNL     1       2.270   6.947  19.890  0.00  0.00    +0.000 A 
ATOM     22  C   UNL     1       1.531   7.990  20.473  0.00  0.00    +0.000 A 
BRANCH  20  23
ATOM     23  C   UNL     1       3.481   5.959  17.879  0.00  0.00    +0.000 C 
ATOM     24  O   UNL     1       4.647   6.256  17.619  0.00  0.00    +0.000 OA
ATOM     25  N   UNL     1       2.967   4.702  17.582  0.00  0.00    +0.000 N 
ATOM     26  C   UNL     1       1.579   4.238  17.638  0.00  0.00    +0.000 C 
ATOM     27  C   UNL     1       1.497   3.003  18.545  0.00  0.00    +0.000 C 
ATOM     28  O   UNL     1       2.378   1.964  18.081  0.00  0.00    +0.000 OA
ATOM     29  C   UNL     1       3.742   2.423  18.032  0.00  0.00    +0.000 C 
ATOM     30  C   UNL     1       3.884   3.653  17.127  0.00  0.00    +0.000 C 
ENDBRANCH  20  23
ENDBRANCH   3  17
TORSDOF 4
ENDMDL
MODEL 3
REMARK VINA RESULT:      -7.6      0.908      1.641
REMARK  Name = 
REMARK  5 active torsions:
REMARK  status: ('A' for Active; 'I' for Inactive)
REMARK    1  A    between atoms: C_1  and  C_2
REMARK    2  A    between atoms: C_4  and  C_5
REMARK    3  A    between atoms: N_7  and  C_8
REMARK    4  A    between atoms: C_11  and  C_12
REMARK    5  A    between atoms: C_23  and  C_24
REMARK                            x       y       z     vdW  Elec       q    Type
REMARK                         _______ _______ _______ _____ _____    ______ ____
ROOT
ATOM      1  C   UNL     1       0.553  10.509  21.565  0.00  0.00    +0.000 C 
ATOM      2  O   UNL     1       1.370  10.096  22.387  0.00  0.00    +0.000 OA
ATOM      3  N   UNL     1       0.518  10.085  20.252  0.00  0.00    +0.000 N 
ATOM      4  H   UNL     1      -0.087  10.600  19.623  0.00  0.00    +0.000 HD
ENDROOT
BRANCH   1   8
ATOM      5  C   UNL     1      -3.485  12.319  23.969  0.00  0.00    +0.000 C 
ATOM      6  C   UNL     1      -2.296  12.418  23.067  0.00  0.00    +0.000 A 
ATOM      7  C   UNL     1      -1.496  11.270  22.784  0.00  0.00    +0.000 A 
ATOM      8  C   UNL     1      -0.412  11.528  21.972  0.00  0.00    +0.000 A 
ATOM      9  S   UNL     1      -0.380  13.161  21.506  0.00  0.00    +0.000 S 
ATOM     10  C   UNL     1      -1.791  13.557  22.440  0.00  0.00    +0.000 A 
BRANCH  10  11
ATOM     11  C   UNL     1      -2.281  14.958  22.490  0.00  0.00    +0.000 A 
ATOM     12  C   UNL     1      -2.045  15.767  23.614  0.00  0.00    +0.000 A 
ATOM     13  C   UNL     1      -2.414  17.115  23.638  0.00  0.00    +0.000 A 
ATOM     14  C   UNL     1      -3.065  17.677  22.547  0.00  0.00    +0.000 A 
ATOM     15  C   UNL     1      -3.347  16.888  21.436  0.00  0.00    +0.000 A 
ATOM     16  C   UNL     1      -2.952  15.545  21.405  0.00  0.00    +0.000 A 
ENDBRANCH  10  11
ENDBRANCH   1   8
BRANCH   3  17
ATOM     17  C   UNL     1       1.300   9.037  19.703  0.00  0.00    +0.000 A 
ATOM     18  C   UNL     1       1.616   7.865  20.399  0.00  0.00    +0.000 A 
ATOM     19  C   UNL     1       2.383   6.856  19.807  0.00  0.00    +0.000 A 
ATOM     20  C   UNL     1       2.839   6.986  18.494  0.00  0.00    +0.000 A 
ATOM     21  C   UNL     1       2.469   8.127  17.772  0.00  0.00    +0.000 A 
ATOM     22  C   UNL     1       1.737   9.158  18.383  0.00  0.00    +0.000 A 
BRANCH  20  23
ATOM     23  C   UNL     1       3.574   5.835  17.897  0.00  0.00    +0.000 C 
ATOM     24  O   UNL     1       4.768   6.008  17.653  0.00  0.00    +0.000 OA
ATOM     25  N   UNL     1       2.949   4.618  17.647  0.00  0.00    +0.000 N 
ATOM     26  C   UNL     1       1.522   4.290  17.689  0.00  0.00    +0.000 C 
ATOM     27  C   UNL     1       1.304   3.115  18.652  0.00  0.00    +0.000 C 
ATOM     28  O   UNL     1       2.092   1.976  18.260  0.00  0.00    +0.000 OA
ATOM     29  C   UNL     1       3.495   2.302  18.224  0.00  0.00    +0.000 C 
ATOM     30  C   UNL     1       3.772   3.467  17.265  0.00  0.00    +0.000 C 
ENDBRANCH  20  23
ENDBRANCH   3  17
TORSDOF 4
ENDMDL
MODEL 4
REMARK VINA RESULT:      -7.6      1.972      3.026
REMARK  Name = 
REMARK  5 active torsions:
REMARK  status: ('A' for Active; 'I' for Inactive)
REMARK    1  A    between atoms: C_1  and  C_2
REMARK    2  A    between atoms: C_4  and  C_5
REMARK    3  A    between atoms: N_7  and  C_8
REMARK    4  A    between atoms: C_11  and  C_12
REMARK    5  A    between atoms: C_23  and  C_24
REMARK                            x       y       z     vdW  Elec       q    Type
REMARK                         _______ _______ _______ _____ _____    ______ ____
ROOT
ATOM      1  C   UNL     1       0.077   9.600  20.893  0.00  0.00    +0.000 C 
ATOM      2  O   UNL     1      -0.463   8.571  21.297  0.00  0.00    +0.000 OA
ATOM      3  N   UNL     1       1.207   9.602  20.100  0.00  0.00    +0.000 N 
ATOM      4  H   UNL     1       1.660  10.498  19.954  0.00  0.00    +0.000 HD
ENDROOT
BRANCH   1   8
ATOM      5  C   UNL     1      -1.324  14.396  20.260  0.00  0.00    +0.000 C 
ATOM      6  C   UNL     1      -1.129  13.141  21.051  0.00  0.00    +0.000 A 
ATOM      7  C   UNL     1      -0.544  11.984  20.453  0.00  0.00    +0.000 A 
ATOM      8  C   UNL     1      -0.470  10.894  21.294  0.00  0.00    +0.000 A 
ATOM      9  S   UNL     1      -1.070  11.279  22.836  0.00  0.00    +0.000 S 
ATOM     10  C   UNL     1      -1.494  12.900  22.375  0.00  0.00    +0.000 A 
BRANCH  10  11
ATOM     11  C   UNL     1      -2.160  13.800  23.350  0.00  0.00    +0.000 A 
ATOM     12  C   UNL     1      -1.408  14.601  24.226  0.00  0.00    +0.000 A 
ATOM     13  C   UNL     1      -2.017  15.524  25.082  0.00  0.00    +0.000 A 
ATOM     14  C   UNL     1      -3.401  15.640  25.107  0.00  0.00    +0.000 A 
ATOM     15  C   UNL     1      -4.173  14.831  24.278  0.00  0.00    +0.000 A 
ATOM     16  C   UNL     1      -3.558  13.927  23.404  0.00  0.00    +0.000 A 
ENDBRANCH  10  11
ENDBRANCH   1   8
BRANCH   3  17
ATOM     17  C   UNL     1       1.816   8.456  19.530  0.00  0.00    +0.000 A 
ATOM     18  C   UNL     1       2.005   7.256  20.226  0.00  0.00    +0.000 A 
ATOM     19  C   UNL     1       2.601   6.150  19.612  0.00  0.00    +0.000 A 
ATOM     20  C   UNL     1       3.009   6.209  18.278  0.00  0.00    +0.000 A 
ATOM     21  C   UNL     1       2.761   7.384  17.560  0.00  0.00    +0.000 A 
ATOM     22  C   UNL     1       2.202   8.509  18.190  0.00  0.00    +0.000 A 
BRANCH  20  23
ATOM     23  C   UNL     1       3.554   4.966  17.662  0.00  0.00    +0.000 C 
ATOM     24  O   UNL     1       2.734   4.122  17.300  0.00  0.00    +0.000 OA
ATOM     25  N   UNL     1       4.920   4.776  17.485  0.00  0.00    +0.000 N 
ATOM     26  C   UNL     1       6.036   5.562  18.015  0.00  0.00    +0.000 C 
ATOM     27  C   UNL     1       6.921   6.029  16.850  0.00  0.00    +0.000 C 
ATOM     28  O   UNL     1       7.390   4.908  16.080  0.00  0.00    +0.000 OA
ATOM     29  C   UNL     1       6.289   4.139  15.557  0.00  0.00    +0.000 C 
ATOM     30  C   UNL     1       5.376   3.637  16.683  0.00  0.00    +0.000 C 
ENDBRANCH  20  23
ENDBRANCH   3  17
TORSDOF 4
ENDMDL
MODEL 5
REMARK VINA RESULT:      -7.6      2.056      3.044
REMARK  Name = 
REMARK  5 active torsions:
REMARK  status: ('A' for Active; 'I' for Inactive)
REMARK    1  A    between atoms: C_1  and  C_2
REMARK    2  A    between atoms: C_4  and  C_5
REMARK    3  A    between atoms: N_7  and  C_8
REMARK    4  A    between atoms: C_11  and  C_12
REMARK    5  A    between atoms: C_23  and  C_24
REMARK                            x       y       z     vdW  Elec       q    Type
REMARK                         _______ _______ _______ _____ _____    ______ ____
ROOT
ATOM      1  C   UNL     1       0.006  10.332  19.561  0.00  0.00    +0.000 C 
ATOM      2  O   UNL     1      -0.633   9.974  18.572  0.00  0.00    +0.000 OA
ATOM      3  N   UNL     1       1.104   9.648  20.042  0.00  0.00    +0.000 N 
ATOM      4  H   UNL     1       1.460   9.935  20.947  0.00  0.00    +0.000 HD
ENDROOT
BRANCH   1   8
ATOM      5  C   UNL     1      -1.175  15.188  20.180  0.00  0.00    +0.000 C 
ATOM      6  C   UNL     1      -0.982  13.778  20.640  0.00  0.00    +0.000 A 
ATOM      7  C   UNL     1      -0.516  12.772  19.740  0.00  0.00    +0.000 A 
ATOM      8  C   UNL     1      -0.430  11.515  20.298  0.00  0.00    +0.000 A 
ATOM      9  S   UNL     1      -0.869  11.551  21.939  0.00  0.00    +0.000 S 
ATOM     10  C   UNL     1      -1.241  13.248  21.904  0.00  0.00    +0.000 A 
BRANCH  10  11
ATOM     11  C   UNL     1      -1.768  13.920  23.119  0.00  0.00    +0.000 A 
ATOM     12  C   UNL     1      -3.047  13.617  23.615  0.00  0.00    +0.000 A 
ATOM     13  C   UNL     1      -3.520  14.167  24.810  0.00  0.00    +0.000 A 
ATOM     14  C   UNL     1      -2.733  15.066  25.521  0.00  0.00    +0.000 A 
ATOM     15  C   UNL     1      -1.478  15.413  25.032  0.00  0.00    +0.000 A 
ATOM     16  C   UNL     1      -0.997  14.840  23.848  0.00  0.00    +0.000 A 
ENDBRANCH  10  11
ENDBRANCH   1   8
BRANCH   3  17
ATOM     17  C   UNL     1       1.732   8.547  19.407  0.00  0.00    +0.000 A 
ATOM     18  C   UNL     1       2.251   8.598  18.107  0.00  0.00    +0.000 A 
ATOM     19  C   UNL     1       2.871   7.485  17.531  0.00  0.00    +0.000 A 
ATOM     20  C   UNL     1       3.005   6.294  18.248  0.00  0.00    +0.000 A 
ATOM     21  C   UNL     1       2.548   6.260  19.570  0.00  0.00    +0.000 A 
ATOM     22  C   UNL     1       1.886   7.364  20.132  0.00  0.00    +0.000 A 
BRANCH  20  23
ATOM     23  C   UNL     1       3.756   5.178  17.605  0.00  0.00    +0.000 C 
ATOM     24  O   UNL     1       3.089   4.232  17.186  0.00  0.00    +0.000 OA
ATOM     25  N   UNL     1       5.139   5.212  17.465  0.00  0.00    +0.000 N 
ATOM     26  C   UNL     1       6.103   6.141  18.058  0.00  0.00    +0.000 C 
ATOM     27  C   UNL     1       6.932   6.788  16.941  0.00  0.00    +0.000 C 
ATOM     28  O   UNL     1       7.592   5.788  16.145  0.00  0.00    +0.000 OA
ATOM     29  C   UNL     1       6.640   4.878  15.559  0.00  0.00    +0.000 C 
ATOM     30  C   UNL     1       5.789   4.193  16.636  0.00  0.00    +0.000 C 
ENDBRANCH  20  23
ENDBRANCH   3  17
TORSDOF 4
ENDMDL
MODEL 6
REMARK VINA RESULT:      -7.5      1.480      2.186
REMARK  Name = 
REMARK  5 active torsions:
REMARK  status: ('A' for Active; 'I' for Inactive)
REMARK    1  A    between atoms: C_1  and  C_2
REMARK    2  A    between atoms: C_4  and  C_5
REMARK    3  A    between atoms: N_7  and  C_8
REMARK    4  A    between atoms: C_11  and  C_12
REMARK    5  A    between atoms: C_23  and  C_24
REMARK                            x       y       z     vdW  Elec       q    Type
REMARK                         _______ _______ _______ _____ _____    ______ ____
ROOT
ATOM      1  C   UNL     1       0.192  11.646  21.147  0.00  0.00    +0.000 C 
ATOM      2  O   UNL     1       1.363  12.024  21.183  0.00  0.00    +0.000 OA
ATOM      3  N   UNL     1      -0.225  10.536  20.441  0.00  0.00    +0.000 N 
ATOM      4  H   UNL     1      -1.226  10.404  20.349  0.00  0.00    +0.000 HD
ENDROOT
BRANCH   1   8
ATOM      5  C   UNL     1      -1.544  15.124  24.349  0.00  0.00    +0.000 C 
ATOM      6  C   UNL     1      -1.687  14.029  23.341  0.00  0.00    +0.000 A 
ATOM      7  C   UNL     1      -0.536  13.381  22.797  0.00  0.00    +0.000 A 
ATOM      8  C   UNL     1      -0.827  12.423  21.849  0.00  0.00    +0.000 A 
ATOM      9  S   UNL     1      -2.506  12.266  21.643  0.00  0.00    +0.000 S 
ATOM     10  C   UNL     1      -2.863  13.530  22.782  0.00  0.00    +0.000 A 
BRANCH  10  11
ATOM     11  C   UNL     1      -4.270  13.935  23.027  0.00  0.00    +0.000 A 
ATOM     12  C   UNL     1      -5.188  13.045  23.611  0.00  0.00    +0.000 A 
ATOM     13  C   UNL     1      -6.489  13.441  23.936  0.00  0.00    +0.000 A 
ATOM     14  C   UNL     1      -6.914  14.732  23.649  0.00  0.00    +0.000 A 
ATOM     15  C   UNL     1      -6.039  15.622  23.034  0.00  0.00    +0.000 A 
ATOM     16  C   UNL     1      -4.729  15.230  22.734  0.00  0.00    +0.000 A 
ENDBRANCH  10  11
ENDBRANCH   1   8
BRANCH   3  17
ATOM     17  C   UNL     1       0.624   9.606  19.789  0.00  0.00    +0.000 A 
ATOM     18  C   UNL     1       0.994   9.712  18.443  0.00  0.00    +0.000 A 
ATOM     19  C   UNL     1       1.845   8.774  17.851  0.00  0.00    +0.000 A 
ATOM     20  C   UNL     1       2.364   7.712  18.596  0.00  0.00    +0.000 A 
ATOM     21  C   UNL     1       2.050   7.641  19.958  0.00  0.00    +0.000 A 
ATOM     22  C   UNL     1       1.160   8.559  20.541  0.00  0.00    +0.000 A 
BRANCH  20  23
ATOM     23  C   UNL     1       3.334   6.802  17.925  0.00  0.00    +0.000 C 
ATOM     24  O   UNL     1       4.401   7.300  17.564  0.00  0.00    +0.000 OA
ATOM     25  N   UNL     1       3.060   5.452  17.734  0.00  0.00    +0.000 N 
ATOM     26  C   UNL     1       1.797   4.734  17.917  0.00  0.00    +0.000 C 
ATOM     27  C   UNL     1       2.017   3.569  18.892  0.00  0.00    +0.000 C 
ATOM     28  O   UNL     1       3.054   2.691  18.419  0.00  0.00    +0.000 OA
ATOM     29  C   UNL     1       4.296   3.401  18.245  0.00  0.00    +0.000 C 
ATOM     30  C   UNL     1       4.136   4.572  17.268  0.00  0.00    +0.000 C 
ENDBRANCH  20  23
ENDBRANCH   3  17
TORSDOF 4
ENDMDL
MODEL 7
REMARK VINA RESULT:      -7.5      3.095     11.137
REMARK  Name = 
REMARK  5 active torsions:
REMARK  status: ('A' for Active; 'I' for Inactive)
REMARK    1  A    between atoms: C_1  and  C_2
REMARK    2  A    between atoms: C_4  and  C_5
REMARK    3  A    between atoms: N_7  and  C_8
REMARK    4  A    between atoms: C_11  and  C_12
REMARK    5  A    between atoms: C_23  and  C_24
REMARK                            x       y       z     vdW  Elec       q    Type
REMARK                         _______ _______ _______ _____ _____    ______ ____
ROOT
ATOM      1  C   UNL     1       0.855   9.458  19.822  0.00  0.00    +0.000 C 
ATOM      2  O   UNL     1       0.168  10.031  18.977  0.00  0.00    +0.000 OA
ATOM      3  N   UNL     1       0.914   9.852  21.144  0.00  0.00    +0.000 N 
ATOM      4  H   UNL     1       1.626   9.414  21.719  0.00  0.00    +0.000 HD
ENDROOT
BRANCH   1   8
ATOM      5  C   UNL     1       2.993   4.921  20.281  0.00  0.00    +0.000 C 
ATOM      6  C   UNL     1       2.718   6.219  19.590  0.00  0.00    +0.000 A 
ATOM      7  C   UNL     1       1.881   7.206  20.192  0.00  0.00    +0.000 A 
ATOM      8  C   UNL     1       1.687   8.328  19.416  0.00  0.00    +0.000 A 
ATOM      9  S   UNL     1       2.561   8.216  17.963  0.00  0.00    +0.000 S 
ATOM     10  C   UNL     1       3.162   6.628  18.332  0.00  0.00    +0.000 A 
BRANCH  10  11
ATOM     11  C   UNL     1       4.013   5.908  17.351  0.00  0.00    +0.000 A 
ATOM     12  C   UNL     1       3.988   4.506  17.264  0.00  0.00    +0.000 A 
ATOM     13  C   UNL     1       4.708   3.819  16.282  0.00  0.00    +0.000 A 
ATOM     14  C   UNL     1       5.504   4.521  15.386  0.00  0.00    +0.000 A 
ATOM     15  C   UNL     1       5.580   5.907  15.475  0.00  0.00    +0.000 A 
ATOM     16  C   UNL     1       4.836   6.594  16.442  0.00  0.00    +0.000 A 
ENDBRANCH  10  11
ENDBRANCH   1   8
BRANCH   3  17
ATOM     17  C   UNL     1       0.108  10.852  21.743  0.00  0.00    +0.000 A 
ATOM     18  C   UNL     1       0.171  12.206  21.393  0.00  0.00    +0.000 A 
ATOM     19  C   UNL     1      -0.656  13.152  22.007  0.00  0.00    +0.000 A 
ATOM     20  C   UNL     1      -1.582  12.764  22.978  0.00  0.00    +0.000 A 
ATOM     21  C   UNL     1      -1.695  11.404  23.282  0.00  0.00    +0.000 A 
ATOM     22  C   UNL     1      -0.834  10.461  22.697  0.00  0.00    +0.000 A 
BRANCH  20  23
ATOM     23  C   UNL     1      -2.492  13.811  23.525  0.00  0.00    +0.000 C 
ATOM     24  O   UNL     1      -2.050  14.502  24.444  0.00  0.00    +0.000 OA
ATOM     25  N   UNL     1      -3.768  14.012  23.012  0.00  0.00    +0.000 N 
ATOM     26  C   UNL     1      -4.525  13.182  22.071  0.00  0.00    +0.000 C 
ATOM     27  C   UNL     1      -4.944  14.038  20.869  0.00  0.00    +0.000 C 
ATOM     28  O   UNL     1      -5.710  15.180  21.293  0.00  0.00    +0.000 OA
ATOM     29  C   UNL     1      -4.961  15.996  22.214  0.00  0.00    +0.000 C 
ATOM     30  C   UNL     1      -4.525  15.191  23.444  0.00  0.00    +0.000 C 
ENDBRANCH  20  23
ENDBRANCH   3  17
TORSDOF 4
ENDMDL
MODEL 8
REMARK VINA RESULT:      -7.5      1.056      1.611
REMARK  Name = 
REMARK  5 active torsions:
REMARK  status: ('A' for Active; 'I' for Inactive)
REMARK    1  A    between atoms: C_1  and  C_2
REMARK    2  A    between atoms: C_4  and  C_5
REMARK    3  A    between atoms: N_7  and  C_8
REMARK    4  A    between atoms: C_11  and  C_12
REMARK    5  A    between atoms: C_23  and  C_24
REMARK                            x       y       z     vdW  Elec       q    Type
REMARK                         _______ _______ _______ _____ _____    ______ ____
ROOT
ATOM      1  C   UNL     1       0.402  11.223  20.849  0.00  0.00    +0.000 C 
ATOM      2  O   UNL     1       1.488  11.321  21.420  0.00  0.00    +0.000 OA
ATOM      3  N   UNL     1       0.149  10.297  19.856  0.00  0.00    +0.000 N 
ATOM      4  H   UNL     1      -0.720  10.404  19.344  0.00  0.00    +0.000 HD
ENDROOT
BRANCH   1   8
ATOM      5  C   UNL     1      -4.244  13.157  20.667  0.00  0.00    +0.000 C 
ATOM      6  C   UNL     1      -2.826  13.098  21.138  0.00  0.00    +0.000 A 
ATOM      7  C   UNL     1      -1.930  12.105  20.637  0.00  0.00    +0.000 A 
ATOM      8  C   UNL     1      -0.671  12.151  21.197  0.00  0.00    +0.000 A 
ATOM      9  S   UNL     1      -0.548  13.432  22.306  0.00  0.00    +0.000 S 
ATOM     10  C   UNL     1      -2.207  13.905  22.093  0.00  0.00    +0.000 A 
BRANCH  10  11
ATOM     11  C   UNL     1      -2.770  15.025  22.889  0.00  0.00    +0.000 A 
ATOM     12  C   UNL     1      -3.156  14.838  24.227  0.00  0.00    +0.000 A 
ATOM     13  C   UNL     1      -3.596  15.902  25.020  0.00  0.00    +0.000 A 
ATOM     14  C   UNL     1      -3.696  17.177  24.477  0.00  0.00    +0.000 A 
ATOM     15  C   UNL     1      -3.358  17.384  23.143  0.00  0.00    +0.000 A 
ATOM     16  C   UNL     1      -2.892  16.320  22.360  0.00  0.00    +0.000 A 
ENDBRANCH  10  11
ENDBRANCH   1   8
BRANCH   3  17
ATOM     17  C   UNL     1       1.025   9.256  19.457  0.00  0.00    +0.000 A 
ATOM     18  C   UNL     1       1.399   8.200  20.296  0.00  0.00    +0.000 A 
ATOM     19  C   UNL     1       2.258   7.191  19.849  0.00  0.00    +0.000 A 
ATOM     20  C   UNL     1       2.753   7.203  18.543  0.00  0.00    +0.000 A 
ATOM     21  C   UNL     1       2.328   8.221  17.682  0.00  0.00    +0.000 A 
ATOM     22  C   UNL     1       1.500   9.257  18.145  0.00  0.00    +0.000 A 
BRANCH  20  23
ATOM     23  C   UNL     1       3.591   6.050  18.107  0.00  0.00    +0.000 C 
ATOM     24  O   UNL     1       4.803   6.248  18.022  0.00  0.00    +0.000 OA
ATOM     25  N   UNL     1       3.036   4.805  17.830  0.00  0.00    +0.000 N 
ATOM     26  C   UNL     1       1.626   4.436  17.691  0.00  0.00    +0.000 C 
ATOM     27  C   UNL     1       1.305   3.297  18.668  0.00  0.00    +0.000 C 
ATOM     28  O   UNL     1       2.167   2.167  18.441  0.00  0.00    +0.000 OA
ATOM     29  C   UNL     1       3.552   2.534  18.584  0.00  0.00    +0.000 C 
ATOM     30  C   UNL     1       3.932   3.664  17.620  0.00  0.00    +0.000 C 
ENDBRANCH  20  23
ENDBRANCH   3  17
TORSDOF 4
ENDMDL
MODEL 9
REMARK VINA RESULT:      -7.5      1.533      2.040
REMARK  Name = 
REMARK  5 active torsions:
REMARK  status: ('A' for Active; 'I' for Inactive)
REMARK    1  A    between atoms: C_1  and  C_2
REMARK    2  A    between atoms: C_4  and  C_5
REMARK    3  A    between atoms: N_7  and  C_8
REMARK    4  A    between atoms: C_11  and  C_12
REMARK    5  A    between atoms: C_23  and  C_24
REMARK                            x       y       z     vdW  Elec       q    Type
REMARK                         _______ _______ _______ _____ _____    ______ ____
ROOT
ATOM      1  C   UNL     1      -0.465  11.036  19.602  0.00  0.00    +0.000 C 
ATOM      2  O   UNL     1      -1.057  10.637  18.599  0.00  0.00    +0.000 OA
ATOM      3  N   UNL     1       0.629  10.391  20.143  0.00  0.00    +0.000 N 
ATOM      4  H   UNL     1       0.942  10.711  21.053  0.00  0.00    +0.000 HD
ENDROOT
BRANCH   1   8
ATOM      5  C   UNL     1      -1.446  15.944  20.163  0.00  0.00    +0.000 C 
ATOM      6  C   UNL     1      -1.423  14.515  20.603  0.00  0.00    +0.000 A 
ATOM      7  C   UNL     1      -0.864  13.501  19.767  0.00  0.00    +0.000 A 
ATOM      8  C   UNL     1      -0.955  12.228  20.289  0.00  0.00    +0.000 A 
ATOM      9  S   UNL     1      -1.680  12.256  21.826  0.00  0.00    +0.000 S 
ATOM     10  C   UNL     1      -1.937  13.975  21.782  0.00  0.00    +0.000 A 
BRANCH  10  11
ATOM     11  C   UNL     1      -2.633  14.651  22.905  0.00  0.00    +0.000 A 
ATOM     12  C   UNL     1      -1.962  14.933  24.107  0.00  0.00    +0.000 A 
ATOM     13  C   UNL     1      -2.572  15.655  25.137  0.00  0.00    +0.000 A 
ATOM     14  C   UNL     1      -3.888  16.080  25.002  0.00  0.00    +0.000 A 
ATOM     15  C   UNL     1      -4.590  15.780  23.838  0.00  0.00    +0.000 A 
ATOM     16  C   UNL     1      -3.966  15.080  22.798  0.00  0.00    +0.000 A 
ENDBRANCH  10  11
ENDBRANCH   1   8
BRANCH   3  17
ATOM     17  C   UNL     1       1.305   9.288  19.564  0.00  0.00    +0.000 A 
ATOM     18  C   UNL     1       1.778   9.279  18.246  0.00  0.00    +0.000 A 
ATOM     19  C   UNL     1       2.449   8.168  17.726  0.00  0.00    +0.000 A 
ATOM     20  C   UNL     1       2.681   7.041  18.518  0.00  0.00    +0.000 A 
ATOM     21  C   UNL     1       2.270   7.072  19.855  0.00  0.00    +0.000 A 
ATOM     22  C   UNL     1       1.557   8.171  20.363  0.00  0.00    +0.000 A 
BRANCH  20  23
ATOM     23  C   UNL     1       3.481   5.930  17.927  0.00  0.00    +0.000 C 
ATOM     24  O   UNL     1       4.672   6.158  17.716  0.00  0.00    +0.000 OA
ATOM     25  N   UNL     1       2.917   4.690  17.648  0.00  0.00    +0.000 N 
ATOM     26  C   UNL     1       1.505   4.299  17.651  0.00  0.00    +0.000 C 
ATOM     27  C   UNL     1       1.316   3.103  18.595  0.00  0.00    +0.000 C 
ATOM     28  O   UNL     1       2.162   2.006  18.210  0.00  0.00    +0.000 OA
ATOM     29  C   UNL     1       3.550   2.393  18.213  0.00  0.00    +0.000 C 
ATOM     30  C   UNL     1       3.799   3.581  17.275  0.00  0.00    +0.000 C 
ENDBRANCH  20  23
ENDBRANCH   3  17
TORSDOF 4
ENDMDL
