MODEL 1
REMARK VINA RESULT:      -8.2      0.000      0.000
REMARK  Name = 
REMARK  5 active torsions:
REMARK  status: ('A' for Active; 'I' for Inactive)
REMARK    1  A    between atoms: C_2  and  C_3
REMARK    2  A    between atoms: C_3  and  N_4
REMARK    3  A    between atoms: C_7  and  C_8
REMARK    4  A    between atoms: C_8  and  O_9
REMARK    5  A    between atoms: O_9  and  C_10
REMARK                            x       y       z     vdW  Elec       q    Type
REMARK                         _______ _______ _______ _____ _____    ______ ____
ROOT
ATOM      1  C   UNL     1       3.125   6.871  18.250  0.00  0.00    +0.000 A 
ATOM      2  N   UNL     1       2.418   6.445  19.326  0.00  0.00    +0.000 NA
ATOM      3  C   UNL     1       2.600   5.207  19.802  0.00  0.00    +0.000 A 
ATOM      4  C   UNL     1       1.890   4.797  20.930  0.00  0.00    +0.000 A 
ATOM      5  C   UNL     1       2.078   3.540  21.514  0.00  0.00    +0.000 A 
ATOM      6  C   UNL     1       2.959   2.644  20.938  0.00  0.00    +0.000 A 
ATOM      7  C   UNL     1       3.636   3.016  19.784  0.00  0.00    +0.000 A 
ATOM      8  C   UNL     1       3.490   4.309  19.206  0.00  0.00    +0.000 A 
ATOM      9  C   UNL     1       4.211   4.757  18.059  0.00  0.00    +0.000 A 
ATOM     10  C   UNL     1       4.038   6.060  17.569  0.00  0.00    +0.000 A 
ATOM     11  C   UNL     1       4.837   6.545  16.392  0.00  0.00    +0.000 C 
ATOM     12  C   UNL     1       5.803   5.548  15.747  0.00  0.00    +0.000 C 
ATOM     13  C   UNL     1       5.907   4.160  16.333  0.00  0.00    +0.000 C 
ATOM     14  N   UNL     1       4.978   3.818  17.373  0.00  0.00    +0.000 N 
ATOM     15  H   UNL     1       5.374   3.123  17.997  0.00  0.00    +0.000 HD
ENDROOT
BRANCH   1  16
ATOM     16  O   UNL     1       2.943   8.208  17.866  0.00  0.00    +0.000 OA
BRANCH  16  17
ATOM     17  C   UNL     1       1.854   8.793  18.609  0.00  0.00    +0.000 C 
BRANCH  17  21
ATOM     18  N   UNL     1      -0.372  11.395  20.188  0.00  0.00    +0.000 NA
ATOM     19  C   UNL     1       1.095  11.523  20.140  0.00  0.00    +0.000 C 
ATOM     20  C   UNL     1       1.652  11.381  18.717  0.00  0.00    +0.000 C 
ATOM     21  C   UNL     1       1.228  10.080  18.024  0.00  0.00    +0.000 C 
ATOM     22  C   UNL     1      -0.310   9.984  18.131  0.00  0.00    +0.000 C 
ATOM     23  C   UNL     1      -0.815  10.129  19.579  0.00  0.00    +0.000 C 
BRANCH  18  24
ATOM     24  C   UNL     1      -0.869  11.490  21.577  0.00  0.00    +0.000 C 
BRANCH  24  26
ATOM     25  C   UNL     1       0.000   9.504  23.147  0.00  0.00    +0.000 C 
ATOM     26  C   UNL     1      -0.372  10.398  22.441  0.00  0.00    +0.000 C 
ENDBRANCH  24  26
ENDBRANCH  18  24
ENDBRANCH  17  21
ENDBRANCH  16  17
ENDBRANCH   1  16
TORSDOF 5
ENDMDL
MODEL 2
REMARK VINA RESULT:      -8.0      1.349      1.359
REMARK  Name = 
REMARK  5 active torsions:
REMARK  status: ('A' for Active; 'I' for Inactive)
REMARK    1  A    between atoms: C_2  and  C_3
REMARK    2  A    between atoms: C_3  and  N_4
REMARK    3  A    between atoms: C_7  and  C_8
REMARK    4  A    between atoms: C_8  and  O_9
REMARK    5  A    between atoms: O_9  and  C_10
REMARK                            x       y       z     vdW  Elec       q    Type
REMARK                         _______ _______ _______ _____ _____    ______ ____
ROOT
ATOM      1  C   UNL     1       3.444   6.765  17.898  0.00  0.00    +0.000 A 
ATOM      2  N   UNL     1       2.333   6.032  18.163  0.00  0.00    +0.000 NA
ATOM      3  C   UNL     1       2.406   4.696  18.204  0.00  0.00    +0.000 A 
ATOM      4  C   UNL     1       1.262   3.958  18.511  0.00  0.00    +0.000 A 
ATOM      5  C   UNL     1       1.282   2.565  18.632  0.00  0.00    +0.000 A 
ATOM      6  C   UNL     1       2.458   1.875  18.395  0.00  0.00    +0.000 A 
ATOM      7  C   UNL     1       3.594   2.589  18.036  0.00  0.00    +0.000 A 
ATOM      8  C   UNL     1       3.599   4.011  17.957  0.00  0.00    +0.000 A 
ATOM      9  C   UNL     1       4.757   4.790  17.655  0.00  0.00    +0.000 A 
ATOM     10  C   UNL     1       4.689   6.191  17.629  0.00  0.00    +0.000 A 
ATOM     11  C   UNL     1       5.921   7.009  17.362  0.00  0.00    +0.000 C 
ATOM     12  C   UNL     1       7.219   6.245  17.087  0.00  0.00    +0.000 C 
ATOM     13  C   UNL     1       7.189   4.735  17.117  0.00  0.00    +0.000 C 
ATOM     14  N   UNL     1       5.904   4.109  17.256  0.00  0.00    +0.000 N 
ATOM     15  H   UNL     1       5.989   3.208  17.714  0.00  0.00    +0.000 HD
ENDROOT
BRANCH   1  16
ATOM     16  O   UNL     1       3.306   8.159  17.959  0.00  0.00    +0.000 OA
BRANCH  16  17
ATOM     17  C   UNL     1       1.993   8.508  18.446  0.00  0.00    +0.000 C 
BRANCH  17  21
ATOM     18  N   UNL     1      -0.203  11.156  19.989  0.00  0.00    +0.000 NA
ATOM     19  C   UNL     1       1.261  11.294  19.885  0.00  0.00    +0.000 C 
ATOM     20  C   UNL     1       1.770  11.096  18.451  0.00  0.00    +0.000 C 
ATOM     21  C   UNL     1       1.335   9.763  17.828  0.00  0.00    +0.000 C 
ATOM     22  C   UNL     1      -0.198   9.659  17.992  0.00  0.00    +0.000 C 
ATOM     23  C   UNL     1      -0.654   9.862  19.449  0.00  0.00    +0.000 C 
BRANCH  18  24
ATOM     24  C   UNL     1      -0.653  11.307  21.389  0.00  0.00    +0.000 C 
BRANCH  24  26
ATOM     25  C   UNL     1       0.254   9.381  23.012  0.00  0.00    +0.000 C 
ATOM     26  C   UNL     1      -0.152  10.232  22.272  0.00  0.00    +0.000 C 
ENDBRANCH  24  26
ENDBRANCH  18  24
ENDBRANCH  17  21
ENDBRANCH  16  17
ENDBRANCH   1  16
TORSDOF 5
ENDMDL
MODEL 3
REMARK VINA RESULT:      -7.6      0.628      1.046
REMARK  Name = 
REMARK  5 active torsions:
REMARK  status: ('A' for Active; 'I' for Inactive)
REMARK    1  A    between atoms: C_2  and  C_3
REMARK    2  A    between atoms: C_3  and  N_4
REMARK    3  A    between atoms: C_7  and  C_8
REMARK    4  A    between atoms: C_8  and  O_9
REMARK    5  A    between atoms: O_9  and  C_10
REMARK                            x       y       z     vdW  Elec       q    Type
REMARK                         _______ _______ _______ _____ _____    ______ ____
ROOT
ATOM      1  C   UNL     1       3.123   6.852  18.200  0.00  0.00    +0.000 A 
ATOM      2  N   UNL     1       2.414   6.425  19.275  0.00  0.00    +0.000 NA
ATOM      3  C   UNL     1       2.610   5.194  19.763  0.00  0.00    +0.000 A 
ATOM      4  C   UNL     1       1.896   4.783  20.889  0.00  0.00    +0.000 A 
ATOM      5  C   UNL     1       2.098   3.534  21.485  0.00  0.00    +0.000 A 
ATOM      6  C   UNL     1       2.996   2.645  20.924  0.00  0.00    +0.000 A 
ATOM      7  C   UNL     1       3.676   3.017  19.771  0.00  0.00    +0.000 A 
ATOM      8  C   UNL     1       3.517   4.303  19.181  0.00  0.00    +0.000 A 
ATOM      9  C   UNL     1       4.241   4.752  18.036  0.00  0.00    +0.000 A 
ATOM     10  C   UNL     1       4.052   6.049  17.533  0.00  0.00    +0.000 A 
ATOM     11  C   UNL     1       4.854   6.535  16.359  0.00  0.00    +0.000 C 
ATOM     12  C   UNL     1       5.839   5.547  15.730  0.00  0.00    +0.000 C 
ATOM     13  C   UNL     1       5.957   4.165  16.328  0.00  0.00    +0.000 C 
ATOM     14  N   UNL     1       5.025   3.818  17.364  0.00  0.00    +0.000 N 
ATOM     15  H   UNL     1       5.426   3.134  17.997  0.00  0.00    +0.000 HD
ENDROOT
BRANCH   1  16
ATOM     16  O   UNL     1       2.925   8.183  17.804  0.00  0.00    +0.000 OA
BRANCH  16  17
ATOM     17  C   UNL     1       1.863   8.778  18.578  0.00  0.00    +0.000 C 
BRANCH  17  21
ATOM     18  N   UNL     1      -0.285  11.407  20.220  0.00  0.00    +0.000 NA
ATOM     19  C   UNL     1       1.182  11.520  20.124  0.00  0.00    +0.000 C 
ATOM     20  C   UNL     1       1.690  11.368  18.683  0.00  0.00    +0.000 C 
ATOM     21  C   UNL     1       1.230  10.069  18.009  0.00  0.00    +0.000 C 
ATOM     22  C   UNL     1      -0.304   9.989  18.167  0.00  0.00    +0.000 C 
ATOM     23  C   UNL     1      -0.759  10.143  19.630  0.00  0.00    +0.000 C 
BRANCH  18  24
ATOM     24  C   UNL     1      -0.735  11.511  21.625  0.00  0.00    +0.000 C 
BRANCH  24  26
ATOM     25  C   UNL     1      -0.540  14.011  22.564  0.00  0.00    +0.000 C 
ATOM     26  C   UNL     1      -0.634  12.886  22.159  0.00  0.00    +0.000 C 
ENDBRANCH  24  26
ENDBRANCH  18  24
ENDBRANCH  17  21
ENDBRANCH  16  17
ENDBRANCH   1  16
TORSDOF 5
ENDMDL
MODEL 4
REMARK VINA RESULT:      -7.5      2.544      6.702
REMARK  Name = 
REMARK  5 active torsions:
REMARK  status: ('A' for Active; 'I' for Inactive)
REMARK    1  A    between atoms: C_2  and  C_3
REMARK    2  A    between atoms: C_3  and  N_4
REMARK    3  A    between atoms: C_7  and  C_8
REMARK    4  A    between atoms: C_8  and  O_9
REMARK    5  A    between atoms: O_9  and  C_10
REMARK                            x       y       z     vdW  Elec       q    Type
REMARK                         _______ _______ _______ _____ _____    ______ ____
ROOT
ATOM      1  C   UNL     1       3.735   4.598  18.233  0.00  0.00    +0.000 A 
ATOM      2  N   UNL     1       3.457   5.867  17.842  0.00  0.00    +0.000 NA
ATOM      3  C   UNL     1       2.729   6.668  18.630  0.00  0.00    +0.000 A 
ATOM      4  C   UNL     1       2.480   7.980  18.228  0.00  0.00    +0.000 A 
ATOM      5  C   UNL     1       1.780   8.887  19.031  0.00  0.00    +0.000 A 
ATOM      6  C   UNL     1       1.269   8.470  20.246  0.00  0.00    +0.000 A 
ATOM      7  C   UNL     1       1.460   7.151  20.638  0.00  0.00    +0.000 A 
ATOM      8  C   UNL     1       2.212   6.232  19.853  0.00  0.00    +0.000 A 
ATOM      9  C   UNL     1       2.489   4.887  20.245  0.00  0.00    +0.000 A 
ATOM     10  C   UNL     1       3.267   4.051  19.432  0.00  0.00    +0.000 A 
ATOM     11  C   UNL     1       3.600   2.653  19.872  0.00  0.00    +0.000 C 
ATOM     12  C   UNL     1       3.022   2.188  21.211  0.00  0.00    +0.000 C 
ATOM     13  C   UNL     1       2.178   3.154  22.008  0.00  0.00    +0.000 C 
ATOM     14  N   UNL     1       1.847   4.403  21.383  0.00  0.00    +0.000 N 
ATOM     15  H   UNL     1       1.710   5.129  22.078  0.00  0.00    +0.000 HD
ENDROOT
BRANCH   1  16
ATOM     16  O   UNL     1       4.576   3.851  17.395  0.00  0.00    +0.000 OA
BRANCH  16  17
ATOM     17  C   UNL     1       4.317   4.178  16.014  0.00  0.00    +0.000 C 
BRANCH  17  21
ATOM     18  N   UNL     1       7.380   6.202  16.874  0.00  0.00    +0.000 NA
ATOM     19  C   UNL     1       7.340   4.732  16.976  0.00  0.00    +0.000 C 
ATOM     20  C   UNL     1       6.889   4.064  15.670  0.00  0.00    +0.000 C 
ATOM     21  C   UNL     1       5.539   4.580  15.156  0.00  0.00    +0.000 C 
ATOM     22  C   UNL     1       5.629   6.121  15.099  0.00  0.00    +0.000 C 
ATOM     23  C   UNL     1       6.081   6.739  16.435  0.00  0.00    +0.000 C 
BRANCH  18  24
ATOM     24  C   UNL     1       7.773   6.813  18.162  0.00  0.00    +0.000 C 
BRANCH  24  26
ATOM     25  C   UNL     1       8.338   9.422  17.959  0.00  0.00    +0.000 C 
ATOM     26  C   UNL     1       8.099   8.250  18.039  0.00  0.00    +0.000 C 
ENDBRANCH  24  26
ENDBRANCH  18  24
ENDBRANCH  17  21
ENDBRANCH  16  17
ENDBRANCH   1  16
TORSDOF 5
ENDMDL
MODEL 5
REMARK VINA RESULT:      -7.5      0.971      3.360
REMARK  Name = 
REMARK  5 active torsions:
REMARK  status: ('A' for Active; 'I' for Inactive)
REMARK    1  A    between atoms: C_2  and  C_3
REMARK    2  A    between atoms: C_3  and  N_4
REMARK    3  A    between atoms: C_7  and  C_8
REMARK    4  A    between atoms: C_8  and  O_9
REMARK    5  A    between atoms: O_9  and  C_10
REMARK                            x       y       z     vdW  Elec       q    Type
REMARK                         _______ _______ _______ _____ _____    ______ ____
ROOT
ATOM      1  C   UNL     1       2.891   6.992  18.755  0.00  0.00    +0.000 A 
ATOM      2  N   UNL     1       3.694   7.220  17.685  0.00  0.00    +0.000 NA
ATOM      3  C   UNL     1       4.292   6.195  17.064  0.00  0.00    +0.000 A 
ATOM      4  C   UNL     1       5.087   6.444  15.946  0.00  0.00    +0.000 A 
ATOM      5  C   UNL     1       5.690   5.415  15.215  0.00  0.00    +0.000 A 
ATOM      6  C   UNL     1       5.540   4.104  15.629  0.00  0.00    +0.000 A 
ATOM      7  C   UNL     1       4.796   3.842  16.772  0.00  0.00    +0.000 A 
ATOM      8  C   UNL     1       4.138   4.875  17.498  0.00  0.00    +0.000 A 
ATOM      9  C   UNL     1       3.310   4.648  18.639  0.00  0.00    +0.000 A 
ATOM     10  C   UNL     1       2.667   5.716  19.281  0.00  0.00    +0.000 A 
ATOM     11  C   UNL     1       1.756   5.467  20.450  0.00  0.00    +0.000 C 
ATOM     12  C   UNL     1       1.602   4.017  20.917  0.00  0.00    +0.000 C 
ATOM     13  C   UNL     1       2.351   2.936  20.174  0.00  0.00    +0.000 C 
ATOM     14  N   UNL     1       3.281   3.358  19.165  0.00  0.00    +0.000 N 
ATOM     15  H   UNL     1       3.377   2.652  18.444  0.00  0.00    +0.000 HD
ENDROOT
BRANCH   1  16
ATOM     16  O   UNL     1       2.233   8.106  19.296  0.00  0.00    +0.000 OA
BRANCH  16  17
ATOM     17  C   UNL     1       1.027   8.379  18.552  0.00  0.00    +0.000 C 
BRANCH  17  21
ATOM     18  N   UNL     1      -0.375  11.512  20.112  0.00  0.00    +0.000 NA
ATOM     19  C   UNL     1       1.059  11.175  20.149  0.00  0.00    +0.000 C 
ATOM     20  C   UNL     1       1.634  10.897  18.753  0.00  0.00    +0.000 C 
ATOM     21  C   UNL     1       0.871   9.809  17.986  0.00  0.00    +0.000 C 
ATOM     22  C   UNL     1      -0.624  10.198  18.006  0.00  0.00    +0.000 C 
ATOM     23  C   UNL     1      -1.150  10.462  19.429  0.00  0.00    +0.000 C 
BRANCH  18  24
ATOM     24  C   UNL     1      -0.906  11.729  21.475  0.00  0.00    +0.000 C 
BRANCH  24  26
ATOM     25  C   UNL     1      -0.380   9.714  23.159  0.00  0.00    +0.000 C 
ATOM     26  C   UNL     1      -0.609  10.607  22.392  0.00  0.00    +0.000 C 
ENDBRANCH  24  26
ENDBRANCH  18  24
ENDBRANCH  17  21
ENDBRANCH  16  17
ENDBRANCH   1  16
TORSDOF 5
ENDMDL
MODEL 6
REMARK VINA RESULT:      -7.5      1.667      4.179
REMARK  Name = 
REMARK  5 active torsions:
REMARK  status: ('A' for Active; 'I' for Inactive)
REMARK    1  A    between atoms: C_2  and  C_3
REMARK    2  A    between atoms: C_3  and  N_4
REMARK    3  A    between atoms: C_7  and  C_8
REMARK    4  A    between atoms: C_8  and  O_9
REMARK    5  A    between atoms: O_9  and  C_10
REMARK                            x       y       z     vdW  Elec       q    Type
REMARK                         _______ _______ _______ _____ _____    ______ ____
ROOT
ATOM      1  C   UNL     1       2.734   6.390  19.547  0.00  0.00    +0.000 A 
ATOM      2  N   UNL     1       3.574   6.882  18.601  0.00  0.00    +0.000 NA
ATOM      3  C   UNL     1       4.074   6.071  17.660  0.00  0.00    +0.000 A 
ATOM      4  C   UNL     1       4.909   6.600  16.676  0.00  0.00    +0.000 A 
ATOM      5  C   UNL     1       5.414   5.822  15.629  0.00  0.00    +0.000 A 
ATOM      6  C   UNL     1       5.125   4.470  15.581  0.00  0.00    +0.000 A 
ATOM      7  C   UNL     1       4.338   3.916  16.583  0.00  0.00    +0.000 A 
ATOM      8  C   UNL     1       3.778   4.705  17.627  0.00  0.00    +0.000 A 
ATOM      9  C   UNL     1       2.913   4.192  18.640  0.00  0.00    +0.000 A 
ATOM     10  C   UNL     1       2.373   5.042  19.617  0.00  0.00    +0.000 A 
ATOM     11  C   UNL     1       1.422   4.507  20.651  0.00  0.00    +0.000 C 
ATOM     12  C   UNL     1       1.113   3.008  20.605  0.00  0.00    +0.000 C 
ATOM     13  C   UNL     1       1.759   2.170  19.528  0.00  0.00    +0.000 C 
ATOM     14  N   UNL     1       2.744   2.811  18.702  0.00  0.00    +0.000 N 
ATOM     15  H   UNL     1       2.778   2.383  17.783  0.00  0.00    +0.000 HD
ENDROOT
BRANCH   1  16
ATOM     16  O   UNL     1       2.185   7.317  20.444  0.00  0.00    +0.000 OA
BRANCH  16  17
ATOM     17  C   UNL     1       1.138   8.071  19.798  0.00  0.00    +0.000 C 
BRANCH  17  21
ATOM     18  N   UNL     1      -1.059  10.811  18.424  0.00  0.00    +0.000 NA
ATOM     19  C   UNL     1      -0.862  10.595  19.868  0.00  0.00    +0.000 C 
ATOM     20  C   UNL     1       0.621  10.575  20.264  0.00  0.00    +0.000 C 
ATOM     21  C   UNL     1       1.448   9.551  19.474  0.00  0.00    +0.000 C 
ATOM     22  C   UNL     1       1.179   9.804  17.974  0.00  0.00    +0.000 C 
ATOM     23  C   UNL     1      -0.323   9.811  17.632  0.00  0.00    +0.000 C 
BRANCH  18  24
ATOM     24  C   UNL     1      -2.495  10.778  18.073  0.00  0.00    +0.000 C 
BRANCH  24  26
ATOM     25  C   UNL     1      -2.932  10.810  15.432  0.00  0.00    +0.000 C 
ATOM     26  C   UNL     1      -2.730  10.812  16.613  0.00  0.00    +0.000 C 
ENDBRANCH  24  26
ENDBRANCH  18  24
ENDBRANCH  17  21
ENDBRANCH  16  17
ENDBRANCH   1  16
TORSDOF 5
ENDMDL
MODEL 7
REMARK VINA RESULT:      -7.4      1.654      4.016
REMARK  Name = 
REMARK  5 active torsions:
REMARK  status: ('A' for Active; 'I' for Inactive)
REMARK    1  A    between atoms: C_2  and  C_3
REMARK    2  A    between atoms: C_3  and  N_4
REMARK    3  A    between atoms: C_7  and  C_8
REMARK    4  A    between atoms: C_8  and  O_9
REMARK    5  A    between atoms: O_9  and  C_10
REMARK                            x       y       z     vdW  Elec       q    Type
REMARK                         _______ _______ _______ _____ _____    ______ ____
ROOT
ATOM      1  C   UNL     1       2.519   6.483  19.372  0.00  0.00    +0.000 A 
ATOM      2  N   UNL     1       3.369   6.960  18.428  0.00  0.00    +0.000 NA
ATOM      3  C   UNL     1       3.971   6.119  17.578  0.00  0.00    +0.000 A 
ATOM      4  C   UNL     1       4.816   6.629  16.593  0.00  0.00    +0.000 A 
ATOM      5  C   UNL     1       5.426   5.812  15.636  0.00  0.00    +0.000 A 
ATOM      6  C   UNL     1       5.234   4.443  15.684  0.00  0.00    +0.000 A 
ATOM      7  C   UNL     1       4.439   3.912  16.691  0.00  0.00    +0.000 A 
ATOM      8  C   UNL     1       3.773   4.736  17.642  0.00  0.00    +0.000 A 
ATOM      9  C   UNL     1       2.896   4.241  18.654  0.00  0.00    +0.000 A 
ATOM     10  C   UNL     1       2.249   5.121  19.534  0.00  0.00    +0.000 A 
ATOM     11  C   UNL     1       1.287   4.600  20.564  0.00  0.00    +0.000 C 
ATOM     12  C   UNL     1       1.086   3.083  20.625  0.00  0.00    +0.000 C 
ATOM     13  C   UNL     1       1.842   2.215  19.649  0.00  0.00    +0.000 C 
ATOM     14  N   UNL     1       2.820   2.860  18.819  0.00  0.00    +0.000 N 
ATOM     15  H   UNL     1       2.930   2.366  17.940  0.00  0.00    +0.000 HD
ENDROOT
BRANCH   1  16
ATOM     16  O   UNL     1       1.862   7.434  20.165  0.00  0.00    +0.000 OA
BRANCH  16  17
ATOM     17  C   UNL     1       1.720   8.673  19.440  0.00  0.00    +0.000 C 
BRANCH  17  21
ATOM     18  N   UNL     1       0.682  12.216  20.210  0.00  0.00    +0.000 NA
ATOM     19  C   UNL     1       0.953  11.743  18.841  0.00  0.00    +0.000 C 
ATOM     20  C   UNL     1       0.137  10.494  18.477  0.00  0.00    +0.000 C 
ATOM     21  C   UNL     1       0.324   9.336  19.466  0.00  0.00    +0.000 C 
ATOM     22  C   UNL     1       0.058   9.894  20.881  0.00  0.00    +0.000 C 
ATOM     23  C   UNL     1       0.904  11.143  21.195  0.00  0.00    +0.000 C 
BRANCH  18  24
ATOM     24  C   UNL     1       1.517  13.390  20.542  0.00  0.00    +0.000 C 
BRANCH  24  26
ATOM     25  C   UNL     1       1.131  15.453  18.881  0.00  0.00    +0.000 C 
ATOM     26  C   UNL     1       1.313  14.521  19.612  0.00  0.00    +0.000 C 
ENDBRANCH  24  26
ENDBRANCH  18  24
ENDBRANCH  17  21
ENDBRANCH  16  17
ENDBRANCH   1  16
TORSDOF 5
ENDMDL
MODEL 8
REMARK VINA RESULT:      -7.4      1.146      2.151
REMARK  Name = 
REMARK  5 active torsions:
REMARK  status: ('A' for Active; 'I' for Inactive)
REMARK    1  A    between atoms: C_2  and  C_3
REMARK    2  A    between atoms: C_3  and  N_4
REMARK    3  A    between atoms: C_7  and  C_8
REMARK    4  A    between atoms: C_8  and  O_9
REMARK    5  A    between atoms: O_9  and  C_10
REMARK                            x       y       z     vdW  Elec       q    Type
REMARK                         _______ _______ _______ _____ _____    ______ ____
ROOT
ATOM      1  C   UNL     1       3.014   6.976  18.146  0.00  0.00    +0.000 A 
ATOM      2  N   UNL     1       2.194   6.535  19.133  0.00  0.00    +0.000 NA
ATOM      3  C   UNL     1       2.192   5.241  19.477  0.00  0.00    +0.000 A 
ATOM      4  C   UNL     1       1.368   4.811  20.517  0.00  0.00    +0.000 A 
ATOM      5  C   UNL     1       1.363   3.486  20.967  0.00  0.00    +0.000 A 
ATOM      6  C   UNL     1       2.162   2.548  20.338  0.00  0.00    +0.000 A 
ATOM      7  C   UNL     1       2.949   2.948  19.265  0.00  0.00    +0.000 A 
ATOM      8  C   UNL     1       2.999   4.302  18.828  0.00  0.00    +0.000 A 
ATOM      9  C   UNL     1       3.840   4.770  17.774  0.00  0.00    +0.000 A 
ATOM     10  C   UNL     1       3.859   6.128  17.424  0.00  0.00    +0.000 A 
ATOM     11  C   UNL     1       4.783   6.626  16.348  0.00  0.00    +0.000 C 
ATOM     12  C   UNL     1       5.657   5.585  15.643  0.00  0.00    +0.000 C 
ATOM     13  C   UNL     1       5.552   4.142  16.076  0.00  0.00    +0.000 C 
ATOM     14  N   UNL     1       4.525   3.816  17.025  0.00  0.00    +0.000 N 
ATOM     15  H   UNL     1       4.793   3.015  17.587  0.00  0.00    +0.000 HD
ENDROOT
BRANCH   1  16
ATOM     16  O   UNL     1       3.022   8.357  17.904  0.00  0.00    +0.000 OA
BRANCH  16  17
ATOM     17  C   UNL     1       1.739   8.926  18.237  0.00  0.00    +0.000 C 
BRANCH  17  21
ATOM     18  N   UNL     1      -0.960  11.302  19.374  0.00  0.00    +0.000 NA
ATOM     19  C   UNL     1      -0.791   9.954  19.945  0.00  0.00    +0.000 C 
ATOM     20  C   UNL     1       0.635   9.705  20.456  0.00  0.00    +0.000 C 
ATOM     21  C   UNL     1       1.714   9.952  19.394  0.00  0.00    +0.000 C 
ATOM     22  C   UNL     1       1.471  11.361  18.812  0.00  0.00    +0.000 C 
ATOM     23  C   UNL     1       0.027  11.556  18.311  0.00  0.00    +0.000 C 
BRANCH  18  24
ATOM     24  C   UNL     1      -2.330  11.491  18.851  0.00  0.00    +0.000 C 
BRANCH  24  26
ATOM     25  C   UNL     1      -2.925   9.805  16.858  0.00  0.00    +0.000 C 
ATOM     26  C   UNL     1      -2.663  10.547  17.762  0.00  0.00    +0.000 C 
ENDBRANCH  24  26
ENDBRANCH  18  24
ENDBRANCH  17  21
ENDBRANCH  16  17
ENDBRANCH   1  16
TORSDOF 5
ENDMDL
MODEL 9
REMARK VINA RESULT:      -7.4      1.226      3.285
REMARK  Name = 
REMARK  5 active torsions:
REMARK  status: ('A' for Active; 'I' for Inactive)
REMARK    1  A    between atoms: C_2  and  C_3
REMARK    2  A    between atoms: C_3  and  N_4
REMARK    3  A    between atoms: C_7  and  C_8
REMARK    4  A    between atoms: C_8  and  O_9
REMARK    5  A    between atoms: O_9  and  C_10
REMARK                            x       y       z     vdW  Elec       q    Type
REMARK                         _______ _______ _______ _____ _____    ______ ____
ROOT
ATOM      1  C   UNL     1       2.809   6.714  18.197  0.00  0.00    +0.000 A 
ATOM      2  N   UNL     1       3.945   7.168  17.610  0.00  0.00    +0.000 NA
ATOM      3  C   UNL     1       5.061   6.429  17.644  0.00  0.00    +0.000 A 
ATOM      4  C   UNL     1       6.210   6.896  17.006  0.00  0.00    +0.000 A 
ATOM      5  C   UNL     1       7.390   6.146  16.951  0.00  0.00    +0.000 A 
ATOM      6  C   UNL     1       7.450   4.919  17.586  0.00  0.00    +0.000 A 
ATOM      7  C   UNL     1       6.331   4.462  18.271  0.00  0.00    +0.000 A 
ATOM      8  C   UNL     1       5.110   5.193  18.295  0.00  0.00    +0.000 A 
ATOM      9  C   UNL     1       3.917   4.734  18.931  0.00  0.00    +0.000 A 
ATOM     10  C   UNL     1       2.741   5.497  18.882  0.00  0.00    +0.000 A 
ATOM     11  C   UNL     1       1.474   4.987  19.508  0.00  0.00    +0.000 C 
ATOM     12  C   UNL     1       1.544   3.635  20.223  0.00  0.00    +0.000 C 
ATOM     13  C   UNL     1       2.861   2.896  20.240  0.00  0.00    +0.000 C 
ATOM     14  N   UNL     1       4.005   3.583  19.710  0.00  0.00    +0.000 N 
ATOM     15  H   UNL     1       4.682   2.925  19.339  0.00  0.00    +0.000 HD
ENDROOT
BRANCH   1  16
ATOM     16  O   UNL     1       1.662   7.505  18.043  0.00  0.00    +0.000 OA
BRANCH  16  17
ATOM     17  C   UNL     1       1.817   8.749  18.756  0.00  0.00    +0.000 C 
BRANCH  17  21
ATOM     18  N   UNL     1      -0.371  11.483  20.154  0.00  0.00    +0.000 NA
ATOM     19  C   UNL     1       1.099  11.580  20.113  0.00  0.00    +0.000 C 
ATOM     20  C   UNL     1       1.666  11.342  18.706  0.00  0.00    +0.000 C 
ATOM     21  C   UNL     1       1.222  10.010  18.088  0.00  0.00    +0.000 C 
ATOM     22  C   UNL     1      -0.319   9.951  18.186  0.00  0.00    +0.000 C 
ATOM     23  C   UNL     1      -0.833  10.192  19.617  0.00  0.00    +0.000 C 
BRANCH  18  24
ATOM     24  C   UNL     1      -0.878  11.672  21.530  0.00  0.00    +0.000 C 
BRANCH  24  26
ATOM     25  C   UNL     1      -0.162   9.669  23.156  0.00  0.00    +0.000 C 
ATOM     26  C   UNL     1      -0.484  10.577  22.442  0.00  0.00    +0.000 C 
ENDBRANCH  24  26
ENDBRANCH  18  24
ENDBRANCH  17  21
ENDBRANCH  16  17
ENDBRANCH   1  16
TORSDOF 5
ENDMDL
