MODEL 1
REMARK VINA RESULT:      -6.9      0.000      0.000
REMARK  Name = 
REMARK  5 active torsions:
REMARK  status: ('A' for Active; 'I' for Inactive)
REMARK    1  A    between atoms: C_2  and  C_3
REMARK    2  A    between atoms: C_3  and  C_4
REMARK    3  A    between atoms: C_4  and  C_5
REMARK    4  A    between atoms: C_5  and  C_6
REMARK    5  A    between atoms: C_6  and  N_7
REMARK                            x       y       z     vdW  Elec       q    Type
REMARK                         _______ _______ _______ _____ _____    ______ ____
ROOT
ATOM      1  C   UNL     1       8.479   8.944  18.349  0.00  0.00    +0.000 C 
ENDROOT
BRANCH   1   2
ATOM      2  C   UNL     1       8.340  10.389  17.844  0.00  0.00    +0.000 C 
BRANCH   2   3
ATOM      3  C   UNL     1       9.356  11.379  18.495  0.00  0.00    +0.000 C 
ATOM      4  C   UNL     1      10.729  11.314  17.780  0.00  0.00    +0.000 C 
ATOM      5  C   UNL     1      11.775  12.151  18.504  0.00  0.00    +0.000 C 
ATOM      6  O   UNL     1      11.898  11.719  19.857  0.00  0.00    +0.000 OA
ATOM      7  C   UNL     1      10.690  11.884  20.598  0.00  0.00    +0.000 C 
ATOM      8  C   UNL     1       9.575  11.033  19.990  0.00  0.00    +0.000 C 
BRANCH   3  10
ATOM      9  N   UNL     1       8.365  13.839  18.341  0.00  0.00    +0.000 NA
ATOM     10  C   UNL     1       8.814  12.774  18.401  0.00  0.00    +0.000 C 
ENDBRANCH   3  10
ENDBRANCH   2   3
ENDBRANCH   1   2
BRANCH   1  11
ATOM     11  C   UNL     1       7.834   7.916  17.427  0.00  0.00    +0.000 C 
BRANCH  11  12
ATOM     12  N   UNL     1       7.344   6.774  18.176  0.00  0.00    +0.000 N 
ATOM     13  C   UNL     1       7.969   6.199  19.251  0.00  0.00    +0.000 A 
ATOM     14  N   UNL     1       7.265   5.206  19.755  0.00  0.00    +0.000 NA
ATOM     15  C   UNL     1       6.146   5.143  18.976  0.00  0.00    +0.000 A 
ATOM     16  C   UNL     1       6.179   6.095  17.981  0.00  0.00    +0.000 A 
ATOM     17  C   UNL     1       5.118   6.333  16.971  0.00  0.00    +0.000 C 
ATOM     18  C   UNL     1       4.173   5.113  16.933  0.00  0.00    +0.000 C 
ATOM     19  C   UNL     1       3.797   4.623  18.348  0.00  0.00    +0.000 C 
ATOM     20  C   UNL     1       5.034   4.175  19.158  0.00  0.00    +0.000 C 
ENDBRANCH  11  12
ENDBRANCH   1  11
TORSDOF 5
ENDMDL
MODEL 2
REMARK VINA RESULT:      -6.9      4.084      5.833
REMARK  Name = 
REMARK  5 active torsions:
REMARK  status: ('A' for Active; 'I' for Inactive)
REMARK    1  A    between atoms: C_2  and  C_3
REMARK    2  A    between atoms: C_3  and  C_4
REMARK    3  A    between atoms: C_4  and  C_5
REMARK    4  A    between atoms: C_5  and  C_6
REMARK    5  A    between atoms: C_6  and  N_7
REMARK                            x       y       z     vdW  Elec       q    Type
REMARK                         _______ _______ _______ _____ _____    ______ ____
ROOT
ATOM      1  C   UNL     1       3.818   7.348  17.597  0.00  0.00    +0.000 C 
ENDROOT
BRANCH   1   2
ATOM      2  C   UNL     1       4.569   6.262  16.811  0.00  0.00    +0.000 C 
BRANCH   2   3
ATOM      3  C   UNL     1       6.094   6.196  17.138  0.00  0.00    +0.000 C 
ATOM      4  C   UNL     1       6.354   5.320  18.389  0.00  0.00    +0.000 C 
ATOM      5  C   UNL     1       7.815   5.378  18.818  0.00  0.00    +0.000 C 
ATOM      6  O   UNL     1       8.199   6.728  19.066  0.00  0.00    +0.000 OA
ATOM      7  C   UNL     1       8.104   7.550  17.904  0.00  0.00    +0.000 C 
ATOM      8  C   UNL     1       6.655   7.613  17.418  0.00  0.00    +0.000 C 
BRANCH   3  10
ATOM      9  N   UNL     1       7.416   5.181  15.070  0.00  0.00    +0.000 NA
ATOM     10  C   UNL     1       6.824   5.613  15.965  0.00  0.00    +0.000 C 
ENDBRANCH   3  10
ENDBRANCH   2   3
ENDBRANCH   1   2
BRANCH   1  11
ATOM     11  C   UNL     1       2.349   7.016  17.836  0.00  0.00    +0.000 C 
BRANCH  11  12
ATOM     12  N   UNL     1       2.198   6.050  18.907  0.00  0.00    +0.000 N 
ATOM     13  C   UNL     1       2.147   6.346  20.245  0.00  0.00    +0.000 A 
ATOM     14  N   UNL     1       1.958   5.268  20.979  0.00  0.00    +0.000 NA
ATOM     15  C   UNL     1       1.883   4.243  20.079  0.00  0.00    +0.000 A 
ATOM     16  C   UNL     1       2.045   4.701  18.790  0.00  0.00    +0.000 A 
ATOM     17  C   UNL     1       1.992   3.872  17.561  0.00  0.00    +0.000 C 
ATOM     18  C   UNL     1       2.144   2.385  17.947  0.00  0.00    +0.000 C 
ATOM     19  C   UNL     1       1.279   2.010  19.169  0.00  0.00    +0.000 C 
ATOM     20  C   UNL     1       1.667   2.817  20.429  0.00  0.00    +0.000 C 
ENDBRANCH  11  12
ENDBRANCH   1  11
TORSDOF 5
ENDMDL
MODEL 3
REMARK VINA RESULT:      -6.9      6.281      8.790
REMARK  Name = 
REMARK  5 active torsions:
REMARK  status: ('A' for Active; 'I' for Inactive)
REMARK    1  A    between atoms: C_2  and  C_3
REMARK    2  A    between atoms: C_3  and  C_4
REMARK    3  A    between atoms: C_4  and  C_5
REMARK    4  A    between atoms: C_5  and  C_6
REMARK    5  A    between atoms: C_6  and  N_7
REMARK                            x       y       z     vdW  Elec       q    Type
REMARK                         _______ _______ _______ _____ _____    ______ ____
ROOT
ATOM      1  C   UNL     1       5.212   4.489  17.902  0.00  0.00    +0.000 C 
ENDROOT
BRANCH   1   2
ATOM      2  C   UNL     1       3.904   5.032  18.498  0.00  0.00    +0.000 C 
BRANCH   2   3
ATOM      3  C   UNL     1       3.064   3.952  19.251  0.00  0.00    +0.000 C 
ATOM      4  C   UNL     1       2.038   3.287  18.301  0.00  0.00    +0.000 C 
ATOM      5  C   UNL     1       1.103   2.351  19.055  0.00  0.00    +0.000 C 
ATOM      6  O   UNL     1       0.433   3.061  20.094  0.00  0.00    +0.000 OA
ATOM      7  C   UNL     1       1.331   3.582  21.072  0.00  0.00    +0.000 C 
ATOM      8  C   UNL     1       2.286   4.589  20.431  0.00  0.00    +0.000 C 
BRANCH   3  10
ATOM      9  N   UNL     1       4.674   2.070  20.211  0.00  0.00    +0.000 NA
ATOM     10  C   UNL     1       3.987   2.903  19.796  0.00  0.00    +0.000 C 
ENDBRANCH   3  10
ENDBRANCH   2   3
ENDBRANCH   1   2
BRANCH   1  11
ATOM     11  C   UNL     1       5.036   3.867  16.521  0.00  0.00    +0.000 C 
BRANCH  11  12
ATOM     12  N   UNL     1       5.984   4.419  15.573  0.00  0.00    +0.000 N 
ATOM     13  C   UNL     1       7.000   5.289  15.876  0.00  0.00    +0.000 A 
ATOM     14  N   UNL     1       7.726   5.582  14.817  0.00  0.00    +0.000 NA
ATOM     15  C   UNL     1       7.158   4.874  13.797  0.00  0.00    +0.000 A 
ATOM     16  C   UNL     1       6.067   4.158  14.238  0.00  0.00    +0.000 A 
ATOM     17  C   UNL     1       5.228   3.256  13.410  0.00  0.00    +0.000 C 
ATOM     18  C   UNL     1       5.491   3.550  11.918  0.00  0.00    +0.000 C 
ATOM     19  C   UNL     1       6.996   3.703  11.611  0.00  0.00    +0.000 C 
ATOM     20  C   UNL     1       7.635   4.873  12.391  0.00  0.00    +0.000 C 
ENDBRANCH  11  12
ENDBRANCH   1  11
TORSDOF 5
ENDMDL
MODEL 4
REMARK VINA RESULT:      -6.8      4.313      5.887
REMARK  Name = 
REMARK  5 active torsions:
REMARK  status: ('A' for Active; 'I' for Inactive)
REMARK    1  A    between atoms: C_2  and  C_3
REMARK    2  A    between atoms: C_3  and  C_4
REMARK    3  A    between atoms: C_4  and  C_5
REMARK    4  A    between atoms: C_5  and  C_6
REMARK    5  A    between atoms: C_6  and  N_7
REMARK                            x       y       z     vdW  Elec       q    Type
REMARK                         _______ _______ _______ _____ _____    ______ ____
ROOT
ATOM      1  C   UNL     1       3.615   7.646  17.773  0.00  0.00    +0.000 C 
ENDROOT
BRANCH   1   2
ATOM      2  C   UNL     1       4.421   6.796  16.777  0.00  0.00    +0.000 C 
BRANCH   2   3
ATOM      3  C   UNL     1       5.804   6.330  17.330  0.00  0.00    +0.000 C 
ATOM      4  C   UNL     1       6.380   5.172  16.477  0.00  0.00    +0.000 C 
ATOM      5  C   UNL     1       7.647   4.598  17.097  0.00  0.00    +0.000 C 
ATOM      6  O   UNL     1       7.385   4.155  18.427  0.00  0.00    +0.000 OA
ATOM      7  C   UNL     1       6.977   5.215  19.290  0.00  0.00    +0.000 C 
ATOM      8  C   UNL     1       5.669   5.831  18.791  0.00  0.00    +0.000 C 
BRANCH   3  10
ATOM      9  N   UNL     1       7.521   8.356  17.274  0.00  0.00    +0.000 NA
ATOM     10  C   UNL     1       6.759   7.486  17.304  0.00  0.00    +0.000 C 
ENDBRANCH   3  10
ENDBRANCH   2   3
ENDBRANCH   1   2
BRANCH   1  11
ATOM     11  C   UNL     1       2.187   7.151  17.974  0.00  0.00    +0.000 C 
BRANCH  11  12
ATOM     12  N   UNL     1       2.132   6.103  18.975  0.00  0.00    +0.000 N 
ATOM     13  C   UNL     1       2.074   6.298  20.331  0.00  0.00    +0.000 A 
ATOM     14  N   UNL     1       1.986   5.159  20.987  0.00  0.00    +0.000 NA
ATOM     15  C   UNL     1       1.985   4.198  20.018  0.00  0.00    +0.000 A 
ATOM     16  C   UNL     1       2.090   4.757  18.763  0.00  0.00    +0.000 A 
ATOM     17  C   UNL     1       2.090   4.015  17.479  0.00  0.00    +0.000 C 
ATOM     18  C   UNL     1       2.370   2.523  17.756  0.00  0.00    +0.000 C 
ATOM     19  C   UNL     1       1.557   1.992  18.956  0.00  0.00    +0.000 C 
ATOM     20  C   UNL     1       1.894   2.737  20.266  0.00  0.00    +0.000 C 
ENDBRANCH  11  12
ENDBRANCH   1  11
TORSDOF 5
ENDMDL
MODEL 5
REMARK VINA RESULT:      -6.8      6.161      8.810
REMARK  Name = 
REMARK  5 active torsions:
REMARK  status: ('A' for Active; 'I' for Inactive)
REMARK    1  A    between atoms: C_2  and  C_3
REMARK    2  A    between atoms: C_3  and  C_4
REMARK    3  A    between atoms: C_4  and  C_5
REMARK    4  A    between atoms: C_5  and  C_6
REMARK    5  A    between atoms: C_6  and  N_7
REMARK                            x       y       z     vdW  Elec       q    Type
REMARK                         _______ _______ _______ _____ _____    ______ ____
ROOT
ATOM      1  C   UNL     1       3.894   3.919  16.711  0.00  0.00    +0.000 C 
ENDROOT
BRANCH   1   2
ATOM      2  C   UNL     1       2.905   2.945  17.370  0.00  0.00    +0.000 C 
BRANCH   2   3
ATOM      3  C   UNL     1       2.714   3.188  18.900  0.00  0.00    +0.000 C 
ATOM      4  C   UNL     1       1.375   2.584  19.394  0.00  0.00    +0.000 C 
ATOM      5  C   UNL     1       1.097   2.954  20.845  0.00  0.00    +0.000 C 
ATOM      6  O   UNL     1       1.091   4.372  20.997  0.00  0.00    +0.000 OA
ATOM      7  C   UNL     1       2.349   4.965  20.680  0.00  0.00    +0.000 C 
ATOM      8  C   UNL     1       2.703   4.706  19.215  0.00  0.00    +0.000 C 
BRANCH   3  10
ATOM      9  N   UNL     1       4.740   2.092  20.222  0.00  0.00    +0.000 NA
ATOM     10  C   UNL     1       3.849   2.552  19.645  0.00  0.00    +0.000 C 
ENDBRANCH   3  10
ENDBRANCH   2   3
ENDBRANCH   1   2
BRANCH   1  11
ATOM     11  C   UNL     1       5.329   3.403  16.689  0.00  0.00    +0.000 C 
BRANCH  11  12
ATOM     12  N   UNL     1       6.150   4.177  15.779  0.00  0.00    +0.000 N 
ATOM     13  C   UNL     1       7.018   5.175  16.141  0.00  0.00    +0.000 A 
ATOM     14  N   UNL     1       7.661   5.667  15.102  0.00  0.00    +0.000 NA
ATOM     15  C   UNL     1       7.191   4.958  14.034  0.00  0.00    +0.000 A 
ATOM     16  C   UNL     1       6.242   4.040  14.426  0.00  0.00    +0.000 A 
ATOM     17  C   UNL     1       5.541   3.081  13.537  0.00  0.00    +0.000 C 
ATOM     18  C   UNL     1       5.715   3.531  12.071  0.00  0.00    +0.000 C 
ATOM     19  C   UNL     1       7.167   3.953  11.760  0.00  0.00    +0.000 C 
ATOM     20  C   UNL     1       7.627   5.147  12.627  0.00  0.00    +0.000 C 
ENDBRANCH  11  12
ENDBRANCH   1  11
TORSDOF 5
ENDMDL
MODEL 6
REMARK VINA RESULT:      -6.7      6.707      9.426
REMARK  Name = 
REMARK  5 active torsions:
REMARK  status: ('A' for Active; 'I' for Inactive)
REMARK    1  A    between atoms: C_2  and  C_3
REMARK    2  A    between atoms: C_3  and  C_4
REMARK    3  A    between atoms: C_4  and  C_5
REMARK    4  A    between atoms: C_5  and  C_6
REMARK    5  A    between atoms: C_6  and  N_7
REMARK                            x       y       z     vdW  Elec       q    Type
REMARK                         _______ _______ _______ _____ _____    ______ ____
ROOT
ATOM      1  C   UNL     1       2.389   6.533  18.195  0.00  0.00    +0.000 C 
ENDROOT
BRANCH   1   2
ATOM      2  C   UNL     1       3.380   5.676  18.999  0.00  0.00    +0.000 C 
BRANCH   2   3
ATOM      3  C   UNL     1       2.822   4.268  19.379  0.00  0.00    +0.000 C 
ATOM      4  C   UNL     1       1.954   3.688  18.235  0.00  0.00    +0.000 C 
ATOM      5  C   UNL     1       1.271   2.393  18.653  0.00  0.00    +0.000 C 
ATOM      6  O   UNL     1       0.479   2.611  19.818  0.00  0.00    +0.000 OA
ATOM      7  C   UNL     1       1.255   3.020  20.942  0.00  0.00    +0.000 C 
ATOM      8  C   UNL     1       1.944   4.354  20.654  0.00  0.00    +0.000 C 
BRANCH   3  10
ATOM      9  N   UNL     1       4.849   2.611  19.827  0.00  0.00    +0.000 NA
ATOM     10  C   UNL     1       3.970   3.341  19.649  0.00  0.00    +0.000 C 
ENDBRANCH   3  10
ENDBRANCH   2   3
ENDBRANCH   1   2
BRANCH   1  11
ATOM     11  C   UNL     1       2.795   8.000  18.103  0.00  0.00    +0.000 C 
BRANCH  11  12
ATOM     12  N   UNL     1       1.731   8.868  18.571  0.00  0.00    +0.000 N 
ATOM     13  C   UNL     1       0.966   9.688  17.782  0.00  0.00    +0.000 A 
ATOM     14  N   UNL     1       0.048  10.324  18.481  0.00  0.00    +0.000 NA
ATOM     15  C   UNL     1       0.228   9.895  19.764  0.00  0.00    +0.000 A 
ATOM     16  C   UNL     1       1.276   9.005  19.849  0.00  0.00    +0.000 A 
ATOM     17  C   UNL     1       1.734   8.317  21.080  0.00  0.00    +0.000 C 
ATOM     18  C   UNL     1       1.151   9.041  22.312  0.00  0.00    +0.000 C 
ATOM     19  C   UNL     1      -0.343   9.386  22.130  0.00  0.00    +0.000 C 
ATOM     20  C   UNL     1      -0.583  10.330  20.930  0.00  0.00    +0.000 C 
ENDBRANCH  11  12
ENDBRANCH   1  11
TORSDOF 5
ENDMDL
MODEL 7
REMARK VINA RESULT:      -6.6      6.224      8.475
REMARK  Name = 
REMARK  5 active torsions:
REMARK  status: ('A' for Active; 'I' for Inactive)
REMARK    1  A    between atoms: C_2  and  C_3
REMARK    2  A    between atoms: C_3  and  C_4
REMARK    3  A    between atoms: C_4  and  C_5
REMARK    4  A    between atoms: C_5  and  C_6
REMARK    5  A    between atoms: C_6  and  N_7
REMARK                            x       y       z     vdW  Elec       q    Type
REMARK                         _______ _______ _______ _____ _____    ______ ____
ROOT
ATOM      1  C   UNL     1       4.888   4.388  17.972  0.00  0.00    +0.000 C 
ENDROOT
BRANCH   1   2
ATOM      2  C   UNL     1       3.636   5.240  18.234  0.00  0.00    +0.000 C 
BRANCH   2   3
ATOM      3  C   UNL     1       2.676   4.628  19.302  0.00  0.00    +0.000 C 
ATOM      4  C   UNL     1       3.433   3.641  20.226  0.00  0.00    +0.000 C 
ATOM      5  C   UNL     1       2.480   2.914  21.166  0.00  0.00    +0.000 C 
ATOM      6  O   UNL     1       1.481   2.228  20.416  0.00  0.00    +0.000 OA
ATOM      7  C   UNL     1       0.667   3.111  19.647  0.00  0.00    +0.000 C 
ATOM      8  C   UNL     1       1.518   3.856  18.619  0.00  0.00    +0.000 C 
BRANCH   3  10
ATOM      9  N   UNL     1       1.640   6.605  20.741  0.00  0.00    +0.000 NA
ATOM     10  C   UNL     1       2.093   5.733  20.130  0.00  0.00    +0.000 C 
ENDBRANCH   3  10
ENDBRANCH   2   3
ENDBRANCH   1   2
BRANCH   1  11
ATOM     11  C   UNL     1       4.909   3.751  16.587  0.00  0.00    +0.000 C 
BRANCH  11  12
ATOM     12  N   UNL     1       5.894   4.386  15.732  0.00  0.00    +0.000 N 
ATOM     13  C   UNL     1       6.853   5.274  16.146  0.00  0.00    +0.000 A 
ATOM     14  N   UNL     1       7.635   5.648  15.154  0.00  0.00    +0.000 NA
ATOM     15  C   UNL     1       7.162   4.975  14.065  0.00  0.00    +0.000 A 
ATOM     16  C   UNL     1       6.074   4.198  14.395  0.00  0.00    +0.000 A 
ATOM     17  C   UNL     1       5.326   3.312  13.469  0.00  0.00    +0.000 C 
ATOM     18  C   UNL     1       5.673   3.692  12.014  0.00  0.00    +0.000 C 
ATOM     19  C   UNL     1       7.188   3.914  11.816  0.00  0.00    +0.000 C 
ATOM     20  C   UNL     1       7.729   5.064  12.695  0.00  0.00    +0.000 C 
ENDBRANCH  11  12
ENDBRANCH   1  11
TORSDOF 5
ENDMDL
MODEL 8
REMARK VINA RESULT:      -6.6      5.084      7.813
REMARK  Name = 
REMARK  5 active torsions:
REMARK  status: ('A' for Active; 'I' for Inactive)
REMARK    1  A    between atoms: C_2  and  C_3
REMARK    2  A    between atoms: C_3  and  C_4
REMARK    3  A    between atoms: C_4  and  C_5
REMARK    4  A    between atoms: C_5  and  C_6
REMARK    5  A    between atoms: C_6  and  N_7
REMARK                            x       y       z     vdW  Elec       q    Type
REMARK                         _______ _______ _______ _____ _____    ______ ____
ROOT
ATOM      1  C   UNL     1       2.982   7.045  17.774  0.00  0.00    +0.000 C 
ENDROOT
BRANCH   1   2
ATOM      2  C   UNL     1       3.341   5.581  17.474  0.00  0.00    +0.000 C 
BRANCH   2   3
ATOM      3  C   UNL     1       4.876   5.326  17.355  0.00  0.00    +0.000 C 
ATOM      4  C   UNL     1       5.664   6.659  17.391  0.00  0.00    +0.000 C 
ATOM      5  C   UNL     1       7.145   6.440  17.113  0.00  0.00    +0.000 C 
ATOM      6  O   UNL     1       7.317   5.793  15.854  0.00  0.00    +0.000 OA
ATOM      7  C   UNL     1       6.720   4.498  15.815  0.00  0.00    +0.000 C 
ATOM      8  C   UNL     1       5.209   4.605  16.024  0.00  0.00    +0.000 C 
BRANCH   3  10
ATOM      9  N   UNL     1       5.641   3.806  19.395  0.00  0.00    +0.000 NA
ATOM     10  C   UNL     1       5.320   4.458  18.495  0.00  0.00    +0.000 C 
ENDBRANCH   3  10
ENDBRANCH   2   3
ENDBRANCH   1   2
BRANCH   1  11
ATOM     11  C   UNL     1       2.404   7.252  19.170  0.00  0.00    +0.000 C 
BRANCH  11  12
ATOM     12  N   UNL     1       1.760   8.547  19.284  0.00  0.00    +0.000 N 
ATOM     13  C   UNL     1       1.667   9.482  18.285  0.00  0.00    +0.000 A 
ATOM     14  N   UNL     1       0.987  10.542  18.668  0.00  0.00    +0.000 NA
ATOM     15  C   UNL     1       0.628  10.279  19.958  0.00  0.00    +0.000 A 
ATOM     16  C   UNL     1       1.109   9.055  20.368  0.00  0.00    +0.000 A 
ATOM     17  C   UNL     1       0.887   8.435  21.697  0.00  0.00    +0.000 C 
ATOM     18  C   UNL     1       0.399   9.516  22.684  0.00  0.00    +0.000 C 
ATOM     19  C   UNL     1      -0.684  10.425  22.065  0.00  0.00    +0.000 C 
ATOM     20  C   UNL     1      -0.168  11.186  20.823  0.00  0.00    +0.000 C 
ENDBRANCH  11  12
ENDBRANCH   1  11
TORSDOF 5
ENDMDL
MODEL 9
REMARK VINA RESULT:      -6.6      5.236      6.749
REMARK  Name = 
REMARK  5 active torsions:
REMARK  status: ('A' for Active; 'I' for Inactive)
REMARK    1  A    between atoms: C_2  and  C_3
REMARK    2  A    between atoms: C_3  and  C_4
REMARK    3  A    between atoms: C_4  and  C_5
REMARK    4  A    between atoms: C_5  and  C_6
REMARK    5  A    between atoms: C_6  and  N_7
REMARK                            x       y       z     vdW  Elec       q    Type
REMARK                         _______ _______ _______ _____ _____    ______ ____
ROOT
ATOM      1  C   UNL     1       3.531   7.186  17.331  0.00  0.00    +0.000 C 
ENDROOT
BRANCH   1   2
ATOM      2  C   UNL     1       4.848   6.941  18.084  0.00  0.00    +0.000 C 
BRANCH   2   3
ATOM      3  C   UNL     1       5.582   5.633  17.652  0.00  0.00    +0.000 C 
ATOM      4  C   UNL     1       7.112   5.858  17.566  0.00  0.00    +0.000 C 
ATOM      5  C   UNL     1       7.824   4.642  16.989  0.00  0.00    +0.000 C 
ATOM      6  O   UNL     1       7.294   4.328  15.704  0.00  0.00    +0.000 OA
ATOM      7  C   UNL     1       5.911   3.982  15.748  0.00  0.00    +0.000 C 
ATOM      8  C   UNL     1       5.086   5.163  16.261  0.00  0.00    +0.000 C 
BRANCH   3  10
ATOM      9  N   UNL     1       5.075   3.699  19.400  0.00  0.00    +0.000 NA
ATOM     10  C   UNL     1       5.296   4.554  18.653  0.00  0.00    +0.000 C 
ENDBRANCH   3  10
ENDBRANCH   2   3
ENDBRANCH   1   2
BRANCH   1  11
ATOM     11  C   UNL     1       2.369   7.552  18.247  0.00  0.00    +0.000 C 
BRANCH  11  12
ATOM     12  N   UNL     1       2.099   6.493  19.201  0.00  0.00    +0.000 N 
ATOM     13  C   UNL     1       2.005   6.650  20.560  0.00  0.00    +0.000 A 
ATOM     14  N   UNL     1       1.707   5.518  21.164  0.00  0.00    +0.000 NA
ATOM     15  C   UNL     1       1.604   4.602  20.157  0.00  0.00    +0.000 A 
ATOM     16  C   UNL     1       1.859   5.179  18.933  0.00  0.00    +0.000 A 
ATOM     17  C   UNL     1       1.808   4.490  17.620  0.00  0.00    +0.000 C 
ATOM     18  C   UNL     1       1.837   2.964  17.849  0.00  0.00    +0.000 C 
ATOM     19  C   UNL     1       0.891   2.528  18.988  0.00  0.00    +0.000 C 
ATOM     20  C   UNL     1       1.273   3.166  20.342  0.00  0.00    +0.000 C 
ENDBRANCH  11  12
ENDBRANCH   1  11
TORSDOF 5
ENDMDL
