MODEL 1
REMARK VINA RESULT:      -6.6      0.000      0.000
REMARK  Name = 
REMARK  7 active torsions:
REMARK  status: ('A' for Active; 'I' for Inactive)
REMARK    1  A    between atoms: C_1  and  C_2
REMARK    2  A    between atoms: C_2  and  N_3
REMARK    3  A    between atoms: C_2  and  C_11
REMARK    4  A    between atoms: N_3  and  C_4
REMARK    5  A    between atoms: C_4  and  C_5
REMARK    6  A    between atoms: C_5  and  C_6
REMARK    7  A    between atoms: C_8  and  O_9
REMARK                            x       y       z     vdW  Elec       q    Type
REMARK                         _______ _______ _______ _____ _____    ______ ____
ROOT
ATOM      1  C   UNL     1       4.161   2.998  17.183  0.00  0.00    +0.000 C 
ATOM      2  C   UNL     1       4.518   4.039  18.254  0.00  0.00    +0.000 C 
ENDROOT
BRANCH   2   3
ATOM      3  C   UNL     1       3.479   4.147  19.360  0.00  0.00    +0.000 A 
ATOM      4  C   UNL     1       2.575   5.215  19.528  0.00  0.00    +0.000 A 
ATOM      5 BR   UNL     1       2.588   6.791  18.462  0.00  0.00    +0.000 Br
ATOM      6  C   UNL     1       1.561   5.152  20.500  0.00  0.00    +0.000 A 
ATOM      7  C   UNL     1       1.432   4.033  21.320  0.00  0.00    +0.000 A 
ATOM      8  C   UNL     1       2.332   2.991  21.184  0.00  0.00    +0.000 A 
ATOM      9  F   UNL     1       2.211   1.909  21.967  0.00  0.00    +0.000 F 
ATOM     10  C   UNL     1       3.341   3.048  20.228  0.00  0.00    +0.000 A 
ATOM     11  F   UNL     1       4.177   2.002  20.122  0.00  0.00    +0.000 F 
ENDBRANCH   2   3
BRANCH   2  12
ATOM     12  N   UNL     1       5.848   3.882  18.864  0.00  0.00    +0.000 NA
ATOM     13  H   UNL     1       5.725   3.700  19.860  0.00  0.00    +0.000 HD
BRANCH  12  14
ATOM     14  C   UNL     1       6.767   5.000  18.696  0.00  0.00    +0.000 C 
BRANCH  14  15
ATOM     15  C   UNL     1       6.198   6.145  17.853  0.00  0.00    +0.000 C 
BRANCH  15  16
ATOM     16  C   UNL     1       6.748   6.060  16.436  0.00  0.00    +0.000 C 
ATOM     17  C   UNL     1       5.692   5.828  15.330  0.00  0.00    +0.000 C 
ATOM     18  C   UNL     1       6.661   4.818  14.676  0.00  0.00    +0.000 C 
ATOM     19  C   UNL     1       7.379   4.704  16.035  0.00  0.00    +0.000 C 
BRANCH  18  20
ATOM     20  O   UNL     1       7.449   5.307  13.574  0.00  0.00    +0.000 OA
ATOM     21  H   UNL     1       7.385   4.628  12.882  0.00  0.00    +0.000 HD
ENDBRANCH  18  20
ENDBRANCH  15  16
ENDBRANCH  14  15
ENDBRANCH  12  14
ENDBRANCH   2  12
TORSDOF 6
ENDMDL
MODEL 2
REMARK VINA RESULT:      -6.5      1.888      2.629
REMARK  Name = 
REMARK  7 active torsions:
REMARK  status: ('A' for Active; 'I' for Inactive)
REMARK    1  A    between atoms: C_1  and  C_2
REMARK    2  A    between atoms: C_2  and  N_3
REMARK    3  A    between atoms: C_2  and  C_11
REMARK    4  A    between atoms: N_3  and  C_4
REMARK    5  A    between atoms: C_4  and  C_5
REMARK    6  A    between atoms: C_5  and  C_6
REMARK    7  A    between atoms: C_8  and  O_9
REMARK                            x       y       z     vdW  Elec       q    Type
REMARK                         _______ _______ _______ _____ _____    ______ ____
ROOT
ATOM      1  C   UNL     1       6.138   5.654  18.960  0.00  0.00    +0.000 C 
ATOM      2  C   UNL     1       5.624   4.276  18.520  0.00  0.00    +0.000 C 
ENDROOT
BRANCH   2   3
ATOM      3  C   UNL     1       4.107   4.163  18.541  0.00  0.00    +0.000 A 
ATOM      4  C   UNL     1       3.209   5.154  18.096  0.00  0.00    +0.000 A 
ATOM      5 BR   UNL     1       3.746   6.882  17.508  0.00  0.00    +0.000 Br
ATOM      6  C   UNL     1       1.829   4.896  18.028  0.00  0.00    +0.000 A 
ATOM      7  C   UNL     1       1.320   3.654  18.403  0.00  0.00    +0.000 A 
ATOM      8  C   UNL     1       2.189   2.682  18.869  0.00  0.00    +0.000 A 
ATOM      9  F   UNL     1       1.706   1.484  19.227  0.00  0.00    +0.000 F 
ATOM     10  C   UNL     1       3.555   2.933  18.944  0.00  0.00    +0.000 A 
ATOM     11  F   UNL     1       4.359   1.951  19.384  0.00  0.00    +0.000 F 
ENDBRANCH   2   3
BRANCH   2  12
ATOM     12  N   UNL     1       6.118   3.808  17.216  0.00  0.00    +0.000 NA
ATOM     13  H   UNL     1       6.929   3.209  17.376  0.00  0.00    +0.000 HD
BRANCH  12  14
ATOM     14  C   UNL     1       6.476   4.843  16.255  0.00  0.00    +0.000 C 
BRANCH  14  15
ATOM     15  C   UNL     1       5.622   4.827  14.985  0.00  0.00    +0.000 C 
BRANCH  15  16
ATOM     16  C   UNL     1       6.181   3.805  14.004  0.00  0.00    +0.000 C 
ATOM     17  C   UNL     1       7.271   4.337  13.045  0.00  0.00    +0.000 C 
ATOM     18  C   UNL     1       6.592   3.548  11.904  0.00  0.00    +0.000 C 
ATOM     19  C   UNL     1       5.309   3.516  12.758  0.00  0.00    +0.000 C 
BRANCH  18  20
ATOM     20  O   UNL     1       7.173   2.273  11.572  0.00  0.00    +0.000 OA
ATOM     21  H   UNL     1       7.723   2.429  10.786  0.00  0.00    +0.000 HD
ENDBRANCH  18  20
ENDBRANCH  15  16
ENDBRANCH  14  15
ENDBRANCH  12  14
ENDBRANCH   2  12
TORSDOF 6
ENDMDL
MODEL 3
REMARK VINA RESULT:      -6.5      1.526      2.255
REMARK  Name = 
REMARK  7 active torsions:
REMARK  status: ('A' for Active; 'I' for Inactive)
REMARK    1  A    between atoms: C_1  and  C_2
REMARK    2  A    between atoms: C_2  and  N_3
REMARK    3  A    between atoms: C_2  and  C_11
REMARK    4  A    between atoms: N_3  and  C_4
REMARK    5  A    between atoms: C_4  and  C_5
REMARK    6  A    between atoms: C_5  and  C_6
REMARK    7  A    between atoms: C_8  and  O_9
REMARK                            x       y       z     vdW  Elec       q    Type
REMARK                         _______ _______ _______ _____ _____    ______ ____
ROOT
ATOM      1  C   UNL     1       6.298   5.251  19.065  0.00  0.00    +0.000 C 
ATOM      2  C   UNL     1       5.238   4.229  18.626  0.00  0.00    +0.000 C 
ENDROOT
BRANCH   2   3
ATOM      3  C   UNL     1       3.953   4.308  19.436  0.00  0.00    +0.000 A 
ATOM      4  C   UNL     1       2.971   5.311  19.313  0.00  0.00    +0.000 A 
ATOM      5 BR   UNL     1       3.150   6.835  18.189  0.00  0.00    +0.000 Br
ATOM      6  C   UNL     1       1.754   5.215  20.010  0.00  0.00    +0.000 A 
ATOM      7  C   UNL     1       1.495   4.126  20.840  0.00  0.00    +0.000 A 
ATOM      8  C   UNL     1       2.464   3.149  20.992  0.00  0.00    +0.000 A 
ATOM      9  F   UNL     1       2.220   2.096  21.785  0.00  0.00    +0.000 F 
ATOM     10  C   UNL     1       3.673   3.240  20.309  0.00  0.00    +0.000 A 
ATOM     11  F   UNL     1       4.572   2.256  20.474  0.00  0.00    +0.000 F 
ENDBRANCH   2   3
BRANCH   2  12
ATOM     12  N   UNL     1       4.900   4.250  17.194  0.00  0.00    +0.000 NA
ATOM     13  H   UNL     1       4.713   3.293  16.894  0.00  0.00    +0.000 HD
BRANCH  12  14
ATOM     14  C   UNL     1       5.897   4.839  16.308  0.00  0.00    +0.000 C 
BRANCH  14  15
ATOM     15  C   UNL     1       5.409   5.025  14.869  0.00  0.00    +0.000 C 
BRANCH  15  16
ATOM     16  C   UNL     1       6.003   3.940  13.981  0.00  0.00    +0.000 C 
ATOM     17  C   UNL     1       7.158   4.397  13.060  0.00  0.00    +0.000 C 
ATOM     18  C   UNL     1       6.530   3.557  11.927  0.00  0.00    +0.000 C 
ATOM     19  C   UNL     1       5.199   3.596  12.703  0.00  0.00    +0.000 C 
BRANCH  18  20
ATOM     20  O   UNL     1       7.103   2.255  11.701  0.00  0.00    +0.000 OA
ATOM     21  H   UNL     1       6.641   1.653  12.308  0.00  0.00    +0.000 HD
ENDBRANCH  18  20
ENDBRANCH  15  16
ENDBRANCH  14  15
ENDBRANCH  12  14
ENDBRANCH   2  12
TORSDOF 6
ENDMDL
MODEL 4
REMARK VINA RESULT:      -6.4      1.507      1.822
REMARK  Name = 
REMARK  7 active torsions:
REMARK  status: ('A' for Active; 'I' for Inactive)
REMARK    1  A    between atoms: C_1  and  C_2
REMARK    2  A    between atoms: C_2  and  N_3
REMARK    3  A    between atoms: C_2  and  C_11
REMARK    4  A    between atoms: N_3  and  C_4
REMARK    5  A    between atoms: C_4  and  C_5
REMARK    6  A    between atoms: C_5  and  C_6
REMARK    7  A    between atoms: C_8  and  O_9
REMARK                            x       y       z     vdW  Elec       q    Type
REMARK                         _______ _______ _______ _____ _____    ______ ____
ROOT
ATOM      1  C   UNL     1       3.887   6.373  17.430  0.00  0.00    +0.000 C 
ATOM      2  C   UNL     1       4.178   5.944  18.876  0.00  0.00    +0.000 C 
ENDROOT
BRANCH   2   3
ATOM      3  C   UNL     1       3.128   5.002  19.448  0.00  0.00    +0.000 A 
ATOM      4  C   UNL     1       2.000   5.395  20.194  0.00  0.00    +0.000 A 
ATOM      5 BR   UNL     1       1.661   7.187  20.736  0.00  0.00    +0.000 Br
ATOM      6  C   UNL     1       1.016   4.458  20.558  0.00  0.00    +0.000 A 
ATOM      7  C   UNL     1       1.140   3.120  20.190  0.00  0.00    +0.000 A 
ATOM      8  C   UNL     1       2.259   2.717  19.481  0.00  0.00    +0.000 A 
ATOM      9  F   UNL     1       2.382   1.432  19.120  0.00  0.00    +0.000 F 
ATOM     10  C   UNL     1       3.238   3.637  19.122  0.00  0.00    +0.000 A 
ATOM     11  F   UNL     1       4.295   3.200  18.419  0.00  0.00    +0.000 F 
ENDBRANCH   2   3
BRANCH   2  12
ATOM     12  N   UNL     1       5.511   5.366  19.104  0.00  0.00    +0.000 NA
ATOM     13  H   UNL     1       5.807   5.603  20.051  0.00  0.00    +0.000 HD
BRANCH  12  14
ATOM     14  C   UNL     1       6.553   5.765  18.167  0.00  0.00    +0.000 C 
BRANCH  14  15
ATOM     15  C   UNL     1       7.472   4.617  17.740  0.00  0.00    +0.000 C 
BRANCH  15  16
ATOM     16  C   UNL     1       7.251   4.305  16.267  0.00  0.00    +0.000 C 
ATOM     17  C   UNL     1       6.865   5.515  15.384  0.00  0.00    +0.000 C 
ATOM     18  C   UNL     1       5.823   4.617  14.683  0.00  0.00    +0.000 C 
ATOM     19  C   UNL     1       5.881   3.680  15.906  0.00  0.00    +0.000 C 
BRANCH  18  20
ATOM     20  O   UNL     1       6.214   4.047  13.419  0.00  0.00    +0.000 OA
ATOM     21  H   UNL     1       7.088   4.421  13.220  0.00  0.00    +0.000 HD
ENDBRANCH  18  20
ENDBRANCH  15  16
ENDBRANCH  14  15
ENDBRANCH  12  14
ENDBRANCH   2  12
TORSDOF 6
ENDMDL
MODEL 5
REMARK VINA RESULT:      -6.3      3.575      5.455
REMARK  Name = 
REMARK  7 active torsions:
REMARK  status: ('A' for Active; 'I' for Inactive)
REMARK    1  A    between atoms: C_1  and  C_2
REMARK    2  A    between atoms: C_2  and  N_3
REMARK    3  A    between atoms: C_2  and  C_11
REMARK    4  A    between atoms: N_3  and  C_4
REMARK    5  A    between atoms: C_4  and  C_5
REMARK    6  A    between atoms: C_5  and  C_6
REMARK    7  A    between atoms: C_8  and  O_9
REMARK                            x       y       z     vdW  Elec       q    Type
REMARK                         _______ _______ _______ _____ _____    ______ ____
ROOT
ATOM      1  C   UNL     1       6.467   4.821  18.858  0.00  0.00    +0.000 C 
ATOM      2  C   UNL     1       4.961   4.555  18.717  0.00  0.00    +0.000 C 
ENDROOT
BRANCH   2   3
ATOM      3  C   UNL     1       4.139   5.822  18.532  0.00  0.00    +0.000 A 
ATOM      4  C   UNL     1       4.134   6.629  17.377  0.00  0.00    +0.000 A 
ATOM      5 BR   UNL     1       5.271   6.341  15.879  0.00  0.00    +0.000 Br
ATOM      6  C   UNL     1       3.234   7.702  17.254  0.00  0.00    +0.000 A 
ATOM      7  C   UNL     1       2.330   7.990  18.274  0.00  0.00    +0.000 A 
ATOM      8  C   UNL     1       2.345   7.223  19.426  0.00  0.00    +0.000 A 
ATOM      9  F   UNL     1       1.476   7.493  20.409  0.00  0.00    +0.000 F 
ATOM     10  C   UNL     1       3.237   6.163  19.557  0.00  0.00    +0.000 A 
ATOM     11  F   UNL     1       3.200   5.436  20.685  0.00  0.00    +0.000 F 
ENDBRANCH   2   3
BRANCH   2  12
ATOM     12  N   UNL     1       4.589   3.589  17.672  0.00  0.00    +0.000 NA
ATOM     13  H   UNL     1       4.043   4.078  16.962  0.00  0.00    +0.000 HD
BRANCH  12  14
ATOM     14  C   UNL     1       3.846   2.416  18.117  0.00  0.00    +0.000 C 
BRANCH  14  15
ATOM     15  C   UNL     1       2.333   2.637  18.192  0.00  0.00    +0.000 C 
BRANCH  15  16
ATOM     16  C   UNL     1       1.828   2.257  19.577  0.00  0.00    +0.000 C 
ATOM     17  C   UNL     1       0.938   3.315  20.271  0.00  0.00    +0.000 C 
ATOM     18  C   UNL     1       1.698   3.030  21.585  0.00  0.00    +0.000 C 
ATOM     19  C   UNL     1       2.838   2.432  20.738  0.00  0.00    +0.000 C 
BRANCH  18  20
ATOM     20  O   UNL     1       1.056   2.139  22.517  0.00  0.00    +0.000 OA
ATOM     21  H   UNL     1       1.404   1.254  22.318  0.00  0.00    +0.000 HD
ENDBRANCH  18  20
ENDBRANCH  15  16
ENDBRANCH  14  15
ENDBRANCH  12  14
ENDBRANCH   2  12
TORSDOF 6
ENDMDL
MODEL 6
REMARK VINA RESULT:      -6.3      3.521      5.930
REMARK  Name = 
REMARK  7 active torsions:
REMARK  status: ('A' for Active; 'I' for Inactive)
REMARK    1  A    between atoms: C_1  and  C_2
REMARK    2  A    between atoms: C_2  and  N_3
REMARK    3  A    between atoms: C_2  and  C_11
REMARK    4  A    between atoms: N_3  and  C_4
REMARK    5  A    between atoms: C_4  and  C_5
REMARK    6  A    between atoms: C_5  and  C_6
REMARK    7  A    between atoms: C_8  and  O_9
REMARK                            x       y       z     vdW  Elec       q    Type
REMARK                         _______ _______ _______ _____ _____    ______ ____
ROOT
ATOM      1  C   UNL     1       3.503   7.286  17.522  0.00  0.00    +0.000 C 
ATOM      2  C   UNL     1       3.679   5.775  17.315  0.00  0.00    +0.000 C 
ENDROOT
BRANCH   2   3
ATOM      3  C   UNL     1       5.113   5.303  17.505  0.00  0.00    +0.000 A 
ATOM      4  C   UNL     1       5.954   4.815  16.486  0.00  0.00    +0.000 A 
ATOM      5 BR   UNL     1       5.388   4.533  14.692  0.00  0.00    +0.000 Br
ATOM      6  C   UNL     1       7.308   4.536  16.742  0.00  0.00    +0.000 A 
ATOM      7  C   UNL     1       7.845   4.734  18.012  0.00  0.00    +0.000 A 
ATOM      8  C   UNL     1       7.023   5.186  19.029  0.00  0.00    +0.000 A 
ATOM      9  F   UNL     1       7.534   5.383  20.252  0.00  0.00    +0.000 F 
ATOM     10  C   UNL     1       5.680   5.459  18.784  0.00  0.00    +0.000 A 
ATOM     11  F   UNL     1       4.928   5.914  19.799  0.00  0.00    +0.000 F 
ENDBRANCH   2   3
BRANCH   2  12
ATOM     12  N   UNL     1       2.787   4.922  18.116  0.00  0.00    +0.000 NA
ATOM     13  H   UNL     1       3.230   4.752  19.019  0.00  0.00    +0.000 HD
BRANCH  12  14
ATOM     14  C   UNL     1       2.416   3.644  17.521  0.00  0.00    +0.000 C 
BRANCH  14  15
ATOM     15  C   UNL     1       3.120   2.442  18.155  0.00  0.00    +0.000 C 
BRANCH  15  16
ATOM     16  C   UNL     1       2.545   2.182  19.540  0.00  0.00    +0.000 C 
ATOM     17  C   UNL     1       1.137   2.771  19.793  0.00  0.00    +0.000 C 
ATOM     18  C   UNL     1       1.620   3.214  21.191  0.00  0.00    +0.000 C 
ATOM     19  C   UNL     1       3.067   3.100  20.672  0.00  0.00    +0.000 C 
BRANCH  18  20
ATOM     20  O   UNL     1       1.265   2.357  22.293  0.00  0.00    +0.000 OA
ATOM     21  H   UNL     1       2.074   2.256  22.821  0.00  0.00    +0.000 HD
ENDBRANCH  18  20
ENDBRANCH  15  16
ENDBRANCH  14  15
ENDBRANCH  12  14
ENDBRANCH   2  12
TORSDOF 6
ENDMDL
MODEL 7
REMARK VINA RESULT:      -6.2      3.647      6.533
REMARK  Name = 
REMARK  7 active torsions:
REMARK  status: ('A' for Active; 'I' for Inactive)
REMARK    1  A    between atoms: C_1  and  C_2
REMARK    2  A    between atoms: C_2  and  N_3
REMARK    3  A    between atoms: C_2  and  C_11
REMARK    4  A    between atoms: N_3  and  C_4
REMARK    5  A    between atoms: C_4  and  C_5
REMARK    6  A    between atoms: C_5  and  C_6
REMARK    7  A    between atoms: C_8  and  O_9
REMARK                            x       y       z     vdW  Elec       q    Type
REMARK                         _______ _______ _______ _____ _____    ______ ____
ROOT
ATOM      1  C   UNL     1       4.944   3.984  18.842  0.00  0.00    +0.000 C 
ATOM      2  C   UNL     1       4.823   5.271  18.012  0.00  0.00    +0.000 C 
ENDROOT
BRANCH   2   3
ATOM      3  C   UNL     1       5.630   5.236  16.723  0.00  0.00    +0.000 A 
ATOM      4  C   UNL     1       6.836   5.927  16.496  0.00  0.00    +0.000 A 
ATOM      5 BR   UNL     1       7.606   7.147  17.737  0.00  0.00    +0.000 Br
ATOM      6  C   UNL     1       7.576   5.717  15.319  0.00  0.00    +0.000 A 
ATOM      7  C   UNL     1       7.128   4.821  14.350  0.00  0.00    +0.000 A 
ATOM      8  C   UNL     1       5.929   4.158  14.548  0.00  0.00    +0.000 A 
ATOM      9  F   UNL     1       5.494   3.292  13.622  0.00  0.00    +0.000 F 
ATOM     10  C   UNL     1       5.190   4.365  15.708  0.00  0.00    +0.000 A 
ATOM     11  F   UNL     1       4.043   3.683  15.862  0.00  0.00    +0.000 F 
ENDBRANCH   2   3
BRANCH   2  12
ATOM     12  N   UNL     1       3.448   5.691  17.701  0.00  0.00    +0.000 NA
ATOM     13  H   UNL     1       3.470   6.664  17.395  0.00  0.00    +0.000 HD
BRANCH  12  14
ATOM     14  C   UNL     1       2.476   5.554  18.779  0.00  0.00    +0.000 C 
BRANCH  14  15
ATOM     15  C   UNL     1       1.442   4.450  18.541  0.00  0.00    +0.000 C 
BRANCH  15  16
ATOM     16  C   UNL     1       1.128   3.751  19.857  0.00  0.00    +0.000 C 
ATOM     17  C   UNL     1       1.929   4.253  21.081  0.00  0.00    +0.000 C 
ATOM     18  C   UNL     1       2.106   2.782  21.516  0.00  0.00    +0.000 C 
ATOM     19  C   UNL     1       1.793   2.368  20.064  0.00  0.00    +0.000 C 
BRANCH  18  20
ATOM     20  O   UNL     1       1.203   2.299  22.528  0.00  0.00    +0.000 OA
ATOM     21  H   UNL     1       0.651   3.060  22.776  0.00  0.00    +0.000 HD
ENDBRANCH  18  20
ENDBRANCH  15  16
ENDBRANCH  14  15
ENDBRANCH  12  14
ENDBRANCH   2  12
TORSDOF 6
ENDMDL
MODEL 8
REMARK VINA RESULT:      -6.2      2.621      3.051
REMARK  Name = 
REMARK  7 active torsions:
REMARK  status: ('A' for Active; 'I' for Inactive)
REMARK    1  A    between atoms: C_1  and  C_2
REMARK    2  A    between atoms: C_2  and  N_3
REMARK    3  A    between atoms: C_2  and  C_11
REMARK    4  A    between atoms: N_3  and  C_4
REMARK    5  A    between atoms: C_4  and  C_5
REMARK    6  A    between atoms: C_5  and  C_6
REMARK    7  A    between atoms: C_8  and  O_9
REMARK                            x       y       z     vdW  Elec       q    Type
REMARK                         _______ _______ _______ _____ _____    ______ ____
ROOT
ATOM      1  C   UNL     1       3.096   3.481  17.499  0.00  0.00    +0.000 C 
ATOM      2  C   UNL     1       3.835   4.619  18.218  0.00  0.00    +0.000 C 
ENDROOT
BRANCH   2   3
ATOM      3  C   UNL     1       2.915   5.514  19.036  0.00  0.00    +0.000 A 
ATOM      4  C   UNL     1       2.265   5.142  20.229  0.00  0.00    +0.000 A 
ATOM      5 BR   UNL     1       2.323   3.388  20.964  0.00  0.00    +0.000 Br
ATOM      6  C   UNL     1       1.548   6.088  20.982  0.00  0.00    +0.000 A 
ATOM      7  C   UNL     1       1.462   7.413  20.560  0.00  0.00    +0.000 A 
ATOM      8  C   UNL     1       2.071   7.784  19.374  0.00  0.00    +0.000 A 
ATOM      9  F   UNL     1       1.996   9.058  18.965  0.00  0.00    +0.000 F 
ATOM     10  C   UNL     1       2.779   6.852  18.621  0.00  0.00    +0.000 A 
ATOM     11  F   UNL     1       3.369   7.266  17.488  0.00  0.00    +0.000 F 
ENDBRANCH   2   3
BRANCH   2  12
ATOM     12  N   UNL     1       4.965   4.201  19.062  0.00  0.00    +0.000 NA
ATOM     13  H   UNL     1       4.804   4.544  20.009  0.00  0.00    +0.000 HD
BRANCH  12  14
ATOM     14  C   UNL     1       6.288   4.626  18.621  0.00  0.00    +0.000 C 
BRANCH  14  15
ATOM     15  C   UNL     1       6.307   6.017  17.982  0.00  0.00    +0.000 C 
BRANCH  15  16
ATOM     16  C   UNL     1       6.817   5.917  16.551  0.00  0.00    +0.000 C 
ATOM     17  C   UNL     1       5.722   5.881  15.460  0.00  0.00    +0.000 C 
ATOM     18  C   UNL     1       6.531   4.775  14.746  0.00  0.00    +0.000 C 
ATOM     19  C   UNL     1       7.247   4.504  16.083  0.00  0.00    +0.000 C 
BRANCH  18  20
ATOM     20  O   UNL     1       7.361   5.196  13.647  0.00  0.00    +0.000 OA
ATOM     21  H   UNL     1       7.259   4.515  12.962  0.00  0.00    +0.000 HD
ENDBRANCH  18  20
ENDBRANCH  15  16
ENDBRANCH  14  15
ENDBRANCH  12  14
ENDBRANCH   2  12
TORSDOF 6
ENDMDL
MODEL 9
REMARK VINA RESULT:      -6.2      1.200      1.544
REMARK  Name = 
REMARK  7 active torsions:
REMARK  status: ('A' for Active; 'I' for Inactive)
REMARK    1  A    between atoms: C_1  and  C_2
REMARK    2  A    between atoms: C_2  and  N_3
REMARK    3  A    between atoms: C_2  and  C_11
REMARK    4  A    between atoms: N_3  and  C_4
REMARK    5  A    between atoms: C_4  and  C_5
REMARK    6  A    between atoms: C_5  and  C_6
REMARK    7  A    between atoms: C_8  and  O_9
REMARK                            x       y       z     vdW  Elec       q    Type
REMARK                         _______ _______ _______ _____ _____    ______ ____
ROOT
ATOM      1  C   UNL     1       2.824   2.916  16.682  0.00  0.00    +0.000 C 
ATOM      2  C   UNL     1       3.698   3.899  17.474  0.00  0.00    +0.000 C 
ENDROOT
BRANCH   2   3
ATOM      3  C   UNL     1       3.177   4.173  18.877  0.00  0.00    +0.000 A 
ATOM      4  C   UNL     1       2.654   5.402  19.328  0.00  0.00    +0.000 A 
ATOM      5 BR   UNL     1       2.631   6.990  18.280  0.00  0.00    +0.000 Br
ATOM      6  C   UNL     1       2.070   5.511  20.602  0.00  0.00    +0.000 A 
ATOM      7  C   UNL     1       2.000   4.406  21.447  0.00  0.00    +0.000 A 
ATOM      8  C   UNL     1       2.537   3.201  21.028  0.00  0.00    +0.000 A 
ATOM      9  F   UNL     1       2.469   2.133  21.835  0.00  0.00    +0.000 F 
ATOM     10  C   UNL     1       3.121   3.087  19.770  0.00  0.00    +0.000 A 
ATOM     11  F   UNL     1       3.609   1.892  19.402  0.00  0.00    +0.000 F 
ENDBRANCH   2   3
BRANCH   2  12
ATOM     12  N   UNL     1       5.124   3.546  17.557  0.00  0.00    +0.000 NA
ATOM     13  H   UNL     1       5.270   2.993  18.401  0.00  0.00    +0.000 HD
BRANCH  12  14
ATOM     14  C   UNL     1       6.062   4.661  17.551  0.00  0.00    +0.000 C 
BRANCH  14  15
ATOM     15  C   UNL     1       6.193   5.351  16.191  0.00  0.00    +0.000 C 
BRANCH  15  16
ATOM     16  C   UNL     1       6.379   4.304  15.101  0.00  0.00    +0.000 C 
ATOM     17  C   UNL     1       7.303   4.721  13.933  0.00  0.00    +0.000 C 
ATOM     18  C   UNL     1       6.291   4.079  12.959  0.00  0.00    +0.000 C 
ATOM     19  C   UNL     1       5.229   4.187  14.071  0.00  0.00    +0.000 C 
BRANCH  18  20
ATOM     20  O   UNL     1       6.601   2.752  12.495  0.00  0.00    +0.000 OA
ATOM     21  H   UNL     1       5.970   2.162  12.940  0.00  0.00    +0.000 HD
ENDBRANCH  18  20
ENDBRANCH  15  16
ENDBRANCH  14  15
ENDBRANCH  12  14
ENDBRANCH   2  12
TORSDOF 6
ENDMDL
