MODEL 1
REMARK VINA RESULT:      -7.1      0.000      0.000
REMARK  Name = 
REMARK  5 active torsions:
REMARK  status: ('A' for Active; 'I' for Inactive)
REMARK    1  A    between atoms: C_1  and  C_2
REMARK    2  A    between atoms: C_5  and  C_6
REMARK    3  A    between atoms: C_7  and  C_8
REMARK    4  A    between atoms: N_10  and  C_11
REMARK    5  A    between atoms: C_20  and  C_21
REMARK                            x       y       z     vdW  Elec       q    Type
REMARK                         _______ _______ _______ _____ _____    ______ ____
ROOT
ATOM      1  C   UNL     1      -0.784  10.101  23.074  0.00  0.00    +0.000 C 
ATOM      2  C   UNL     1      -0.064   9.745  21.820  0.00  0.00    +0.000 A 
ATOM      3  N   UNL     1       0.646   8.615  21.739  0.00  0.00    +0.000 NA
ATOM      4  N   UNL     1       1.154   8.595  20.472  0.00  0.00    +0.000 N 
ATOM      5  C   UNL     1       1.960   7.604  19.875  0.00  0.00    +0.000 A 
ATOM      6  C   UNL     1       2.320   6.417  20.735  0.00  0.00    +0.000 C 
ATOM      7  C   UNL     1       2.364   7.758  18.585  0.00  0.00    +0.000 A 
ATOM      8  C   UNL     1       1.880   9.014  17.933  0.00  0.00    +0.000 A 
ATOM      9  N   UNL     1       1.146   9.945  18.466  0.00  0.00    +0.000 NA
ATOM     10  C   UNL     1       0.764   9.736  19.760  0.00  0.00    +0.000 A 
ATOM     11  C   UNL     1      -0.017  10.476  20.619  0.00  0.00    +0.000 A 
ENDROOT
BRANCH   7  12
ATOM     12  C   UNL     1       3.174   6.710  17.872  0.00  0.00    +0.000 C 
ATOM     13  O   UNL     1       2.724   5.574  17.727  0.00  0.00    +0.000 OA
ATOM     14  N   UNL     1       4.451   7.056  17.463  0.00  0.00    +0.000 N 
ATOM     15  H   UNL     1       4.918   7.848  17.888  0.00  0.00    +0.000 HD
BRANCH  14  16
ATOM     16  C   UNL     1       5.290   6.097  16.839  0.00  0.00    +0.000 A 
ATOM     17  C   UNL     1       5.207   5.897  15.458  0.00  0.00    +0.000 A 
ATOM     18  C   UNL     1       6.147   5.089  14.812  0.00  0.00    +0.000 A 
ATOM     19  C   UNL     1       7.122   4.417  15.548  0.00  0.00    +0.000 A 
ATOM     20  C   UNL     1       7.156   4.548  16.935  0.00  0.00    +0.000 A 
ATOM     21  C   UNL     1       6.260   5.409  17.575  0.00  0.00    +0.000 A 
ENDBRANCH  14  16
ENDBRANCH   7  12
BRANCH  11  22
ATOM     22  C   UNL     1      -0.645  11.723  20.332  0.00  0.00    +0.000 C 
ATOM     23  N   UNL     1      -1.197  12.710  20.104  0.00  0.00    +0.000 NA
ENDBRANCH  11  22
TORSDOF 3
ENDMDL
MODEL 2
REMARK VINA RESULT:      -6.8      2.908      3.554
REMARK  Name = 
REMARK  5 active torsions:
REMARK  status: ('A' for Active; 'I' for Inactive)
REMARK    1  A    between atoms: C_1  and  C_2
REMARK    2  A    between atoms: C_5  and  C_6
REMARK    3  A    between atoms: C_7  and  C_8
REMARK    4  A    between atoms: N_10  and  C_11
REMARK    5  A    between atoms: C_20  and  C_21
REMARK                            x       y       z     vdW  Elec       q    Type
REMARK                         _______ _______ _______ _____ _____    ______ ____
ROOT
ATOM      1  C   UNL     1      -0.169  13.292  19.202  0.00  0.00    +0.000 C 
ATOM      2  C   UNL     1       0.238  11.935  19.659  0.00  0.00    +0.000 A 
ATOM      3  N   UNL     1       0.761  11.054  18.799  0.00  0.00    +0.000 NA
ATOM      4  N   UNL     1       1.027   9.939  19.539  0.00  0.00    +0.000 N 
ATOM      5  C   UNL     1       1.605   8.726  19.106  0.00  0.00    +0.000 A 
ATOM      6  C   UNL     1       1.970   8.637  17.645  0.00  0.00    +0.000 C 
ATOM      7  C   UNL     1       1.802   7.722  20.003  0.00  0.00    +0.000 A 
ATOM      8  C   UNL     1       1.364   8.044  21.395  0.00  0.00    +0.000 A 
ATOM      9  N   UNL     1       0.822   9.148  21.815  0.00  0.00    +0.000 NA
ATOM     10  C   UNL     1       0.653  10.124  20.876  0.00  0.00    +0.000 A 
ATOM     11  C   UNL     1       0.146  11.402  20.958  0.00  0.00    +0.000 A 
ENDROOT
BRANCH   7  12
ATOM     12  C   UNL     1       2.467   6.429  19.617  0.00  0.00    +0.000 C 
ATOM     13  O   UNL     1       3.608   6.435  19.155  0.00  0.00    +0.000 OA
ATOM     14  N   UNL     1       1.724   5.267  19.734  0.00  0.00    +0.000 N 
ATOM     15  H   UNL     1       0.713   5.319  19.776  0.00  0.00    +0.000 HD
BRANCH  14  16
ATOM     16  C   UNL     1       2.270   4.021  19.331  0.00  0.00    +0.000 A 
ATOM     17  C   UNL     1       1.890   3.461  18.108  0.00  0.00    +0.000 A 
ATOM     18  C   UNL     1       2.552   2.329  17.624  0.00  0.00    +0.000 A 
ATOM     19  C   UNL     1       3.537   1.707  18.390  0.00  0.00    +0.000 A 
ATOM     20  C   UNL     1       3.860   2.215  19.647  0.00  0.00    +0.000 A 
ATOM     21  C   UNL     1       3.247   3.386  20.103  0.00  0.00    +0.000 A 
ENDBRANCH  14  16
ENDBRANCH   7  12
BRANCH  11  22
ATOM     22  C   UNL     1      -0.358  12.039  22.128  0.00  0.00    +0.000 C 
ATOM     23  N   UNL     1      -0.804  12.522  23.077  0.00  0.00    +0.000 NA
ENDBRANCH  11  22
TORSDOF 3
ENDMDL
MODEL 3
REMARK VINA RESULT:      -6.7      2.229      7.933
REMARK  Name = 
REMARK  5 active torsions:
REMARK  status: ('A' for Active; 'I' for Inactive)
REMARK    1  A    between atoms: C_1  and  C_2
REMARK    2  A    between atoms: C_5  and  C_6
REMARK    3  A    between atoms: C_7  and  C_8
REMARK    4  A    between atoms: N_10  and  C_11
REMARK    5  A    between atoms: C_20  and  C_21
REMARK                            x       y       z     vdW  Elec       q    Type
REMARK                         _______ _______ _______ _____ _____    ______ ____
ROOT
ATOM      1  C   UNL     1       4.954   4.316  18.720  0.00  0.00    +0.000 C 
ATOM      2  C   UNL     1       4.145   5.559  18.598  0.00  0.00    +0.000 A 
ATOM      3  N   UNL     1       3.289   5.913  19.563  0.00  0.00    +0.000 NA
ATOM      4  N   UNL     1       2.732   7.086  19.143  0.00  0.00    +0.000 N 
ATOM      5  C   UNL     1       1.778   7.883  19.810  0.00  0.00    +0.000 A 
ATOM      6  C   UNL     1       1.300   7.384  21.151  0.00  0.00    +0.000 C 
ATOM      7  C   UNL     1       1.347   9.036  19.229  0.00  0.00    +0.000 A 
ATOM      8  C   UNL     1       1.966   9.326  17.900  0.00  0.00    +0.000 A 
ATOM      9  N   UNL     1       2.838   8.603  17.262  0.00  0.00    +0.000 NA
ATOM     10  C   UNL     1       3.241   7.461  17.893  0.00  0.00    +0.000 A 
ATOM     11  C   UNL     1       4.146   6.485  17.539  0.00  0.00    +0.000 A 
ENDROOT
BRANCH   7  12
ATOM     12  C   UNL     1       0.378   9.959  19.915  0.00  0.00    +0.000 C 
ATOM     13  O   UNL     1      -0.788  10.029  19.528  0.00  0.00    +0.000 OA
ATOM     14  N   UNL     1       0.867  10.763  20.930  0.00  0.00    +0.000 N 
ATOM     15  H   UNL     1       1.862  10.942  20.994  0.00  0.00    +0.000 HD
BRANCH  14  16
ATOM     16  C   UNL     1       0.021  11.699  21.578  0.00  0.00    +0.000 A 
ATOM     17  C   UNL     1      -0.939  11.250  22.490  0.00  0.00    +0.000 A 
ATOM     18  C   UNL     1      -1.653  12.171  23.262  0.00  0.00    +0.000 A 
ATOM     19  C   UNL     1      -1.469  13.541  23.072  0.00  0.00    +0.000 A 
ATOM     20  C   UNL     1      -0.573  13.992  22.105  0.00  0.00    +0.000 A 
ATOM     21  C   UNL     1       0.190  13.072  21.381  0.00  0.00    +0.000 A 
ENDBRANCH  14  16
ENDBRANCH   7  12
BRANCH  11  22
ATOM     22  C   UNL     1       4.921   6.442  16.344  0.00  0.00    +0.000 C 
ATOM     23  N   UNL     1       5.576   6.372  15.397  0.00  0.00    +0.000 NA
ENDBRANCH  11  22
TORSDOF 3
ENDMDL
MODEL 4
REMARK VINA RESULT:      -6.6      2.292      7.953
REMARK  Name = 
REMARK  5 active torsions:
REMARK  status: ('A' for Active; 'I' for Inactive)
REMARK    1  A    between atoms: C_1  and  C_2
REMARK    2  A    between atoms: C_5  and  C_6
REMARK    3  A    between atoms: C_7  and  C_8
REMARK    4  A    between atoms: N_10  and  C_11
REMARK    5  A    between atoms: C_20  and  C_21
REMARK                            x       y       z     vdW  Elec       q    Type
REMARK                         _______ _______ _______ _____ _____    ______ ____
ROOT
ATOM      1  C   UNL     1       4.864   4.576  18.943  0.00  0.00    +0.000 C 
ATOM      2  C   UNL     1       4.024   5.792  18.769  0.00  0.00    +0.000 A 
ATOM      3  N   UNL     1       3.164   6.169  19.722  0.00  0.00    +0.000 NA
ATOM      4  N   UNL     1       2.577   7.308  19.252  0.00  0.00    +0.000 N 
ATOM      5  C   UNL     1       1.608   8.112  19.887  0.00  0.00    +0.000 A 
ATOM      6  C   UNL     1       1.149   7.664  21.253  0.00  0.00    +0.000 C 
ATOM      7  C   UNL     1       1.146   9.226  19.257  0.00  0.00    +0.000 A 
ATOM      8  C   UNL     1       1.751   9.470  17.912  0.00  0.00    +0.000 A 
ATOM      9  N   UNL     1       2.637   8.739  17.303  0.00  0.00    +0.000 NA
ATOM     10  C   UNL     1       3.070   7.637  17.983  0.00  0.00    +0.000 A 
ATOM     11  C   UNL     1       3.997   6.669  17.669  0.00  0.00    +0.000 A 
ENDROOT
BRANCH   7  12
ATOM     12  C   UNL     1       0.157  10.156  19.906  0.00  0.00    +0.000 C 
ATOM     13  O   UNL     1      -0.989  10.243  19.468  0.00  0.00    +0.000 OA
ATOM     14  N   UNL     1       0.611  10.947  20.948  0.00  0.00    +0.000 N 
ATOM     15  H   UNL     1       1.604  11.114  21.057  0.00  0.00    +0.000 HD
BRANCH  14  16
ATOM     16  C   UNL     1      -0.253  11.889  21.564  0.00  0.00    +0.000 A 
ATOM     17  C   UNL     1      -0.380  13.171  21.022  0.00  0.00    +0.000 A 
ATOM     18  C   UNL     1      -1.356  14.043  21.514  0.00  0.00    +0.000 A 
ATOM     19  C   UNL     1      -2.153  13.669  22.596  0.00  0.00    +0.000 A 
ATOM     20  C   UNL     1      -1.971  12.423  23.193  0.00  0.00    +0.000 A 
ATOM     21  C   UNL     1      -1.043  11.525  22.659  0.00  0.00    +0.000 A 
ENDBRANCH  14  16
ENDBRANCH   7  12
BRANCH  11  22
ATOM     22  C   UNL     1       4.767   6.590  16.472  0.00  0.00    +0.000 C 
ATOM     23  N   UNL     1       5.381   6.574  15.495  0.00  0.00    +0.000 NA
ENDBRANCH  11  22
TORSDOF 3
ENDMDL
MODEL 5
REMARK VINA RESULT:      -6.6      0.701      1.226
REMARK  Name = 
REMARK  5 active torsions:
REMARK  status: ('A' for Active; 'I' for Inactive)
REMARK    1  A    between atoms: C_1  and  C_2
REMARK    2  A    between atoms: C_5  and  C_6
REMARK    3  A    between atoms: C_7  and  C_8
REMARK    4  A    between atoms: N_10  and  C_11
REMARK    5  A    between atoms: C_20  and  C_21
REMARK                            x       y       z     vdW  Elec       q    Type
REMARK                         _______ _______ _______ _____ _____    ______ ____
ROOT
ATOM      1  C   UNL     1      -0.998  10.949  22.925  0.00  0.00    +0.000 C 
ATOM      2  C   UNL     1      -0.252  10.512  21.714  0.00  0.00    +0.000 A 
ATOM      3  N   UNL     1       0.354   9.321  21.679  0.00  0.00    +0.000 NA
ATOM      4  N   UNL     1       0.922   9.238  20.440  0.00  0.00    +0.000 N 
ATOM      5  C   UNL     1       1.663   8.170  19.893  0.00  0.00    +0.000 A 
ATOM      6  C   UNL     1       1.867   6.966  20.780  0.00  0.00    +0.000 C 
ATOM      7  C   UNL     1       2.144   8.270  18.625  0.00  0.00    +0.000 A 
ATOM      8  C   UNL     1       1.812   9.556  17.938  0.00  0.00    +0.000 A 
ATOM      9  N   UNL     1       1.140  10.557  18.425  0.00  0.00    +0.000 NA
ATOM     10  C   UNL     1       0.675  10.401  19.699  0.00  0.00    +0.000 A 
ATOM     11  C   UNL     1      -0.076  11.220  20.511  0.00  0.00    +0.000 A 
ENDROOT
BRANCH   7  12
ATOM     12  C   UNL     1       2.889   7.143  17.963  0.00  0.00    +0.000 C 
ATOM     13  O   UNL     1       2.354   6.043  17.830  0.00  0.00    +0.000 OA
ATOM     14  N   UNL     1       4.202   7.376  17.589  0.00  0.00    +0.000 N 
ATOM     15  H   UNL     1       4.717   8.139  18.010  0.00  0.00    +0.000 HD
BRANCH  14  16
ATOM     16  C   UNL     1       4.981   6.338  17.015  0.00  0.00    +0.000 A 
ATOM     17  C   UNL     1       5.556   5.367  17.840  0.00  0.00    +0.000 A 
ATOM     18  C   UNL     1       6.173   4.247  17.273  0.00  0.00    +0.000 A 
ATOM     19  C   UNL     1       6.286   4.131  15.888  0.00  0.00    +0.000 A 
ATOM     20  C   UNL     1       5.787   5.139  15.065  0.00  0.00    +0.000 A 
ATOM     21  C   UNL     1       5.111   6.226  15.628  0.00  0.00    +0.000 A 
ENDBRANCH  14  16
ENDBRANCH   7  12
BRANCH  11  22
ATOM     22  C   UNL     1      -0.572  12.516  20.181  0.00  0.00    +0.000 C 
ATOM     23  N   UNL     1      -1.019  13.548  19.925  0.00  0.00    +0.000 NA
ENDBRANCH  11  22
TORSDOF 3
ENDMDL
MODEL 6
REMARK VINA RESULT:      -6.6      2.816      3.706
REMARK  Name = 
REMARK  5 active torsions:
REMARK  status: ('A' for Active; 'I' for Inactive)
REMARK    1  A    between atoms: C_1  and  C_2
REMARK    2  A    between atoms: C_5  and  C_6
REMARK    3  A    between atoms: C_7  and  C_8
REMARK    4  A    between atoms: N_10  and  C_11
REMARK    5  A    between atoms: C_20  and  C_21
REMARK                            x       y       z     vdW  Elec       q    Type
REMARK                         _______ _______ _______ _____ _____    ______ ____
ROOT
ATOM      1  C   UNL     1      -0.589  13.481  19.425  0.00  0.00    +0.000 C 
ATOM      2  C   UNL     1      -0.105  12.135  19.835  0.00  0.00    +0.000 A 
ATOM      3  N   UNL     1       0.447  11.307  18.941  0.00  0.00    +0.000 NA
ATOM      4  N   UNL     1       0.783  10.186  19.643  0.00  0.00    +0.000 N 
ATOM      5  C   UNL     1       1.414   9.018  19.165  0.00  0.00    +0.000 A 
ATOM      6  C   UNL     1       1.757   8.989  17.696  0.00  0.00    +0.000 C 
ATOM      7  C   UNL     1       1.680   8.001  20.029  0.00  0.00    +0.000 A 
ATOM      8  C   UNL     1       1.251   8.259  21.438  0.00  0.00    +0.000 A 
ATOM      9  N   UNL     1       0.661   9.322  21.898  0.00  0.00    +0.000 NA
ATOM     10  C   UNL     1       0.425  10.314  20.991  0.00  0.00    +0.000 A 
ATOM     11  C   UNL     1      -0.146  11.561  21.119  0.00  0.00    +0.000 A 
ENDROOT
BRANCH   7  12
ATOM     12  C   UNL     1       2.403   6.755  19.594  0.00  0.00    +0.000 C 
ATOM     13  O   UNL     1       3.540   6.832  19.131  0.00  0.00    +0.000 OA
ATOM     14  N   UNL     1       1.716   5.556  19.669  0.00  0.00    +0.000 N 
ATOM     15  H   UNL     1       0.703   5.558  19.715  0.00  0.00    +0.000 HD
BRANCH  14  16
ATOM     16  C   UNL     1       2.318   4.353  19.220  0.00  0.00    +0.000 A 
ATOM     17  C   UNL     1       2.997   3.536  20.128  0.00  0.00    +0.000 A 
ATOM     18  C   UNL     1       3.437   2.269  19.734  0.00  0.00    +0.000 A 
ATOM     19  C   UNL     1       3.272   1.845  18.416  0.00  0.00    +0.000 A 
ATOM     20  C   UNL     1       2.670   2.692  17.486  0.00  0.00    +0.000 A 
ATOM     21  C   UNL     1       2.169   3.931  17.895  0.00  0.00    +0.000 A 
ENDBRANCH  14  16
ENDBRANCH   7  12
BRANCH  11  22
ATOM     22  C   UNL     1      -0.661  12.137  22.316  0.00  0.00    +0.000 C 
ATOM     23  N   UNL     1      -1.070  12.561  23.308  0.00  0.00    +0.000 NA
ENDBRANCH  11  22
TORSDOF 3
ENDMDL
MODEL 7
REMARK VINA RESULT:      -6.6      3.480      4.275
REMARK  Name = 
REMARK  5 active torsions:
REMARK  status: ('A' for Active; 'I' for Inactive)
REMARK    1  A    between atoms: C_1  and  C_2
REMARK    2  A    between atoms: C_5  and  C_6
REMARK    3  A    between atoms: C_7  and  C_8
REMARK    4  A    between atoms: N_10  and  C_11
REMARK    5  A    between atoms: C_20  and  C_21
REMARK                            x       y       z     vdW  Elec       q    Type
REMARK                         _______ _______ _______ _____ _____    ______ ____
ROOT
ATOM      1  C   UNL     1      -0.049  13.974  18.817  0.00  0.00    +0.000 C 
ATOM      2  C   UNL     1       0.293  12.681  19.469  0.00  0.00    +0.000 A 
ATOM      3  N   UNL     1       0.602  11.606  18.735  0.00  0.00    +0.000 NA
ATOM      4  N   UNL     1       0.869  10.616  19.635  0.00  0.00    +0.000 N 
ATOM      5  C   UNL     1       1.264   9.287  19.373  0.00  0.00    +0.000 A 
ATOM      6  C   UNL     1       1.404   8.898  17.922  0.00  0.00    +0.000 C 
ATOM      7  C   UNL     1       1.495   8.441  20.413  0.00  0.00    +0.000 A 
ATOM      8  C   UNL     1       1.295   9.052  21.762  0.00  0.00    +0.000 A 
ATOM      9  N   UNL     1       0.923  10.269  22.028  0.00  0.00    +0.000 NA
ATOM     10  C   UNL     1       0.710  11.077  20.948  0.00  0.00    +0.000 A 
ATOM     11  C   UNL     1       0.340  12.399  20.847  0.00  0.00    +0.000 A 
ENDROOT
BRANCH   7  12
ATOM     12  C   UNL     1       1.976   7.031  20.201  0.00  0.00    +0.000 C 
ATOM     13  O   UNL     1       3.022   6.820  19.589  0.00  0.00    +0.000 OA
ATOM     14  N   UNL     1       1.165   6.004  20.652  0.00  0.00    +0.000 N 
ATOM     15  H   UNL     1       0.183   6.178  20.827  0.00  0.00    +0.000 HD
BRANCH  14  16
ATOM     16  C   UNL     1       1.529   4.650  20.432  0.00  0.00    +0.000 A 
ATOM     17  C   UNL     1       1.286   4.061  19.188  0.00  0.00    +0.000 A 
ATOM     18  C   UNL     1       1.799   2.792  18.905  0.00  0.00    +0.000 A 
ATOM     19  C   UNL     1       2.487   2.076  19.884  0.00  0.00    +0.000 A 
ATOM     20  C   UNL     1       2.659   2.627  21.153  0.00  0.00    +0.000 A 
ATOM     21  C   UNL     1       2.205   3.923  21.416  0.00  0.00    +0.000 A 
ENDBRANCH  14  16
ENDBRANCH   7  12
BRANCH  11  22
ATOM     22  C   UNL     1       0.071  13.288  21.929  0.00  0.00    +0.000 C 
ATOM     23  N   UNL     1      -0.171  13.971  22.826  0.00  0.00    +0.000 NA
ENDBRANCH  11  22
TORSDOF 3
ENDMDL
MODEL 8
REMARK VINA RESULT:      -6.4      2.609      2.925
REMARK  Name = 
REMARK  5 active torsions:
REMARK  status: ('A' for Active; 'I' for Inactive)
REMARK    1  A    between atoms: C_1  and  C_2
REMARK    2  A    between atoms: C_5  and  C_6
REMARK    3  A    between atoms: C_7  and  C_8
REMARK    4  A    between atoms: N_10  and  C_11
REMARK    5  A    between atoms: C_20  and  C_21
REMARK                            x       y       z     vdW  Elec       q    Type
REMARK                         _______ _______ _______ _____ _____    ______ ____
ROOT
ATOM      1  C   UNL     1      -1.109  11.955  21.833  0.00  0.00    +0.000 C 
ATOM      2  C   UNL     1      -0.277  11.149  20.900  0.00  0.00    +0.000 A 
ATOM      3  N   UNL     1       0.155   9.932  21.249  0.00  0.00    +0.000 NA
ATOM      4  N   UNL     1       0.866   9.477  20.177  0.00  0.00    +0.000 N 
ATOM      5  C   UNL     1       1.516   8.234  20.029  0.00  0.00    +0.000 A 
ATOM      6  C   UNL     1       1.428   7.283  21.198  0.00  0.00    +0.000 C 
ATOM      7  C   UNL     1       2.172   7.955  18.870  0.00  0.00    +0.000 A 
ATOM      8  C   UNL     1       2.120   9.050  17.853  0.00  0.00    +0.000 A 
ATOM      9  N   UNL     1       1.536  10.206  17.970  0.00  0.00    +0.000 NA
ATOM     10  C   UNL     1       0.887  10.430  19.151  0.00  0.00    +0.000 A 
ATOM     11  C   UNL     1       0.157  11.503  19.609  0.00  0.00    +0.000 A 
ENDROOT
BRANCH   7  12
ATOM     12  C   UNL     1       2.833   6.626  18.628  0.00  0.00    +0.000 C 
ATOM     13  O   UNL     1       3.908   6.570  18.031  0.00  0.00    +0.000 OA
ATOM     14  N   UNL     1       2.154   5.490  19.033  0.00  0.00    +0.000 N 
ATOM     15  H   UNL     1       1.155   5.532  19.194  0.00  0.00    +0.000 HD
BRANCH  14  16
ATOM     16  C   UNL     1       2.693   4.202  18.782  0.00  0.00    +0.000 A 
ATOM     17  C   UNL     1       3.564   3.622  19.708  0.00  0.00    +0.000 A 
ATOM     18  C   UNL     1       3.957   2.289  19.557  0.00  0.00    +0.000 A 
ATOM     19  C   UNL     1       3.548   1.556  18.443  0.00  0.00    +0.000 A 
ATOM     20  C   UNL     1       2.748   2.158  17.473  0.00  0.00    +0.000 A 
ATOM     21  C   UNL     1       2.299   3.469  17.658  0.00  0.00    +0.000 A 
ENDBRANCH  14  16
ENDBRANCH   7  12
BRANCH  11  22
ATOM     22  C   UNL     1      -0.102  12.714  18.904  0.00  0.00    +0.000 C 
ATOM     23  N   UNL     1      -0.266  13.710  18.345  0.00  0.00    +0.000 NA
ENDBRANCH  11  22
TORSDOF 3
ENDMDL
MODEL 9
REMARK VINA RESULT:      -6.4      1.027      2.188
REMARK  Name = 
REMARK  5 active torsions:
REMARK  status: ('A' for Active; 'I' for Inactive)
REMARK    1  A    between atoms: C_1  and  C_2
REMARK    2  A    between atoms: C_5  and  C_6
REMARK    3  A    between atoms: C_7  and  C_8
REMARK    4  A    between atoms: N_10  and  C_11
REMARK    5  A    between atoms: C_20  and  C_21
REMARK                            x       y       z     vdW  Elec       q    Type
REMARK                         _______ _______ _______ _____ _____    ______ ____
ROOT
ATOM      1  C   UNL     1      -0.554  12.588  20.013  0.00  0.00    +0.000 C 
ATOM      2  C   UNL     1       0.065  11.236  20.075  0.00  0.00    +0.000 A 
ATOM      3  N   UNL     1       0.720  10.736  19.022  0.00  0.00    +0.000 NA
ATOM      4  N   UNL     1       1.162   9.507  19.419  0.00  0.00    +0.000 N 
ATOM      5  C   UNL     1       1.924   8.577  18.681  0.00  0.00    +0.000 A 
ATOM      6  C   UNL     1       2.297   8.976  17.274  0.00  0.00    +0.000 C 
ATOM      7  C   UNL     1       2.281   7.397  19.257  0.00  0.00    +0.000 A 
ATOM      8  C   UNL     1       1.800   7.226  20.662  0.00  0.00    +0.000 A 
ATOM      9  N   UNL     1       1.089   8.063  21.358  0.00  0.00    +0.000 NA
ATOM     10  C   UNL     1       0.765   9.234  20.734  0.00  0.00    +0.000 A 
ATOM     11  C   UNL     1       0.061  10.338  21.159  0.00  0.00    +0.000 A 
ENDROOT
BRANCH   7  12
ATOM     12  C   UNL     1       3.143   6.391  18.544  0.00  0.00    +0.000 C 
ATOM     13  O   UNL     1       2.794   5.213  18.482  0.00  0.00    +0.000 OA
ATOM     14  N   UNL     1       4.355   6.830  18.040  0.00  0.00    +0.000 N 
ATOM     15  H   UNL     1       4.769   7.683  18.396  0.00  0.00    +0.000 HD
BRANCH  14  16
ATOM     16  C   UNL     1       5.243   5.920  17.409  0.00  0.00    +0.000 A 
ATOM     17  C   UNL     1       5.057   5.590  16.064  0.00  0.00    +0.000 A 
ATOM     18  C   UNL     1       6.024   4.839  15.390  0.00  0.00    +0.000 A 
ATOM     19  C   UNL     1       7.137   4.349  16.072  0.00  0.00    +0.000 A 
ATOM     20  C   UNL     1       7.283   4.605  17.435  0.00  0.00    +0.000 A 
ATOM     21  C   UNL     1       6.351   5.413  18.094  0.00  0.00    +0.000 A 
ENDBRANCH  14  16
ENDBRANCH   7  12
BRANCH  11  22
ATOM     22  C   UNL     1      -0.536  10.520  22.440  0.00  0.00    +0.000 C 
ATOM     23  N   UNL     1      -1.064  10.673  23.455  0.00  0.00    +0.000 NA
ENDBRANCH  11  22
TORSDOF 3
ENDMDL
