MODEL 1
REMARK VINA RESULT:      -7.8      0.000      0.000
REMARK  Name = 
REMARK  7 active torsions:
REMARK  status: ('A' for Active; 'I' for Inactive)
REMARK    1  A    between atoms: C_1  and  C_2
REMARK    2  A    between atoms: C_3  and  C_4
REMARK    3  A    between atoms: C_4  and  C_5
REMARK    4  A    between atoms: C_10  and  C_11
REMARK    5  A    between atoms: N_23  and  C_24
REMARK    6  A    between atoms: C_24  and  C_25
REMARK    7  A    between atoms: C_25  and  O_27
REMARK                            x       y       z     vdW  Elec       q    Type
REMARK                         _______ _______ _______ _____ _____    ______ ____
ROOT
ATOM      1  C   UNL     1      -2.022  12.487  21.422  0.00  0.00    +0.000 C 
ATOM      2  C   UNL     1      -3.081  12.346  20.368  0.00  0.00    +0.000 A 
ATOM      3  C   UNL     1      -2.968  11.797  19.082  0.00  0.00    +0.000 A 
ATOM      4  C   UNL     1      -4.269  11.975  18.450  0.00  0.00    +0.000 A 
ATOM      5  C   UNL     1      -5.078  12.597  19.394  0.00  0.00    +0.000 A 
ATOM      6  N   UNL     1      -4.368  12.814  20.543  0.00  0.00    +0.000 N 
ATOM      7  C   UNL     1      -6.494  13.031  19.147  0.00  0.00    +0.000 C 
ATOM      8  C   UNL     1      -7.058  12.323  17.911  0.00  0.00    +0.000 C 
ATOM      9  N   UNL     1      -6.092  12.168  16.852  0.00  0.00    +0.000 N 
ATOM     10  C   UNL     1      -4.846  11.649  17.128  0.00  0.00    +0.000 C 
ATOM     11  O   UNL     1      -4.374  10.924  16.262  0.00  0.00    +0.000 OA
ATOM     12  H   UNL     1      -6.418  11.800  15.967  0.00  0.00    +0.000 HD
ENDROOT
BRANCH   3  13
ATOM     13  C   UNL     1      -1.669  11.149  18.614  0.00  0.00    +0.000 C 
BRANCH  13  14
ATOM     14  C   UNL     1      -0.495  12.069  18.779  0.00  0.00    +0.000 A 
ATOM     15  C   UNL     1      -0.649  13.364  18.215  0.00  0.00    +0.000 A 
ATOM     16  C   UNL     1       0.351  14.322  18.306  0.00  0.00    +0.000 A 
ATOM     17  C   UNL     1       1.552  13.975  18.899  0.00  0.00    +0.000 A 
ATOM     18  C   UNL     1       1.728  12.688  19.428  0.00  0.00    +0.000 A 
ATOM     19  C   UNL     1       0.700  11.714  19.470  0.00  0.00    +0.000 A 
BRANCH  19  20
ATOM     20  C   UNL     1       0.957  10.361  20.124  0.00  0.00    +0.000 A 
ATOM     21  C   UNL     1       0.602  10.140  21.478  0.00  0.00    +0.000 A 
ATOM     22  C   UNL     1       0.755   8.933  22.149  0.00  0.00    +0.000 A 
ATOM     23  C   UNL     1       1.302   7.863  21.479  0.00  0.00    +0.000 A 
ATOM     24  C   UNL     1       1.713   8.007  20.155  0.00  0.00    +0.000 A 
ATOM     25  C   UNL     1       2.334   6.909  19.546  0.00  0.00    +0.000 A 
ATOM     26  C   UNL     1       2.758   6.971  18.226  0.00  0.00    +0.000 A 
ATOM     27  C   UNL     1       2.546   8.125  17.490  0.00  0.00    +0.000 A 
ATOM     28  C   UNL     1       1.962   9.240  18.095  0.00  0.00    +0.000 A 
ATOM     29  C   UNL     1       1.531   9.236  19.445  0.00  0.00    +0.000 A 
ENDBRANCH  19  20
ENDBRANCH  13  14
ENDBRANCH   3  13
BRANCH   6  30
ATOM     30  C   UNL     1      -4.863  13.528  21.718  0.00  0.00    +0.000 C 
BRANCH  30  31
ATOM     31  C   UNL     1      -5.457  12.661  22.794  0.00  0.00    +0.000 C 
ATOM     32  O   UNL     1      -6.639  12.290  22.767  0.00  0.00    +0.000 OA
BRANCH  31  33
ATOM     33  O   UNL     1      -4.664  12.353  23.850  0.00  0.00    +0.000 OA
ATOM     34  H   UNL     1      -5.135  11.956  24.614  0.00  0.00    +0.000 HD
ENDBRANCH  31  33
ENDBRANCH  30  31
ENDBRANCH   6  30
TORSDOF 6
ENDMDL
MODEL 2
REMARK VINA RESULT:      -7.8      1.463      3.127
REMARK  Name = 
REMARK  7 active torsions:
REMARK  status: ('A' for Active; 'I' for Inactive)
REMARK    1  A    between atoms: C_1  and  C_2
REMARK    2  A    between atoms: C_3  and  C_4
REMARK    3  A    between atoms: C_4  and  C_5
REMARK    4  A    between atoms: C_10  and  C_11
REMARK    5  A    between atoms: N_23  and  C_24
REMARK    6  A    between atoms: C_24  and  C_25
REMARK    7  A    between atoms: C_25  and  O_27
REMARK                            x       y       z     vdW  Elec       q    Type
REMARK                         _______ _______ _______ _____ _____    ______ ____
ROOT
ATOM      1  C   UNL     1      -4.023  10.998  16.411  0.00  0.00    +0.000 C 
ATOM      2  C   UNL     1      -4.053  11.612  17.780  0.00  0.00    +0.000 A 
ATOM      3  C   UNL     1      -3.032  11.658  18.741  0.00  0.00    +0.000 A 
ATOM      4  C   UNL     1      -3.609  12.302  19.914  0.00  0.00    +0.000 A 
ATOM      5  C   UNL     1      -4.921  12.616  19.580  0.00  0.00    +0.000 A 
ATOM      6  N   UNL     1      -5.185  12.207  18.301  0.00  0.00    +0.000 N 
ATOM      7  C   UNL     1      -5.913  13.239  20.520  0.00  0.00    +0.000 C 
ATOM      8  C   UNL     1      -5.188  13.871  21.712  0.00  0.00    +0.000 C 
ATOM      9  N   UNL     1      -4.058  13.101  22.167  0.00  0.00    +0.000 N 
ATOM     10  C   UNL     1      -3.116  12.660  21.262  0.00  0.00    +0.000 C 
ATOM     11  O   UNL     1      -1.959  12.666  21.660  0.00  0.00    +0.000 OA
ATOM     12  H   UNL     1      -3.591  13.404  23.012  0.00  0.00    +0.000 HD
ENDROOT
BRANCH   3  13
ATOM     13  C   UNL     1      -1.637  11.121  18.434  0.00  0.00    +0.000 C 
BRANCH  13  14
ATOM     14  C   UNL     1      -0.567  12.109  18.796  0.00  0.00    +0.000 A 
ATOM     15  C   UNL     1      -0.742  13.418  18.273  0.00  0.00    +0.000 A 
ATOM     16  C   UNL     1       0.163  14.436  18.539  0.00  0.00    +0.000 A 
ATOM     17  C   UNL     1       1.298  14.141  19.275  0.00  0.00    +0.000 A 
ATOM     18  C   UNL     1       1.498  12.843  19.766  0.00  0.00    +0.000 A 
ATOM     19  C   UNL     1       0.549  11.801  19.626  0.00  0.00    +0.000 A 
BRANCH  19  20
ATOM     20  C   UNL     1       0.818  10.435  20.250  0.00  0.00    +0.000 A 
ATOM     21  C   UNL     1       0.442  10.174  21.591  0.00  0.00    +0.000 A 
ATOM     22  C   UNL     1       0.604   8.952  22.234  0.00  0.00    +0.000 A 
ATOM     23  C   UNL     1       1.182   7.909  21.547  0.00  0.00    +0.000 A 
ATOM     24  C   UNL     1       1.614   8.094  20.234  0.00  0.00    +0.000 A 
ATOM     25  C   UNL     1       2.264   7.023  19.609  0.00  0.00    +0.000 A 
ATOM     26  C   UNL     1       2.711   7.126  18.299  0.00  0.00    +0.000 A 
ATOM     27  C   UNL     1       2.492   8.295  17.589  0.00  0.00    +0.000 A 
ATOM     28  C   UNL     1       1.879   9.384  18.212  0.00  0.00    +0.000 A 
ATOM     29  C   UNL     1       1.423   9.338  19.553  0.00  0.00    +0.000 A 
ENDBRANCH  19  20
ENDBRANCH  13  14
ENDBRANCH   3  13
BRANCH   6  30
ATOM     30  C   UNL     1      -6.486  12.287  17.641  0.00  0.00    +0.000 C 
BRANCH  30  31
ATOM     31  C   UNL     1      -6.932  13.673  17.264  0.00  0.00    +0.000 C 
ATOM     32  O   UNL     1      -7.915  14.217  17.787  0.00  0.00    +0.000 OA
BRANCH  31  33
ATOM     33  O   UNL     1      -6.255  14.292  16.264  0.00  0.00    +0.000 OA
ATOM     34  H   UNL     1      -6.271  13.817  15.406  0.00  0.00    +0.000 HD
ENDBRANCH  31  33
ENDBRANCH  30  31
ENDBRANCH   6  30
TORSDOF 6
ENDMDL
MODEL 3
REMARK VINA RESULT:      -7.6      2.333      6.189
REMARK  Name = 
REMARK  7 active torsions:
REMARK  status: ('A' for Active; 'I' for Inactive)
REMARK    1  A    between atoms: C_1  and  C_2
REMARK    2  A    between atoms: C_3  and  C_4
REMARK    3  A    between atoms: C_4  and  C_5
REMARK    4  A    between atoms: C_10  and  C_11
REMARK    5  A    between atoms: N_23  and  C_24
REMARK    6  A    between atoms: C_24  and  C_25
REMARK    7  A    between atoms: C_25  and  O_27
REMARK                            x       y       z     vdW  Elec       q    Type
REMARK                         _______ _______ _______ _____ _____    ______ ____
ROOT
ATOM      1  C   UNL     1      -0.837  10.257  17.881  0.00  0.00    +0.000 C 
ATOM      2  C   UNL     1      -2.091  10.970  18.294  0.00  0.00    +0.000 A 
ATOM      3  C   UNL     1      -2.271  11.892  19.337  0.00  0.00    +0.000 A 
ATOM      4  C   UNL     1      -3.690  12.220  19.347  0.00  0.00    +0.000 A 
ATOM      5  C   UNL     1      -4.265  11.497  18.308  0.00  0.00    +0.000 A 
ATOM      6  N   UNL     1      -3.306  10.753  17.675  0.00  0.00    +0.000 N 
ATOM      7  C   UNL     1      -5.732  11.483  17.991  0.00  0.00    +0.000 C 
ATOM      8  C   UNL     1      -6.429  12.674  18.654  0.00  0.00    +0.000 C 
ATOM      9  N   UNL     1      -5.917  12.976  19.967  0.00  0.00    +0.000 N 
ATOM     10  C   UNL     1      -4.558  13.095  20.165  0.00  0.00    +0.000 C 
ATOM     11  O   UNL     1      -4.215  13.957  20.963  0.00  0.00    +0.000 OA
ATOM     12  H   UNL     1      -6.395  13.687  20.507  0.00  0.00    +0.000 HD
ENDROOT
BRANCH   3  13
ATOM     13  C   UNL     1      -1.090  12.372  20.174  0.00  0.00    +0.000 C 
BRANCH  13  14
ATOM     14  C   UNL     1      -0.675  11.351  21.192  0.00  0.00    +0.000 A 
ATOM     15  C   UNL     1       0.198  10.335  20.718  0.00  0.00    +0.000 A 
ATOM     16  C   UNL     1       0.673   9.334  21.554  0.00  0.00    +0.000 A 
ATOM     17  C   UNL     1       0.224   9.292  22.862  0.00  0.00    +0.000 A 
ATOM     18  C   UNL     1      -0.666  10.269  23.331  0.00  0.00    +0.000 A 
ATOM     19  C   UNL     1      -1.085  11.379  22.556  0.00  0.00    +0.000 A 
BRANCH  19  20
ATOM     20  C   UNL     1      -2.003  12.432  23.167  0.00  0.00    +0.000 A 
ATOM     21  C   UNL     1      -3.286  12.072  23.649  0.00  0.00    +0.000 A 
ATOM     22  C   UNL     1      -4.175  12.947  24.261  0.00  0.00    +0.000 A 
ATOM     23  C   UNL     1      -3.817  14.267  24.408  0.00  0.00    +0.000 A 
ATOM     24  C   UNL     1      -2.586  14.711  23.928  0.00  0.00    +0.000 A 
ATOM     25  C   UNL     1      -2.304  16.079  24.035  0.00  0.00    +0.000 A 
ATOM     26  C   UNL     1      -1.095  16.596  23.592  0.00  0.00    +0.000 A 
ATOM     27  C   UNL     1      -0.141  15.746  23.056  0.00  0.00    +0.000 A 
ATOM     28  C   UNL     1      -0.423  14.386  22.908  0.00  0.00    +0.000 A 
ATOM     29  C   UNL     1      -1.649  13.813  23.325  0.00  0.00    +0.000 A 
ENDBRANCH  19  20
ENDBRANCH  13  14
ENDBRANCH   3  13
BRANCH   6  30
ATOM     30  C   UNL     1      -3.554   9.800  16.596  0.00  0.00    +0.000 C 
BRANCH  30  31
ATOM     31  C   UNL     1      -3.442  10.360  15.204  0.00  0.00    +0.000 C 
ATOM     32  O   UNL     1      -4.023   9.848  14.237  0.00  0.00    +0.000 OA
BRANCH  31  33
ATOM     33  O   UNL     1      -2.614  11.419  15.027  0.00  0.00    +0.000 OA
ATOM     34  H   UNL     1      -1.809  11.225  14.499  0.00  0.00    +0.000 HD
ENDBRANCH  31  33
ENDBRANCH  30  31
ENDBRANCH   6  30
TORSDOF 6
ENDMDL
MODEL 4
REMARK VINA RESULT:      -7.5      2.571      5.769
REMARK  Name = 
REMARK  7 active torsions:
REMARK  status: ('A' for Active; 'I' for Inactive)
REMARK    1  A    between atoms: C_1  and  C_2
REMARK    2  A    between atoms: C_3  and  C_4
REMARK    3  A    between atoms: C_4  and  C_5
REMARK    4  A    between atoms: C_10  and  C_11
REMARK    5  A    between atoms: N_23  and  C_24
REMARK    6  A    between atoms: C_24  and  C_25
REMARK    7  A    between atoms: C_25  and  O_27
REMARK                            x       y       z     vdW  Elec       q    Type
REMARK                         _______ _______ _______ _____ _____    ______ ____
ROOT
ATOM      1  C   UNL     1      -4.684  13.193  21.277  0.00  0.00    +0.000 C 
ATOM      2  C   UNL     1      -4.163  12.575  20.013  0.00  0.00    +0.000 A 
ATOM      3  C   UNL     1      -2.833  12.457  19.580  0.00  0.00    +0.000 A 
ATOM      4  C   UNL     1      -2.891  11.846  18.259  0.00  0.00    +0.000 A 
ATOM      5  C   UNL     1      -4.236  11.620  17.992  0.00  0.00    +0.000 A 
ATOM      6  N   UNL     1      -4.996  12.053  19.045  0.00  0.00    +0.000 N 
ATOM      7  C   UNL     1      -4.765  11.059  16.705  0.00  0.00    +0.000 C 
ATOM      8  C   UNL     1      -3.640  10.375  15.922  0.00  0.00    +0.000 C 
ATOM      9  N   UNL     1      -2.380  11.067  16.012  0.00  0.00    +0.000 N 
ATOM     10  C   UNL     1      -1.891  11.449  17.244  0.00  0.00    +0.000 C 
ATOM     11  O   UNL     1      -0.678  11.365  17.378  0.00  0.00    +0.000 OA
ATOM     12  H   UNL     1      -1.615  10.729  15.441  0.00  0.00    +0.000 HD
ENDROOT
BRANCH   3  13
ATOM     13  C   UNL     1      -1.675  12.903  20.467  0.00  0.00    +0.000 C 
BRANCH  13  14
ATOM     14  C   UNL     1      -1.120  11.766  21.274  0.00  0.00    +0.000 A 
ATOM     15  C   UNL     1      -0.272  10.871  20.567  0.00  0.00    +0.000 A 
ATOM     16  C   UNL     1       0.322   9.783  21.192  0.00  0.00    +0.000 A 
ATOM     17  C   UNL     1       0.018   9.531  22.518  0.00  0.00    +0.000 A 
ATOM     18  C   UNL     1      -0.846  10.388  23.216  0.00  0.00    +0.000 A 
ATOM     19  C   UNL     1      -1.381  11.577  22.662  0.00  0.00    +0.000 A 
BRANCH  19  20
ATOM     20  C   UNL     1      -2.260  12.487  23.514  0.00  0.00    +0.000 A 
ATOM     21  C   UNL     1      -3.469  11.999  24.069  0.00  0.00    +0.000 A 
ATOM     22  C   UNL     1      -4.314  12.734  24.893  0.00  0.00    +0.000 A 
ATOM     23  C   UNL     1      -3.985  14.035  25.194  0.00  0.00    +0.000 A 
ATOM     24  C   UNL     1      -2.830  14.603  24.657  0.00  0.00    +0.000 A 
ATOM     25  C   UNL     1      -2.584  15.954  24.933  0.00  0.00    +0.000 A 
ATOM     26  C   UNL     1      -1.449  16.587  24.446  0.00  0.00    +0.000 A 
ATOM     27  C   UNL     1      -0.533  15.870  23.694  0.00  0.00    +0.000 A 
ATOM     28  C   UNL     1      -0.784  14.532  23.379  0.00  0.00    +0.000 A 
ATOM     29  C   UNL     1      -1.937  13.847  23.834  0.00  0.00    +0.000 A 
ENDBRANCH  19  20
ENDBRANCH  13  14
ENDBRANCH   3  13
BRANCH   6  30
ATOM     30  C   UNL     1      -6.457  12.061  19.082  0.00  0.00    +0.000 C 
BRANCH  30  31
ATOM     31  C   UNL     1      -7.092  10.849  19.707  0.00  0.00    +0.000 C 
ATOM     32  O   UNL     1      -7.280  10.757  20.929  0.00  0.00    +0.000 OA
BRANCH  31  33
ATOM     33  O   UNL     1      -7.393   9.813  18.885  0.00  0.00    +0.000 OA
ATOM     34  H   UNL     1      -8.263   9.395  19.057  0.00  0.00    +0.000 HD
ENDBRANCH  31  33
ENDBRANCH  30  31
ENDBRANCH   6  30
TORSDOF 6
ENDMDL
MODEL 5
REMARK VINA RESULT:      -7.4      1.838      4.425
REMARK  Name = 
REMARK  7 active torsions:
REMARK  status: ('A' for Active; 'I' for Inactive)
REMARK    1  A    between atoms: C_1  and  C_2
REMARK    2  A    between atoms: C_3  and  C_4
REMARK    3  A    between atoms: C_4  and  C_5
REMARK    4  A    between atoms: C_10  and  C_11
REMARK    5  A    between atoms: N_23  and  C_24
REMARK    6  A    between atoms: C_24  and  C_25
REMARK    7  A    between atoms: C_25  and  O_27
REMARK                            x       y       z     vdW  Elec       q    Type
REMARK                         _______ _______ _______ _____ _____    ______ ____
ROOT
ATOM      1  C   UNL     1      -1.158   9.793  17.469  0.00  0.00    +0.000 C 
ATOM      2  C   UNL     1      -2.118  10.727  18.146  0.00  0.00    +0.000 A 
ATOM      3  C   UNL     1      -1.888  11.578  19.238  0.00  0.00    +0.000 A 
ATOM      4  C   UNL     1      -3.168  12.207  19.538  0.00  0.00    +0.000 A 
ATOM      5  C   UNL     1      -4.072  11.712  18.606  0.00  0.00    +0.000 A 
ATOM      6  N   UNL     1      -3.442  10.831  17.770  0.00  0.00    +0.000 N 
ATOM      7  C   UNL     1      -5.536  12.044  18.582  0.00  0.00    +0.000 C 
ATOM      8  C   UNL     1      -5.808  13.302  19.413  0.00  0.00    +0.000 C 
ATOM      9  N   UNL     1      -5.010  13.378  20.610  0.00  0.00    +0.000 N 
ATOM     10  C   UNL     1      -3.647  13.181  20.542  0.00  0.00    +0.000 C 
ATOM     11  O   UNL     1      -2.975  13.880  21.289  0.00  0.00    +0.000 OA
ATOM     12  H   UNL     1      -5.205  14.130  21.260  0.00  0.00    +0.000 HD
ENDROOT
BRANCH   3  13
ATOM     13  C   UNL     1      -0.495  11.721  19.845  0.00  0.00    +0.000 C 
BRANCH  13  14
ATOM     14  C   UNL     1      -0.322  10.851  21.055  0.00  0.00    +0.000 A 
ATOM     15  C   UNL     1      -1.039  11.263  22.211  0.00  0.00    +0.000 A 
ATOM     16  C   UNL     1      -0.983  10.544  23.397  0.00  0.00    +0.000 A 
ATOM     17  C   UNL     1      -0.150   9.442  23.468  0.00  0.00    +0.000 A 
ATOM     18  C   UNL     1       0.589   9.047  22.344  0.00  0.00    +0.000 A 
ATOM     19  C   UNL     1       0.476   9.672  21.077  0.00  0.00    +0.000 A 
BRANCH  19  20
ATOM     20  C   UNL     1       1.269   9.136  19.889  0.00  0.00    +0.000 A 
ATOM     21  C   UNL     1       1.640   9.998  18.828  0.00  0.00    +0.000 A 
ATOM     22  C   UNL     1       2.398   9.617  17.727  0.00  0.00    +0.000 A 
ATOM     23  C   UNL     1       2.817   8.310  17.627  0.00  0.00    +0.000 A 
ATOM     24  C   UNL     1       2.463   7.388  18.611  0.00  0.00    +0.000 A 
ATOM     25  C   UNL     1       2.851   6.056  18.421  0.00  0.00    +0.000 A 
ATOM     26  C   UNL     1       2.547   5.082  19.362  0.00  0.00    +0.000 A 
ATOM     27  C   UNL     1       1.871   5.434  20.518  0.00  0.00    +0.000 A 
ATOM     28  C   UNL     1       1.444   6.751  20.704  0.00  0.00    +0.000 A 
ATOM     29  C   UNL     1       1.711   7.777  19.764  0.00  0.00    +0.000 A 
ENDBRANCH  19  20
ENDBRANCH  13  14
ENDBRANCH   3  13
BRANCH   6  30
ATOM     30  C   UNL     1      -4.095  10.045  16.726  0.00  0.00    +0.000 C 
BRANCH  30  31
ATOM     31  C   UNL     1      -3.871  10.531  15.320  0.00  0.00    +0.000 C 
ATOM     32  O   UNL     1      -4.227   9.875  14.330  0.00  0.00    +0.000 OA
BRANCH  31  33
ATOM     33  O   UNL     1      -3.192  11.695  15.166  0.00  0.00    +0.000 OA
ATOM     34  H   UNL     1      -2.741  12.014  15.977  0.00  0.00    +0.000 HD
ENDBRANCH  31  33
ENDBRANCH  30  31
ENDBRANCH   6  30
TORSDOF 6
ENDMDL
MODEL 6
REMARK VINA RESULT:      -7.4      3.043      7.968
REMARK  Name = 
REMARK  7 active torsions:
REMARK  status: ('A' for Active; 'I' for Inactive)
REMARK    1  A    between atoms: C_1  and  C_2
REMARK    2  A    between atoms: C_3  and  C_4
REMARK    3  A    between atoms: C_4  and  C_5
REMARK    4  A    between atoms: C_10  and  C_11
REMARK    5  A    between atoms: N_23  and  C_24
REMARK    6  A    between atoms: C_24  and  C_25
REMARK    7  A    between atoms: C_25  and  O_27
REMARK                            x       y       z     vdW  Elec       q    Type
REMARK                         _______ _______ _______ _____ _____    ______ ____
ROOT
ATOM      1  C   UNL     1      -2.184  12.796  21.690  0.00  0.00    +0.000 C 
ATOM      2  C   UNL     1      -2.796  12.425  20.371  0.00  0.00    +0.000 A 
ATOM      3  C   UNL     1      -4.044  12.798  19.849  0.00  0.00    +0.000 A 
ATOM      4  C   UNL     1      -4.171  12.108  18.572  0.00  0.00    +0.000 A 
ATOM      5  C   UNL     1      -2.996  11.386  18.400  0.00  0.00    +0.000 A 
ATOM      6  N   UNL     1      -2.171  11.581  19.475  0.00  0.00    +0.000 N 
ATOM      7  C   UNL     1      -2.721  10.472  17.242  0.00  0.00    +0.000 C 
ATOM      8  C   UNL     1      -3.684  10.772  16.089  0.00  0.00    +0.000 C 
ATOM      9  N   UNL     1      -5.017  11.095  16.529  0.00  0.00    +0.000 N 
ATOM     10  C   UNL     1      -5.206  12.037  17.518  0.00  0.00    +0.000 C 
ATOM     11  O   UNL     1      -6.190  12.752  17.383  0.00  0.00    +0.000 OA
ATOM     12  H   UNL     1      -5.733  11.208  15.821  0.00  0.00    +0.000 HD
ENDROOT
BRANCH   3  13
ATOM     13  C   UNL     1      -4.948  13.775  20.594  0.00  0.00    +0.000 C 
BRANCH  13  14
ATOM     14  C   UNL     1      -5.941  13.064  21.465  0.00  0.00    +0.000 A 
ATOM     15  C   UNL     1      -6.785  12.136  20.797  0.00  0.00    +0.000 A 
ATOM     16  C   UNL     1      -7.740  11.396  21.481  0.00  0.00    +0.000 A 
ATOM     17  C   UNL     1      -7.916  11.627  22.833  0.00  0.00    +0.000 A 
ATOM     18  C   UNL     1      -7.113  12.566  23.496  0.00  0.00    +0.000 A 
ATOM     19  C   UNL     1      -6.045  13.258  22.872  0.00  0.00    +0.000 A 
BRANCH  19  20
ATOM     20  C   UNL     1      -5.178  14.215  23.685  0.00  0.00    +0.000 A 
ATOM     21  C   UNL     1      -3.993  13.753  24.308  0.00  0.00    +0.000 A 
ATOM     22  C   UNL     1      -3.116  14.553  25.029  0.00  0.00    +0.000 A 
ATOM     23  C   UNL     1      -3.403  15.891  25.178  0.00  0.00    +0.000 A 
ATOM     24  C   UNL     1      -4.570  16.418  24.627  0.00  0.00    +0.000 A 
ATOM     25  C   UNL     1      -4.851  17.767  24.874  0.00  0.00    +0.000 A 
ATOM     26  C   UNL     1      -5.986  18.368  24.348  0.00  0.00    +0.000 A 
ATOM     27  C   UNL     1      -6.844  17.631  23.548  0.00  0.00    +0.000 A 
ATOM     28  C   UNL     1      -6.596  16.275  23.324  0.00  0.00    +0.000 A 
ATOM     29  C   UNL     1      -5.463  15.610  23.855  0.00  0.00    +0.000 A 
ENDBRANCH  19  20
ENDBRANCH  13  14
ENDBRANCH   3  13
BRANCH   6  30
ATOM     30  C   UNL     1      -0.891  10.911  19.686  0.00  0.00    +0.000 C 
BRANCH  30  31
ATOM     31  C   UNL     1       0.328  11.739  19.383  0.00  0.00    +0.000 C 
ATOM     32  O   UNL     1       1.183  11.996  20.242  0.00  0.00    +0.000 OA
BRANCH  31  33
ATOM     33  O   UNL     1       0.426  12.265  18.137  0.00  0.00    +0.000 OA
ATOM     34  H   UNL     1      -0.276  11.975  17.515  0.00  0.00    +0.000 HD
ENDBRANCH  31  33
ENDBRANCH  30  31
ENDBRANCH   6  30
TORSDOF 6
ENDMDL
MODEL 7
REMARK VINA RESULT:      -7.3      1.304      1.566
REMARK  Name = 
REMARK  7 active torsions:
REMARK  status: ('A' for Active; 'I' for Inactive)
REMARK    1  A    between atoms: C_1  and  C_2
REMARK    2  A    between atoms: C_3  and  C_4
REMARK    3  A    between atoms: C_4  and  C_5
REMARK    4  A    between atoms: C_10  and  C_11
REMARK    5  A    between atoms: N_23  and  C_24
REMARK    6  A    between atoms: C_24  and  C_25
REMARK    7  A    between atoms: C_25  and  O_27
REMARK                            x       y       z     vdW  Elec       q    Type
REMARK                         _______ _______ _______ _____ _____    ______ ____
ROOT
ATOM      1  C   UNL     1      -3.009  12.550  22.689  0.00  0.00    +0.000 C 
ATOM      2  C   UNL     1      -3.999  12.639  21.564  0.00  0.00    +0.000 A 
ATOM      3  C   UNL     1      -3.800  12.375  20.201  0.00  0.00    +0.000 A 
ATOM      4  C   UNL     1      -5.061  12.685  19.540  0.00  0.00    +0.000 A 
ATOM      5  C   UNL     1      -5.934  13.095  20.541  0.00  0.00    +0.000 A 
ATOM      6  N   UNL     1      -5.299  13.062  21.753  0.00  0.00    +0.000 N 
ATOM      7  C   UNL     1      -7.337  13.574  20.303  0.00  0.00    +0.000 C 
ATOM      8  C   UNL     1      -7.814  13.146  18.911  0.00  0.00    +0.000 C 
ATOM      9  N   UNL     1      -6.783  13.218  17.907  0.00  0.00    +0.000 N 
ATOM     10  C   UNL     1      -5.550  12.648  18.145  0.00  0.00    +0.000 C 
ATOM     11  O   UNL     1      -5.017  12.123  17.177  0.00  0.00    +0.000 OA
ATOM     12  H   UNL     1      -7.049  13.046  16.946  0.00  0.00    +0.000 HD
ENDROOT
BRANCH   3  13
ATOM     13  C   UNL     1      -2.466  11.838  19.689  0.00  0.00    +0.000 C 
BRANCH  13  14
ATOM     14  C   UNL     1      -1.345  12.804  19.934  0.00  0.00    +0.000 A 
ATOM     15  C   UNL     1      -1.626  14.160  19.617  0.00  0.00    +0.000 A 
ATOM     16  C   UNL     1      -0.685  15.163  19.806  0.00  0.00    +0.000 A 
ATOM     17  C   UNL     1       0.578  14.814  20.249  0.00  0.00    +0.000 A 
ATOM     18  C   UNL     1       0.878  13.474  20.532  0.00  0.00    +0.000 A 
ATOM     19  C   UNL     1      -0.079  12.430  20.471  0.00  0.00    +0.000 A 
BRANCH  19  20
ATOM     20  C   UNL     1       0.316  11.009  20.860  0.00  0.00    +0.000 A 
ATOM     21  C   UNL     1       0.060  10.527  22.167  0.00  0.00    +0.000 A 
ATOM     22  C   UNL     1       0.340   9.238  22.603  0.00  0.00    +0.000 A 
ATOM     23  C   UNL     1       0.924   8.350  21.728  0.00  0.00    +0.000 A 
ATOM     24  C   UNL     1       1.243   8.758  20.433  0.00  0.00    +0.000 A 
ATOM     25  C   UNL     1       1.905   7.838  19.610  0.00  0.00    +0.000 A 
ATOM     26  C   UNL     1       2.244   8.164  18.304  0.00  0.00    +0.000 A 
ATOM     27  C   UNL     1       1.904   9.408  17.798  0.00  0.00    +0.000 A 
ATOM     28  C   UNL     1       1.277  10.348  18.619  0.00  0.00    +0.000 A 
ATOM     29  C   UNL     1       0.929  10.072  19.964  0.00  0.00    +0.000 A 
ENDBRANCH  19  20
ENDBRANCH  13  14
ENDBRANCH   3  13
BRANCH   6  30
ATOM     30  C   UNL     1      -5.875  13.510  23.018  0.00  0.00    +0.000 C 
BRANCH  30  31
ATOM     31  C   UNL     1      -6.306  12.415  23.955  0.00  0.00    +0.000 C 
ATOM     32  O   UNL     1      -5.586  12.016  24.881  0.00  0.00    +0.000 OA
BRANCH  31  33
ATOM     33  O   UNL     1      -7.498  11.819  23.704  0.00  0.00    +0.000 OA
ATOM     34  H   UNL     1      -7.449  11.039  23.110  0.00  0.00    +0.000 HD
ENDBRANCH  31  33
ENDBRANCH  30  31
ENDBRANCH   6  30
TORSDOF 6
ENDMDL
MODEL 8
REMARK VINA RESULT:      -7.3      3.680      6.408
REMARK  Name = 
REMARK  7 active torsions:
REMARK  status: ('A' for Active; 'I' for Inactive)
REMARK    1  A    between atoms: C_1  and  C_2
REMARK    2  A    between atoms: C_3  and  C_4
REMARK    3  A    between atoms: C_4  and  C_5
REMARK    4  A    between atoms: C_10  and  C_11
REMARK    5  A    between atoms: N_23  and  C_24
REMARK    6  A    between atoms: C_24  and  C_25
REMARK    7  A    between atoms: C_25  and  O_27
REMARK                            x       y       z     vdW  Elec       q    Type
REMARK                         _______ _______ _______ _____ _____    ______ ____
ROOT
ATOM      1  C   UNL     1       1.572  13.925  21.251  0.00  0.00    +0.000 C 
ATOM      2  C   UNL     1       0.567  14.917  20.744  0.00  0.00    +0.000 A 
ATOM      3  C   UNL     1      -0.651  15.303  21.324  0.00  0.00    +0.000 A 
ATOM      4  C   UNL     1      -1.267  16.236  20.389  0.00  0.00    +0.000 A 
ATOM      5  C   UNL     1      -0.381  16.364  19.326  0.00  0.00    +0.000 A 
ATOM      6  N   UNL     1       0.719  15.578  19.542  0.00  0.00    +0.000 N 
ATOM      7  C   UNL     1      -0.641  17.183  18.096  0.00  0.00    +0.000 C 
ATOM      8  C   UNL     1      -1.774  18.181  18.353  0.00  0.00    +0.000 C 
ATOM      9  N   UNL     1      -2.831  17.645  19.172  0.00  0.00    +0.000 N 
ATOM     10  C   UNL     1      -2.529  17.006  20.356  0.00  0.00    +0.000 C 
ATOM     11  O   UNL     1      -3.318  17.194  21.272  0.00  0.00    +0.000 OA
ATOM     12  H   UNL     1      -3.660  18.211  19.302  0.00  0.00    +0.000 HD
ENDROOT
BRANCH   3  13
ATOM     13  C   UNL     1      -1.073  14.776  22.692  0.00  0.00    +0.000 C 
BRANCH  13  14
ATOM     14  C   UNL     1      -2.469  14.228  22.672  0.00  0.00    +0.000 A 
ATOM     15  C   UNL     1      -3.413  14.927  23.473  0.00  0.00    +0.000 A 
ATOM     16  C   UNL     1      -4.744  14.539  23.538  0.00  0.00    +0.000 A 
ATOM     17  C   UNL     1      -5.137  13.399  22.859  0.00  0.00    +0.000 A 
ATOM     18  C   UNL     1      -4.207  12.681  22.094  0.00  0.00    +0.000 A 
ATOM     19  C   UNL     1      -2.868  13.101  21.897  0.00  0.00    +0.000 A 
BRANCH  19  20
ATOM     20  C   UNL     1      -1.941  12.294  20.994  0.00  0.00    +0.000 A 
ATOM     21  C   UNL     1      -1.879  12.565  19.605  0.00  0.00    +0.000 A 
ATOM     22  C   UNL     1      -1.036  11.918  18.710  0.00  0.00    +0.000 A 
ATOM     23  C   UNL     1      -0.203  10.927  19.176  0.00  0.00    +0.000 A 
ATOM     24  C   UNL     1      -0.229  10.574  20.525  0.00  0.00    +0.000 A 
ATOM     25  C   UNL     1       0.584   9.508  20.930  0.00  0.00    +0.000 A 
ATOM     26  C   UNL     1       0.623   9.105  22.258  0.00  0.00    +0.000 A 
ATOM     27  C   UNL     1      -0.133   9.780  23.202  0.00  0.00    +0.000 A 
ATOM     28  C   UNL     1      -0.976  10.820  22.805  0.00  0.00    +0.000 A 
ATOM     29  C   UNL     1      -1.069  11.255  21.461  0.00  0.00    +0.000 A 
ENDBRANCH  19  20
ENDBRANCH  13  14
ENDBRANCH   3  13
BRANCH   6  30
ATOM     30  C   UNL     1       1.817  15.387  18.597  0.00  0.00    +0.000 C 
BRANCH  30  31
ATOM     31  C   UNL     1       2.907  16.421  18.659  0.00  0.00    +0.000 C 
ATOM     32  O   UNL     1       3.102  17.231  17.741  0.00  0.00    +0.000 OA
BRANCH  31  33
ATOM     33  O   UNL     1       3.729  16.392  19.737  0.00  0.00    +0.000 OA
ATOM     34  H   UNL     1       3.358  16.808  20.545  0.00  0.00    +0.000 HD
ENDBRANCH  31  33
ENDBRANCH  30  31
ENDBRANCH   6  30
TORSDOF 6
ENDMDL
MODEL 9
REMARK VINA RESULT:      -7.3      1.609      3.508
REMARK  Name = 
REMARK  7 active torsions:
REMARK  status: ('A' for Active; 'I' for Inactive)
REMARK    1  A    between atoms: C_1  and  C_2
REMARK    2  A    between atoms: C_3  and  C_4
REMARK    3  A    between atoms: C_4  and  C_5
REMARK    4  A    between atoms: C_10  and  C_11
REMARK    5  A    between atoms: N_23  and  C_24
REMARK    6  A    between atoms: C_24  and  C_25
REMARK    7  A    between atoms: C_25  and  O_27
REMARK                            x       y       z     vdW  Elec       q    Type
REMARK                         _______ _______ _______ _____ _____    ______ ____
ROOT
ATOM      1  C   UNL     1      -1.967  10.104  18.308  0.00  0.00    +0.000 C 
ATOM      2  C   UNL     1      -3.084  11.096  18.442  0.00  0.00    +0.000 A 
ATOM      3  C   UNL     1      -3.318  12.018  19.474  0.00  0.00    +0.000 A 
ATOM      4  C   UNL     1      -4.572  12.684  19.146  0.00  0.00    +0.000 A 
ATOM      5  C   UNL     1      -4.999  12.138  17.941  0.00  0.00    +0.000 A 
ATOM      6  N   UNL     1      -4.105  11.192  17.518  0.00  0.00    +0.000 N 
ATOM      7  C   UNL     1      -6.290  12.488  17.259  0.00  0.00    +0.000 C 
ATOM      8  C   UNL     1      -6.843  13.804  17.814  0.00  0.00    +0.000 C 
ATOM      9  N   UNL     1      -6.645  13.953  19.233  0.00  0.00    +0.000 N 
ATOM     10  C   UNL     1      -5.399  13.732  19.781  0.00  0.00    +0.000 C 
ATOM     11  O   UNL     1      -5.091  14.472  20.706  0.00  0.00    +0.000 OA
ATOM     12  H   UNL     1      -7.071  14.751  19.688  0.00  0.00    +0.000 HD
ENDROOT
BRANCH   3  13
ATOM     13  C   UNL     1      -2.325  12.183  20.620  0.00  0.00    +0.000 C 
BRANCH  13  14
ATOM     14  C   UNL     1      -1.092  12.921  20.189  0.00  0.00    +0.000 A 
ATOM     15  C   UNL     1      -1.301  14.255  19.747  0.00  0.00    +0.000 A 
ATOM     16  C   UNL     1      -0.248  15.059  19.332  0.00  0.00    +0.000 A 
ATOM     17  C   UNL     1       1.023  14.517  19.285  0.00  0.00    +0.000 A 
ATOM     18  C   UNL     1       1.237  13.190  19.686  0.00  0.00    +0.000 A 
ATOM     19  C   UNL     1       0.220  12.367  20.230  0.00  0.00    +0.000 A 
BRANCH  19  20
ATOM     20  C   UNL     1       0.553  10.955  20.703  0.00  0.00    +0.000 A 
ATOM     21  C   UNL     1       0.279  10.564  22.037  0.00  0.00    +0.000 A 
ATOM     22  C   UNL     1       0.504   9.292  22.550  0.00  0.00    +0.000 A 
ATOM     23  C   UNL     1       1.045   8.329  21.729  0.00  0.00    +0.000 A 
ATOM     24  C   UNL     1       1.377   8.643  20.412  0.00  0.00    +0.000 A 
ATOM     25  C   UNL     1       1.995   7.647  19.645  0.00  0.00    +0.000 A 
ATOM     26  C   UNL     1       2.344   7.879  18.322  0.00  0.00    +0.000 A 
ATOM     27  C   UNL     1       2.057   9.104  17.742  0.00  0.00    +0.000 A 
ATOM     28  C   UNL     1       1.476  10.118  18.506  0.00  0.00    +0.000 A 
ATOM     29  C   UNL     1       1.121   9.939  19.865  0.00  0.00    +0.000 A 
ENDBRANCH  19  20
ENDBRANCH  13  14
ENDBRANCH   3  13
BRANCH   6  30
ATOM     30  C   UNL     1      -4.271  10.345  16.339  0.00  0.00    +0.000 C 
BRANCH  30  31
ATOM     31  C   UNL     1      -3.435  10.728  15.148  0.00  0.00    +0.000 C 
ATOM     32  O   UNL     1      -3.547  10.161  14.052  0.00  0.00    +0.000 OA
BRANCH  31  33
ATOM     33  O   UNL     1      -2.490  11.683  15.336  0.00  0.00    +0.000 OA
ATOM     34  H   UNL     1      -2.723  12.565  14.975  0.00  0.00    +0.000 HD
ENDBRANCH  31  33
ENDBRANCH  30  31
ENDBRANCH   6  30
TORSDOF 6
ENDMDL
