MODEL 1
REMARK VINA RESULT:      -7.7      0.000      0.000
REMARK  Name = 
REMARK  11 active torsions:
REMARK  status: ('A' for Active; 'I' for Inactive)
REMARK    1  A    between atoms: C_1  and  S_2
REMARK    2  A    between atoms: S_2  and  C_3
REMARK    3  A    between atoms: C_6  and  C_7
REMARK    4  A    between atoms: C_7  and  C_9
REMARK    5  A    between atoms: C_10  and  C_11
REMARK    6  A    between atoms: C_13  and  C_14
REMARK    7  A    between atoms: C_15  and  O_16
REMARK    8  A    between atoms: O_16  and  C_17
REMARK    9  A    between atoms: C_17  and  C_18
REMARK   10  A    between atoms: C_18  and  O_20
REMARK   11  A    between atoms: C_21  and  C_22
REMARK                            x       y       z     vdW  Elec       q    Type
REMARK                         _______ _______ _______ _____ _____    ______ ____
ROOT
ATOM      1  C   UNL     1       2.618   7.812  18.163  0.00  0.00    +0.000 A 
ATOM      2  C   UNL     1       3.617   7.371  17.300  0.00  0.00    +0.000 A 
ATOM      3  C   UNL     1       4.161   6.080  17.408  0.00  0.00    +0.000 A 
ATOM      4  C   UNL     1       5.141   5.642  16.351  0.00  0.00    +0.000 C 
ATOM      5  C   UNL     1       3.758   5.214  18.450  0.00  0.00    +0.000 A 
ATOM      6  C   UNL     1       2.740   5.638  19.329  0.00  0.00    +0.000 A 
ATOM      7  C   UNL     1       2.067   4.833  20.408  0.00  0.00    +0.000 C 
ATOM      8  C   UNL     1       2.203   6.947  19.175  0.00  0.00    +0.000 A 
ENDROOT
BRANCH   1  10
ATOM      9  C   UNL     1       1.082   9.602  18.877  0.00  0.00    +0.000 C 
ATOM     10  C   UNL     1       2.014   9.148  18.027  0.00  0.00    +0.000 C 
BRANCH   9  11
ATOM     11  C   UNL     1       0.431  10.932  18.691  0.00  0.00    +0.000 C 
ATOM     12  O   UNL     1       1.083  11.968  18.673  0.00  0.00    +0.000 OA
BRANCH  11  16
ATOM     13  C   UNL     1      -3.850  11.065  18.192  0.00  0.00    +0.000 A 
ATOM     14  C   UNL     1      -3.189  11.953  19.043  0.00  0.00    +0.000 A 
ATOM     15  C   UNL     1      -1.796  11.903  19.179  0.00  0.00    +0.000 A 
ATOM     16  C   UNL     1      -1.043  10.960  18.467  0.00  0.00    +0.000 A 
ATOM     17  C   UNL     1      -1.707  10.066  17.615  0.00  0.00    +0.000 A 
ATOM     18  C   UNL     1      -3.102  10.121  17.481  0.00  0.00    +0.000 A 
BRANCH  13  20
ATOM     19  C   UNL     1      -5.870  12.581  17.078  0.00  0.00    +0.000 C 
ATOM     20  S   UNL     1      -5.630  11.107  18.104  0.00  0.00    +0.000 S 
ENDBRANCH  13  20
ENDBRANCH  11  16
ENDBRANCH   9  11
ENDBRANCH   1  10
BRANCH   5  21
ATOM     21  O   UNL     1       4.406   4.001  18.421  0.00  0.00    +0.000 OA
BRANCH  21  22
ATOM     22  C   UNL     1       3.851   2.948  17.641  0.00  0.00    +0.000 C 
BRANCH  22  23
ATOM     23  C   UNL     1       3.421   1.758  18.490  0.00  0.00    +0.000 C 
ATOM     24  O   UNL     1       2.338   1.687  19.055  0.00  0.00    +0.000 OA
BRANCH  23  25
ATOM     25  O   UNL     1       4.341   0.769  18.560  0.00  0.00    +0.000 OA
ATOM     26  H   UNL     1       4.147   0.078  17.895  0.00  0.00    +0.000 HD
ENDBRANCH  23  25
ENDBRANCH  22  23
ENDBRANCH  21  22
ENDBRANCH   5  21
TORSDOF 8
ENDMDL
MODEL 2
REMARK VINA RESULT:      -7.6      0.437      2.042
REMARK  Name = 
REMARK  11 active torsions:
REMARK  status: ('A' for Active; 'I' for Inactive)
REMARK    1  A    between atoms: C_1  and  S_2
REMARK    2  A    between atoms: S_2  and  C_3
REMARK    3  A    between atoms: C_6  and  C_7
REMARK    4  A    between atoms: C_7  and  C_9
REMARK    5  A    between atoms: C_10  and  C_11
REMARK    6  A    between atoms: C_13  and  C_14
REMARK    7  A    between atoms: C_15  and  O_16
REMARK    8  A    between atoms: O_16  and  C_17
REMARK    9  A    between atoms: C_17  and  C_18
REMARK   10  A    between atoms: C_18  and  O_20
REMARK   11  A    between atoms: C_21  and  C_22
REMARK                            x       y       z     vdW  Elec       q    Type
REMARK                         _______ _______ _______ _____ _____    ______ ____
ROOT
ATOM      1  C   UNL     1       2.622   7.898  18.266  0.00  0.00    +0.000 A 
ATOM      2  C   UNL     1       2.207   7.030  19.273  0.00  0.00    +0.000 A 
ATOM      3  C   UNL     1       2.792   5.763  19.434  0.00  0.00    +0.000 A 
ATOM      4  C   UNL     1       2.375   4.946  20.628  0.00  0.00    +0.000 C 
ATOM      5  C   UNL     1       3.773   5.302  18.526  0.00  0.00    +0.000 A 
ATOM      6  C   UNL     1       4.213   6.170  17.505  0.00  0.00    +0.000 A 
ATOM      7  C   UNL     1       5.335   5.940  16.528  0.00  0.00    +0.000 C 
ATOM      8  C   UNL     1       3.608   7.452  17.387  0.00  0.00    +0.000 A 
ENDROOT
BRANCH   1  10
ATOM      9  C   UNL     1       1.095   9.708  18.948  0.00  0.00    +0.000 C 
ATOM     10  C   UNL     1       2.042   9.244  18.120  0.00  0.00    +0.000 C 
BRANCH   9  11
ATOM     11  C   UNL     1       0.469  11.049  18.751  0.00  0.00    +0.000 C 
ATOM     12  O   UNL     1       1.145  12.065  18.661  0.00  0.00    +0.000 OA
BRANCH  11  16
ATOM     13  C   UNL     1      -3.804  11.178  18.189  0.00  0.00    +0.000 A 
ATOM     14  C   UNL     1      -3.005  10.278  17.480  0.00  0.00    +0.000 A 
ATOM     15  C   UNL     1      -1.620  10.242  17.690  0.00  0.00    +0.000 A 
ATOM     16  C   UNL     1      -1.014  11.109  18.608  0.00  0.00    +0.000 A 
ATOM     17  C   UNL     1      -1.817  12.014  19.316  0.00  0.00    +0.000 A 
ATOM     18  C   UNL     1      -3.204  12.046  19.105  0.00  0.00    +0.000 A 
BRANCH  13  20
ATOM     19  C   UNL     1      -6.054  12.580  18.961  0.00  0.00    +0.000 C 
ATOM     20  S   UNL     1      -5.552  11.248  17.840  0.00  0.00    +0.000 S 
ENDBRANCH  13  20
ENDBRANCH  11  16
ENDBRANCH   9  11
ENDBRANCH   1  10
BRANCH   5  21
ATOM     21  O   UNL     1       4.220   4.035  18.817  0.00  0.00    +0.000 OA
BRANCH  21  22
ATOM     22  C   UNL     1       3.990   2.995  17.873  0.00  0.00    +0.000 C 
BRANCH  22  23
ATOM     23  C   UNL     1       3.334   1.772  18.504  0.00  0.00    +0.000 C 
ATOM     24  O   UNL     1       2.250   1.803  19.071  0.00  0.00    +0.000 OA
BRANCH  23  25
ATOM     25  O   UNL     1       4.051   0.632  18.373  0.00  0.00    +0.000 OA
ATOM     26  H   UNL     1       4.111   0.169  19.232  0.00  0.00    +0.000 HD
ENDBRANCH  23  25
ENDBRANCH  22  23
ENDBRANCH  21  22
ENDBRANCH   5  21
TORSDOF 8
ENDMDL
MODEL 3
REMARK VINA RESULT:      -7.5      6.604     10.235
REMARK  Name = 
REMARK  11 active torsions:
REMARK  status: ('A' for Active; 'I' for Inactive)
REMARK    1  A    between atoms: C_1  and  S_2
REMARK    2  A    between atoms: S_2  and  C_3
REMARK    3  A    between atoms: C_6  and  C_7
REMARK    4  A    between atoms: C_7  and  C_9
REMARK    5  A    between atoms: C_10  and  C_11
REMARK    6  A    between atoms: C_13  and  C_14
REMARK    7  A    between atoms: C_15  and  O_16
REMARK    8  A    between atoms: O_16  and  C_17
REMARK    9  A    between atoms: C_17  and  C_18
REMARK   10  A    between atoms: C_18  and  O_20
REMARK   11  A    between atoms: C_21  and  C_22
REMARK                            x       y       z     vdW  Elec       q    Type
REMARK                         _______ _______ _______ _____ _____    ______ ____
ROOT
ATOM      1  C   UNL     1       8.781   9.856  18.398  0.00  0.00    +0.000 A 
ATOM      2  C   UNL     1       9.837  10.240  19.222  0.00  0.00    +0.000 A 
ATOM      3  C   UNL     1      10.169  11.593  19.405  0.00  0.00    +0.000 A 
ATOM      4  C   UNL     1      11.237  11.922  20.414  0.00  0.00    +0.000 C 
ATOM      5  C   UNL     1       9.483  12.604  18.694  0.00  0.00    +0.000 A 
ATOM      6  C   UNL     1       8.405  12.237  17.862  0.00  0.00    +0.000 A 
ATOM      7  C   UNL     1       7.458  13.152  17.133  0.00  0.00    +0.000 C 
ATOM      8  C   UNL     1       8.090  10.858  17.718  0.00  0.00    +0.000 A 
ENDROOT
BRANCH   1  10
ATOM      9  C   UNL     1       7.440   8.052  17.389  0.00  0.00    +0.000 C 
ATOM     10  C   UNL     1       8.402   8.442  18.237  0.00  0.00    +0.000 C 
BRANCH   9  11
ATOM     11  C   UNL     1       7.020   6.624  17.282  0.00  0.00    +0.000 C 
ATOM     12  O   UNL     1       7.735   5.784  16.751  0.00  0.00    +0.000 OA
BRANCH  11  16
ATOM     13  C   UNL     1       3.320   5.356  19.097  0.00  0.00    +0.000 A 
ATOM     14  C   UNL     1       4.552   4.879  19.549  0.00  0.00    +0.000 A 
ATOM     15  C   UNL     1       5.744   5.316  18.955  0.00  0.00    +0.000 A 
ATOM     16  C   UNL     1       5.719   6.234  17.897  0.00  0.00    +0.000 A 
ATOM     17  C   UNL     1       4.481   6.710  17.442  0.00  0.00    +0.000 A 
ATOM     18  C   UNL     1       3.291   6.271  18.040  0.00  0.00    +0.000 A 
BRANCH  13  20
ATOM     19  C   UNL     1       1.304   3.554  18.537  0.00  0.00    +0.000 C 
ATOM     20  S   UNL     1       1.821   4.719  19.825  0.00  0.00    +0.000 S 
ENDBRANCH  13  20
ENDBRANCH  11  16
ENDBRANCH   9  11
ENDBRANCH   1  10
BRANCH   5  21
ATOM     21  O   UNL     1       9.950  13.868  18.974  0.00  0.00    +0.000 OA
BRANCH  21  22
ATOM     22  C   UNL     1      10.718  14.546  17.987  0.00  0.00    +0.000 C 
BRANCH  22  23
ATOM     23  C   UNL     1      10.015  15.790  17.455  0.00  0.00    +0.000 C 
ATOM     24  O   UNL     1       9.080  16.334  18.027  0.00  0.00    +0.000 OA
BRANCH  23  25
ATOM     25  O   UNL     1      10.522  16.255  16.290  0.00  0.00    +0.000 OA
ATOM     26  H   UNL     1      10.939  15.528  15.788  0.00  0.00    +0.000 HD
ENDBRANCH  23  25
ENDBRANCH  22  23
ENDBRANCH  21  22
ENDBRANCH   5  21
TORSDOF 8
ENDMDL
MODEL 4
REMARK VINA RESULT:      -7.4      0.990      1.395
REMARK  Name = 
REMARK  11 active torsions:
REMARK  status: ('A' for Active; 'I' for Inactive)
REMARK    1  A    between atoms: C_1  and  S_2
REMARK    2  A    between atoms: S_2  and  C_3
REMARK    3  A    between atoms: C_6  and  C_7
REMARK    4  A    between atoms: C_7  and  C_9
REMARK    5  A    between atoms: C_10  and  C_11
REMARK    6  A    between atoms: C_13  and  C_14
REMARK    7  A    between atoms: C_15  and  O_16
REMARK    8  A    between atoms: O_16  and  C_17
REMARK    9  A    between atoms: C_17  and  C_18
REMARK   10  A    between atoms: C_18  and  O_20
REMARK   11  A    between atoms: C_21  and  C_22
REMARK                            x       y       z     vdW  Elec       q    Type
REMARK                         _______ _______ _______ _____ _____    ______ ____
ROOT
ATOM      1  C   UNL     1       2.391   8.086  18.325  0.00  0.00    +0.000 A 
ATOM      2  C   UNL     1       3.426   7.747  17.457  0.00  0.00    +0.000 A 
ATOM      3  C   UNL     1       3.958   6.447  17.422  0.00  0.00    +0.000 A 
ATOM      4  C   UNL     1       4.982   6.137  16.363  0.00  0.00    +0.000 C 
ATOM      5  C   UNL     1       3.503   5.459  18.326  0.00  0.00    +0.000 A 
ATOM      6  C   UNL     1       2.448   5.779  19.206  0.00  0.00    +0.000 A 
ATOM      7  C   UNL     1       1.722   4.850  20.141  0.00  0.00    +0.000 C 
ATOM      8  C   UNL     1       1.926   7.103  19.198  0.00  0.00    +0.000 A 
ENDROOT
BRANCH   1  10
ATOM      9  C   UNL     1       0.785   9.766  19.144  0.00  0.00    +0.000 C 
ATOM     10  C   UNL     1       1.802   9.435  18.335  0.00  0.00    +0.000 C 
BRANCH   9  11
ATOM     11  C   UNL     1       0.155  11.118  19.099  0.00  0.00    +0.000 C 
ATOM     12  O   UNL     1       0.818  12.139  19.222  0.00  0.00    +0.000 OA
BRANCH  11  16
ATOM     13  C   UNL     1      -4.061  11.283  18.205  0.00  0.00    +0.000 A 
ATOM     14  C   UNL     1      -3.220  10.359  17.580  0.00  0.00    +0.000 A 
ATOM     15  C   UNL     1      -1.856  10.311  17.896  0.00  0.00    +0.000 A 
ATOM     16  C   UNL     1      -1.312  11.192  18.840  0.00  0.00    +0.000 A 
ATOM     17  C   UNL     1      -2.156  12.122  19.465  0.00  0.00    +0.000 A 
ATOM     18  C   UNL     1      -3.521  12.164  19.146  0.00  0.00    +0.000 A 
BRANCH  13  20
ATOM     19  C   UNL     1      -6.522  10.311  18.990  0.00  0.00    +0.000 C 
ATOM     20  S   UNL     1      -5.775  11.365  17.720  0.00  0.00    +0.000 S 
ENDBRANCH  13  20
ENDBRANCH  11  16
ENDBRANCH   9  11
ENDBRANCH   1  10
BRANCH   5  21
ATOM     21  O   UNL     1       4.144   4.253  18.170  0.00  0.00    +0.000 OA
BRANCH  21  22
ATOM     22  C   UNL     1       4.839   3.699  19.282  0.00  0.00    +0.000 C 
BRANCH  22  23
ATOM     23  C   UNL     1       4.381   2.282  19.607  0.00  0.00    +0.000 C 
ATOM     24  O   UNL     1       3.310   1.817  19.241  0.00  0.00    +0.000 OA
BRANCH  23  25
ATOM     25  O   UNL     1       5.272   1.567  20.333  0.00  0.00    +0.000 OA
ATOM     26  H   UNL     1       4.904   1.365  21.216  0.00  0.00    +0.000 HD
ENDBRANCH  23  25
ENDBRANCH  22  23
ENDBRANCH  21  22
ENDBRANCH   5  21
TORSDOF 8
ENDMDL
MODEL 5
REMARK VINA RESULT:      -7.4      1.150      1.165
REMARK  Name = 
REMARK  11 active torsions:
REMARK  status: ('A' for Active; 'I' for Inactive)
REMARK    1  A    between atoms: C_1  and  S_2
REMARK    2  A    between atoms: S_2  and  C_3
REMARK    3  A    between atoms: C_6  and  C_7
REMARK    4  A    between atoms: C_7  and  C_9
REMARK    5  A    between atoms: C_10  and  C_11
REMARK    6  A    between atoms: C_13  and  C_14
REMARK    7  A    between atoms: C_15  and  O_16
REMARK    8  A    between atoms: O_16  and  C_17
REMARK    9  A    between atoms: C_17  and  C_18
REMARK   10  A    between atoms: C_18  and  O_20
REMARK   11  A    between atoms: C_21  and  C_22
REMARK                            x       y       z     vdW  Elec       q    Type
REMARK                         _______ _______ _______ _____ _____    ______ ____
ROOT
ATOM      1  C   UNL     1       2.828   7.383  17.831  0.00  0.00    +0.000 A 
ATOM      2  C   UNL     1       4.178   7.107  17.628  0.00  0.00    +0.000 A 
ATOM      3  C   UNL     1       4.654   5.787  17.569  0.00  0.00    +0.000 A 
ATOM      4  C   UNL     1       6.104   5.580  17.215  0.00  0.00    +0.000 C 
ATOM      5  C   UNL     1       3.781   4.696  17.788  0.00  0.00    +0.000 A 
ATOM      6  C   UNL     1       2.409   4.954  17.985  0.00  0.00    +0.000 A 
ATOM      7  C   UNL     1       1.295   3.948  18.094  0.00  0.00    +0.000 C 
ATOM      8  C   UNL     1       1.964   6.305  18.021  0.00  0.00    +0.000 A 
ENDROOT
BRANCH   1  10
ATOM      9  C   UNL     1       1.265   9.126  18.599  0.00  0.00    +0.000 C 
ATOM     10  C   UNL     1       2.317   8.764  17.851  0.00  0.00    +0.000 C 
BRANCH   9  11
ATOM     11  C   UNL     1       0.717  10.514  18.562  0.00  0.00    +0.000 C 
ATOM     12  O   UNL     1       1.441  11.493  18.681  0.00  0.00    +0.000 OA
BRANCH  11  16
ATOM     13  C   UNL     1      -3.528  11.030  18.003  0.00  0.00    +0.000 A 
ATOM     14  C   UNL     1      -2.817  11.801  18.925  0.00  0.00    +0.000 A 
ATOM     15  C   UNL     1      -1.435  11.628  19.080  0.00  0.00    +0.000 A 
ATOM     16  C   UNL     1      -0.745  10.677  18.317  0.00  0.00    +0.000 A 
ATOM     17  C   UNL     1      -1.461   9.902  17.394  0.00  0.00    +0.000 A 
ATOM     18  C   UNL     1      -2.843  10.079  17.241  0.00  0.00    +0.000 A 
BRANCH  13  20
ATOM     19  C   UNL     1      -5.539  12.649  18.982  0.00  0.00    +0.000 C 
ATOM     20  S   UNL     1      -5.297  11.225  17.888  0.00  0.00    +0.000 S 
ENDBRANCH  13  20
ENDBRANCH  11  16
ENDBRANCH   9  11
ENDBRANCH   1  10
BRANCH   5  21
ATOM     21  O   UNL     1       4.416   3.478  17.716  0.00  0.00    +0.000 OA
BRANCH  21  22
ATOM     22  C   UNL     1       3.812   2.354  18.345  0.00  0.00    +0.000 C 
BRANCH  22  23
ATOM     23  C   UNL     1       4.120   2.286  19.837  0.00  0.00    +0.000 C 
ATOM     24  O   UNL     1       3.374   2.724  20.702  0.00  0.00    +0.000 OA
BRANCH  23  25
ATOM     25  O   UNL     1       5.296   1.683  20.130  0.00  0.00    +0.000 OA
ATOM     26  H   UNL     1       5.489   1.765  21.085  0.00  0.00    +0.000 HD
ENDBRANCH  23  25
ENDBRANCH  22  23
ENDBRANCH  21  22
ENDBRANCH   5  21
TORSDOF 8
ENDMDL
MODEL 6
REMARK VINA RESULT:      -7.4      0.783      1.874
REMARK  Name = 
REMARK  11 active torsions:
REMARK  status: ('A' for Active; 'I' for Inactive)
REMARK    1  A    between atoms: C_1  and  S_2
REMARK    2  A    between atoms: S_2  and  C_3
REMARK    3  A    between atoms: C_6  and  C_7
REMARK    4  A    between atoms: C_7  and  C_9
REMARK    5  A    between atoms: C_10  and  C_11
REMARK    6  A    between atoms: C_13  and  C_14
REMARK    7  A    between atoms: C_15  and  O_16
REMARK    8  A    between atoms: O_16  and  C_17
REMARK    9  A    between atoms: C_17  and  C_18
REMARK   10  A    between atoms: C_18  and  O_20
REMARK   11  A    between atoms: C_21  and  C_22
REMARK                            x       y       z     vdW  Elec       q    Type
REMARK                         _______ _______ _______ _____ _____    ______ ____
ROOT
ATOM      1  C   UNL     1       2.276   7.688  18.939  0.00  0.00    +0.000 A 
ATOM      2  C   UNL     1       2.189   6.576  19.773  0.00  0.00    +0.000 A 
ATOM      3  C   UNL     1       2.980   5.435  19.557  0.00  0.00    +0.000 A 
ATOM      4  C   UNL     1       2.917   4.334  20.582  0.00  0.00    +0.000 C 
ATOM      5  C   UNL     1       3.838   5.356  18.435  0.00  0.00    +0.000 A 
ATOM      6  C   UNL     1       3.947   6.475  17.585  0.00  0.00    +0.000 A 
ATOM      7  C   UNL     1       4.894   6.659  16.429  0.00  0.00    +0.000 C 
ATOM      8  C   UNL     1       3.142   7.618  17.849  0.00  0.00    +0.000 A 
ENDROOT
BRANCH   1  10
ATOM      9  C   UNL     1       1.117   9.733  18.199  0.00  0.00    +0.000 C 
ATOM     10  C   UNL     1       1.481   8.903  19.187  0.00  0.00    +0.000 C 
BRANCH   9  11
ATOM     11  C   UNL     1       0.366  10.994  18.471  0.00  0.00    +0.000 C 
ATOM     12  O   UNL     1       0.941  12.026  18.792  0.00  0.00    +0.000 OA
BRANCH  11  16
ATOM     13  C   UNL     1      -3.928  10.996  18.079  0.00  0.00    +0.000 A 
ATOM     14  C   UNL     1      -3.273  11.916  18.901  0.00  0.00    +0.000 A 
ATOM     15  C   UNL     1      -1.875  11.908  19.002  0.00  0.00    +0.000 A 
ATOM     16  C   UNL     1      -1.114  10.976  18.285  0.00  0.00    +0.000 A 
ATOM     17  C   UNL     1      -1.773  10.051  17.463  0.00  0.00    +0.000 A 
ATOM     18  C   UNL     1      -3.172  10.064  17.363  0.00  0.00    +0.000 A 
BRANCH  13  20
ATOM     19  C   UNL     1      -6.078  11.914  19.548  0.00  0.00    +0.000 C 
ATOM     20  S   UNL     1      -5.711  10.986  18.035  0.00  0.00    +0.000 S 
ENDBRANCH  13  20
ENDBRANCH  11  16
ENDBRANCH   9  11
ENDBRANCH   1  10
BRANCH   5  21
ATOM     21  O   UNL     1       4.519   4.163  18.364  0.00  0.00    +0.000 OA
BRANCH  21  22
ATOM     22  C   UNL     1       4.157   3.228  17.354  0.00  0.00    +0.000 C 
BRANCH  22  23
ATOM     23  C   UNL     1       3.339   2.065  17.904  0.00  0.00    +0.000 C 
ATOM     24  O   UNL     1       2.130   1.958  17.753  0.00  0.00    +0.000 OA
BRANCH  23  25
ATOM     25  O   UNL     1       4.072   1.143  18.571  0.00  0.00    +0.000 OA
ATOM     26  H   UNL     1       3.523   0.701  19.249  0.00  0.00    +0.000 HD
ENDBRANCH  23  25
ENDBRANCH  22  23
ENDBRANCH  21  22
ENDBRANCH   5  21
TORSDOF 8
ENDMDL
MODEL 7
REMARK VINA RESULT:      -7.3      1.298      1.747
REMARK  Name = 
REMARK  11 active torsions:
REMARK  status: ('A' for Active; 'I' for Inactive)
REMARK    1  A    between atoms: C_1  and  S_2
REMARK    2  A    between atoms: S_2  and  C_3
REMARK    3  A    between atoms: C_6  and  C_7
REMARK    4  A    between atoms: C_7  and  C_9
REMARK    5  A    between atoms: C_10  and  C_11
REMARK    6  A    between atoms: C_13  and  C_14
REMARK    7  A    between atoms: C_15  and  O_16
REMARK    8  A    between atoms: O_16  and  C_17
REMARK    9  A    between atoms: C_17  and  C_18
REMARK   10  A    between atoms: C_18  and  O_20
REMARK   11  A    between atoms: C_21  and  C_22
REMARK                            x       y       z     vdW  Elec       q    Type
REMARK                         _______ _______ _______ _____ _____    ______ ____
ROOT
ATOM      1  C   UNL     1       2.160   6.677  20.112  0.00  0.00    +0.000 A 
ATOM      2  C   UNL     1       3.130   6.548  19.122  0.00  0.00    +0.000 A 
ATOM      3  C   UNL     1       3.746   5.313  18.857  0.00  0.00    +0.000 A 
ATOM      4  C   UNL     1       4.686   5.237  17.683  0.00  0.00    +0.000 C 
ATOM      5  C   UNL     1       3.448   4.177  19.644  0.00  0.00    +0.000 A 
ATOM      6  C   UNL     1       2.461   4.285  20.645  0.00  0.00    +0.000 A 
ATOM      7  C   UNL     1       1.892   3.180  21.494  0.00  0.00    +0.000 C 
ATOM      8  C   UNL     1       1.848   5.549  20.870  0.00  0.00    +0.000 A 
ENDROOT
BRANCH   1  10
ATOM      9  C   UNL     1       1.257   8.854  19.391  0.00  0.00    +0.000 C 
ATOM     10  C   UNL     1       1.481   7.960  20.365  0.00  0.00    +0.000 C 
BRANCH   9  11
ATOM     11  C   UNL     1       0.626  10.177  19.671  0.00  0.00    +0.000 C 
ATOM     12  O   UNL     1       1.137  10.982  20.438  0.00  0.00    +0.000 OA
BRANCH  11  16
ATOM     13  C   UNL     1      -3.070  11.195  17.695  0.00  0.00    +0.000 A 
ATOM     14  C   UNL     1      -2.690  11.812  18.889  0.00  0.00    +0.000 A 
ATOM     15  C   UNL     1      -1.477  11.477  19.507  0.00  0.00    +0.000 A 
ATOM     16  C   UNL     1      -0.629  10.517  18.940  0.00  0.00    +0.000 A 
ATOM     17  C   UNL     1      -1.013   9.896  17.743  0.00  0.00    +0.000 A 
ATOM     18  C   UNL     1      -2.227  10.235  17.127  0.00  0.00    +0.000 A 
BRANCH  13  20
ATOM     19  C   UNL     1      -5.511  12.253  18.432  0.00  0.00    +0.000 C 
ATOM     20  S   UNL     1      -4.655  11.590  16.980  0.00  0.00    +0.000 S 
ENDBRANCH  13  20
ENDBRANCH  11  16
ENDBRANCH   9  11
ENDBRANCH   1  10
BRANCH   5  21
ATOM     21  O   UNL     1       4.155   3.060  19.264  0.00  0.00    +0.000 OA
BRANCH  21  22
ATOM     22  C   UNL     1       3.438   1.922  18.800  0.00  0.00    +0.000 C 
BRANCH  22  23
ATOM     23  C   UNL     1       2.293   2.296  17.867  0.00  0.00    +0.000 C 
ATOM     24  O   UNL     1       2.453   2.855  16.790  0.00  0.00    +0.000 OA
BRANCH  23  25
ATOM     25  O   UNL     1       1.069   1.946  18.327  0.00  0.00    +0.000 OA
ATOM     26  H   UNL     1       1.085   1.028  18.664  0.00  0.00    +0.000 HD
ENDBRANCH  23  25
ENDBRANCH  22  23
ENDBRANCH  21  22
ENDBRANCH   5  21
TORSDOF 8
ENDMDL
MODEL 8
REMARK VINA RESULT:      -7.3      0.786      1.387
REMARK  Name = 
REMARK  11 active torsions:
REMARK  status: ('A' for Active; 'I' for Inactive)
REMARK    1  A    between atoms: C_1  and  S_2
REMARK    2  A    between atoms: S_2  and  C_3
REMARK    3  A    between atoms: C_6  and  C_7
REMARK    4  A    between atoms: C_7  and  C_9
REMARK    5  A    between atoms: C_10  and  C_11
REMARK    6  A    between atoms: C_13  and  C_14
REMARK    7  A    between atoms: C_15  and  O_16
REMARK    8  A    between atoms: O_16  and  C_17
REMARK    9  A    between atoms: C_17  and  C_18
REMARK   10  A    between atoms: C_18  and  O_20
REMARK   11  A    between atoms: C_21  and  C_22
REMARK                            x       y       z     vdW  Elec       q    Type
REMARK                         _______ _______ _______ _____ _____    ______ ____
ROOT
ATOM      1  C   UNL     1       2.371   7.915  18.620  0.00  0.00    +0.000 A 
ATOM      2  C   UNL     1       3.363   7.588  17.699  0.00  0.00    +0.000 A 
ATOM      3  C   UNL     1       3.879   6.285  17.609  0.00  0.00    +0.000 A 
ATOM      4  C   UNL     1       4.853   5.991  16.498  0.00  0.00    +0.000 C 
ATOM      5  C   UNL     1       3.455   5.279  18.508  0.00  0.00    +0.000 A 
ATOM      6  C   UNL     1       2.443   5.587  19.442  0.00  0.00    +0.000 A 
ATOM      7  C   UNL     1       1.750   4.642  20.386  0.00  0.00    +0.000 C 
ATOM      8  C   UNL     1       1.935   6.915  19.489  0.00  0.00    +0.000 A 
ENDROOT
BRANCH   1  10
ATOM      9  C   UNL     1       0.922   9.627  19.640  0.00  0.00    +0.000 C 
ATOM     10  C   UNL     1       1.797   9.269  18.689  0.00  0.00    +0.000 C 
BRANCH   9  11
ATOM     11  C   UNL     1       0.298  10.983  19.660  0.00  0.00    +0.000 C 
ATOM     12  O   UNL     1       0.926  11.973  20.013  0.00  0.00    +0.000 OA
BRANCH  11  16
ATOM     13  C   UNL     1      -3.722  11.295  18.131  0.00  0.00    +0.000 A 
ATOM     14  C   UNL     1      -2.825  10.349  17.630  0.00  0.00    +0.000 A 
ATOM     15  C   UNL     1      -1.528  10.254  18.152  0.00  0.00    +0.000 A 
ATOM     16  C   UNL     1      -1.109  11.108  19.181  0.00  0.00    +0.000 A 
ATOM     17  C   UNL     1      -2.009  12.059  19.680  0.00  0.00    +0.000 A 
ATOM     18  C   UNL     1      -3.307  12.150  19.157  0.00  0.00    +0.000 A 
BRANCH  13  20
ATOM     19  C   UNL     1      -6.362  10.724  18.704  0.00  0.00    +0.000 C 
ATOM     20  S   UNL     1      -5.338  11.438  17.390  0.00  0.00    +0.000 S 
ENDBRANCH  13  20
ENDBRANCH  11  16
ENDBRANCH   9  11
ENDBRANCH   1  10
BRANCH   5  21
ATOM     21  O   UNL     1       4.076   4.071  18.295  0.00  0.00    +0.000 OA
BRANCH  21  22
ATOM     22  C   UNL     1       3.443   3.116  17.452  0.00  0.00    +0.000 C 
BRANCH  22  23
ATOM     23  C   UNL     1       3.073   1.837  18.195  0.00  0.00    +0.000 C 
ATOM     24  O   UNL     1       3.895   1.011  18.569  0.00  0.00    +0.000 OA
BRANCH  23  25
ATOM     25  O   UNL     1       1.747   1.694  18.421  0.00  0.00    +0.000 OA
ATOM     26  H   UNL     1       1.444   2.348  19.081  0.00  0.00    +0.000 HD
ENDBRANCH  23  25
ENDBRANCH  22  23
ENDBRANCH  21  22
ENDBRANCH   5  21
TORSDOF 8
ENDMDL
MODEL 9
REMARK VINA RESULT:      -7.2      1.256      2.377
REMARK  Name = 
REMARK  11 active torsions:
REMARK  status: ('A' for Active; 'I' for Inactive)
REMARK    1  A    between atoms: C_1  and  S_2
REMARK    2  A    between atoms: S_2  and  C_3
REMARK    3  A    between atoms: C_6  and  C_7
REMARK    4  A    between atoms: C_7  and  C_9
REMARK    5  A    between atoms: C_10  and  C_11
REMARK    6  A    between atoms: C_13  and  C_14
REMARK    7  A    between atoms: C_15  and  O_16
REMARK    8  A    between atoms: O_16  and  C_17
REMARK    9  A    between atoms: C_17  and  C_18
REMARK   10  A    between atoms: C_18  and  O_20
REMARK   11  A    between atoms: C_21  and  C_22
REMARK                            x       y       z     vdW  Elec       q    Type
REMARK                         _______ _______ _______ _____ _____    ______ ____
ROOT
ATOM      1  C   UNL     1       1.989   6.809  20.114  0.00  0.00    +0.000 A 
ATOM      2  C   UNL     1       1.742   5.678  20.888  0.00  0.00    +0.000 A 
ATOM      3  C   UNL     1       2.472   4.492  20.706  0.00  0.00    +0.000 A 
ATOM      4  C   UNL     1       2.229   3.364  21.675  0.00  0.00    +0.000 C 
ATOM      5  C   UNL     1       3.433   4.390  19.674  0.00  0.00    +0.000 A 
ATOM      6  C   UNL     1       3.705   5.527  18.885  0.00  0.00    +0.000 A 
ATOM      7  C   UNL     1       4.775   5.681  17.839  0.00  0.00    +0.000 C 
ATOM      8  C   UNL     1       2.955   6.714  19.113  0.00  0.00    +0.000 A 
ENDROOT
BRANCH   1  10
ATOM      9  C   UNL     1       1.330   9.095  19.471  0.00  0.00    +0.000 C 
ATOM     10  C   UNL     1       1.256   8.068  20.330  0.00  0.00    +0.000 C 
BRANCH   9  11
ATOM     11  C   UNL     1       0.634  10.389  19.734  0.00  0.00    +0.000 C 
ATOM     12  O   UNL     1       1.108  11.231  20.485  0.00  0.00    +0.000 OA
BRANCH  11  16
ATOM     13  C   UNL     1      -3.119  11.188  17.765  0.00  0.00    +0.000 A 
ATOM     14  C   UNL     1      -2.756  11.854  18.938  0.00  0.00    +0.000 A 
ATOM     15  C   UNL     1      -1.526  11.591  19.553  0.00  0.00    +0.000 A 
ATOM     16  C   UNL     1      -0.640  10.653  19.006  0.00  0.00    +0.000 A 
ATOM     17  C   UNL     1      -1.006   9.983  17.830  0.00  0.00    +0.000 A 
ATOM     18  C   UNL     1      -2.239  10.250  17.216  0.00  0.00    +0.000 A 
BRANCH  13  20
ATOM     19  C   UNL     1      -5.553  12.294  18.452  0.00  0.00    +0.000 C 
ATOM     20  S   UNL     1      -4.725  11.492  17.054  0.00  0.00    +0.000 S 
ENDBRANCH  13  20
ENDBRANCH  11  16
ENDBRANCH   9  11
ENDBRANCH   1  10
BRANCH   5  21
ATOM     21  O   UNL     1       4.036   3.154  19.623  0.00  0.00    +0.000 OA
BRANCH  21  22
ATOM     22  C   UNL     1       3.787   2.319  18.498  0.00  0.00    +0.000 C 
BRANCH  22  23
ATOM     23  C   UNL     1       2.347   2.416  18.008  0.00  0.00    +0.000 C 
ATOM     24  O   UNL     1       1.404   1.871  18.567  0.00  0.00    +0.000 OA
BRANCH  23  25
ATOM     25  O   UNL     1       2.192   3.173  16.897  0.00  0.00    +0.000 OA
ATOM     26  H   UNL     1       1.602   2.723  16.261  0.00  0.00    +0.000 HD
ENDBRANCH  23  25
ENDBRANCH  22  23
ENDBRANCH  21  22
ENDBRANCH   5  21
TORSDOF 8
ENDMDL
