MODEL 1
REMARK VINA RESULT:      -8.1      0.000      0.000
REMARK  Name = 
REMARK  12 active torsions:
REMARK  status: ('A' for Active; 'I' for Inactive)
REMARK    1  A    between atoms: C_1  and  C_2
REMARK    2  A    between atoms: C_2  and  C_3
REMARK    3  A    between atoms: C_6  and  S_7
REMARK    4  A    between atoms: S_7  and  N_10
REMARK    5  A    between atoms: N_10  and  C_11
REMARK    6  A    between atoms: N_10  and  C_19
REMARK    7  A    between atoms: C_11  and  C_12
REMARK    8  A    between atoms: N_14  and  C_15
REMARK    9  A    between atoms: N_14  and  C_17
REMARK   10  A    between atoms: C_15  and  C_16
REMARK   11  A    between atoms: C_17  and  C_18
REMARK   12  A    between atoms: C_22  and  C_23
REMARK                            x       y       z     vdW  Elec       q    Type
REMARK                         _______ _______ _______ _____ _____    ______ ____
ROOT
ATOM      1  N   UNL     1       5.481   4.822  18.676  0.00  0.00    +0.000 N 
ENDROOT
BRANCH   1   2
ATOM      2  C   UNL     1       4.474   5.863  18.630  0.00  0.00    +0.000 A 
ATOM      3  C   UNL     1       3.569   6.044  19.679  0.00  0.00    +0.000 A 
ATOM      4  C   UNL     1       2.575   7.025  19.591  0.00  0.00    +0.000 A 
ATOM      5  C   UNL     1       2.456   7.821  18.444  0.00  0.00    +0.000 A 
ATOM      6  C   UNL     1       1.384   8.867  18.338  0.00  0.00    +0.000 C 
ATOM      7  C   UNL     1       3.348   7.615  17.384  0.00  0.00    +0.000 A 
ATOM      8  C   UNL     1       4.347   6.640  17.475  0.00  0.00    +0.000 A 
ENDBRANCH   1   2
BRANCH   1   9
ATOM      9  S   UNL     1       6.898   5.259  17.815  0.00  0.00    +0.000 S 
ATOM     10  O   UNL     1       7.968   4.390  18.276  0.00  0.00    +0.000 OA
ATOM     11  O   UNL     1       7.077   6.696  17.890  0.00  0.00    +0.000 OA
BRANCH   9  15
ATOM     12  C   UNL     1       6.254   3.949  13.469  0.00  0.00    +0.000 A 
ATOM     13  C   UNL     1       5.346   3.576  14.469  0.00  0.00    +0.000 A 
ATOM     14  C   UNL     1       5.530   3.997  15.789  0.00  0.00    +0.000 A 
ATOM     15  C   UNL     1       6.624   4.798  16.121  0.00  0.00    +0.000 A 
ATOM     16  C   UNL     1       7.459   5.291  15.118  0.00  0.00    +0.000 A 
ATOM     17  C   UNL     1       7.272   4.863  13.800  0.00  0.00    +0.000 A 
BRANCH  12  19
ATOM     18  C   UNL     1       4.866   3.049  11.470  0.00  0.00    +0.000 C 
ATOM     19  C   UNL     1       6.230   3.383  12.066  0.00  0.00    +0.000 C 
ENDBRANCH  12  19
ENDBRANCH   9  15
ENDBRANCH   1   9
BRANCH   1  20
ATOM     20  C   UNL     1       4.962   3.425  18.713  0.00  0.00    +0.000 C 
BRANCH  20  21
ATOM     21  C   UNL     1       3.837   2.940  19.616  0.00  0.00    +0.000 C 
ATOM     22  O   UNL     1       4.003   2.746  20.819  0.00  0.00    +0.000 OA
ATOM     23  N   UNL     1       2.579   2.718  19.024  0.00  0.00    +0.000 N 
BRANCH  23  24
ATOM     24  C   UNL     1       2.228   3.013  17.627  0.00  0.00    +0.000 C 
ATOM     25  C   UNL     1       1.407   4.283  17.485  0.00  0.00    +0.000 C 
ENDBRANCH  23  24
BRANCH  23  26
ATOM     26  C   UNL     1       1.514   2.140  19.857  0.00  0.00    +0.000 C 
ATOM     27  C   UNL     1       0.915   3.131  20.843  0.00  0.00    +0.000 C 
ENDBRANCH  23  26
ENDBRANCH  20  21
ENDBRANCH   1  20
TORSDOF 8
ENDMDL
MODEL 2
REMARK VINA RESULT:      -7.7      1.578      2.441
REMARK  Name = 
REMARK  12 active torsions:
REMARK  status: ('A' for Active; 'I' for Inactive)
REMARK    1  A    between atoms: C_1  and  C_2
REMARK    2  A    between atoms: C_2  and  C_3
REMARK    3  A    between atoms: C_6  and  S_7
REMARK    4  A    between atoms: S_7  and  N_10
REMARK    5  A    between atoms: N_10  and  C_11
REMARK    6  A    between atoms: N_10  and  C_19
REMARK    7  A    between atoms: C_11  and  C_12
REMARK    8  A    between atoms: N_14  and  C_15
REMARK    9  A    between atoms: N_14  and  C_17
REMARK   10  A    between atoms: C_15  and  C_16
REMARK   11  A    between atoms: C_17  and  C_18
REMARK   12  A    between atoms: C_22  and  C_23
REMARK                            x       y       z     vdW  Elec       q    Type
REMARK                         _______ _______ _______ _____ _____    ______ ____
ROOT
ATOM      1  N   UNL     1       3.465   5.852  18.314  0.00  0.00    +0.000 N 
ENDROOT
BRANCH   1   2
ATOM      2  C   UNL     1       2.665   7.027  18.595  0.00  0.00    +0.000 A 
ATOM      3  C   UNL     1       2.382   7.967  17.601  0.00  0.00    +0.000 A 
ATOM      4  C   UNL     1       1.648   9.118  17.907  0.00  0.00    +0.000 A 
ATOM      5  C   UNL     1       1.209   9.358  19.215  0.00  0.00    +0.000 A 
ATOM      6  C   UNL     1       0.431  10.597  19.554  0.00  0.00    +0.000 C 
ATOM      7  C   UNL     1       1.519   8.426  20.214  0.00  0.00    +0.000 A 
ATOM      8  C   UNL     1       2.247   7.271  19.906  0.00  0.00    +0.000 A 
ENDBRANCH   1   2
BRANCH   1   9
ATOM      9  S   UNL     1       5.094   6.254  17.954  0.00  0.00    +0.000 S 
ATOM     10  O   UNL     1       5.928   5.610  18.956  0.00  0.00    +0.000 OA
ATOM     11  O   UNL     1       5.200   7.687  17.766  0.00  0.00    +0.000 OA
BRANCH   9  15
ATOM     12  C   UNL     1       5.983   4.113  13.999  0.00  0.00    +0.000 A 
ATOM     13  C   UNL     1       5.534   5.439  14.007  0.00  0.00    +0.000 A 
ATOM     14  C   UNL     1       5.287   6.099  15.214  0.00  0.00    +0.000 A 
ATOM     15  C   UNL     1       5.490   5.438  16.426  0.00  0.00    +0.000 A 
ATOM     16  C   UNL     1       6.067   4.168  16.441  0.00  0.00    +0.000 A 
ATOM     17  C   UNL     1       6.308   3.511  15.230  0.00  0.00    +0.000 A 
BRANCH  12  19
ATOM     18  C   UNL     1       4.898   3.283  11.793  0.00  0.00    +0.000 C 
ATOM     19  C   UNL     1       6.091   3.274  12.744  0.00  0.00    +0.000 C 
ENDBRANCH  12  19
ENDBRANCH   9  15
ENDBRANCH   1   9
BRANCH   1  20
ATOM     20  C   UNL     1       2.748   4.729  17.646  0.00  0.00    +0.000 C 
BRANCH  20  21
ATOM     21  C   UNL     1       1.908   3.685  18.366  0.00  0.00    +0.000 C 
ATOM     22  O   UNL     1       0.759   3.417  18.017  0.00  0.00    +0.000 OA
ATOM     23  N   UNL     1       2.494   3.023  19.462  0.00  0.00    +0.000 N 
BRANCH  23  24
ATOM     24  C   UNL     1       3.886   3.176  19.908  0.00  0.00    +0.000 C 
ATOM     25  C   UNL     1       4.575   1.844  20.147  0.00  0.00    +0.000 C 
ENDBRANCH  23  24
BRANCH  23  26
ATOM     26  C   UNL     1       1.657   2.096  20.238  0.00  0.00    +0.000 C 
ATOM     27  C   UNL     1       1.307   2.616  21.625  0.00  0.00    +0.000 C 
ENDBRANCH  23  26
ENDBRANCH  20  21
ENDBRANCH   1  20
TORSDOF 8
ENDMDL
MODEL 3
REMARK VINA RESULT:      -7.6      5.312      8.744
REMARK  Name = 
REMARK  12 active torsions:
REMARK  status: ('A' for Active; 'I' for Inactive)
REMARK    1  A    between atoms: C_1  and  C_2
REMARK    2  A    between atoms: C_2  and  C_3
REMARK    3  A    between atoms: C_6  and  S_7
REMARK    4  A    between atoms: S_7  and  N_10
REMARK    5  A    between atoms: N_10  and  C_11
REMARK    6  A    between atoms: N_10  and  C_19
REMARK    7  A    between atoms: C_11  and  C_12
REMARK    8  A    between atoms: N_14  and  C_15
REMARK    9  A    between atoms: N_14  and  C_17
REMARK   10  A    between atoms: C_15  and  C_16
REMARK   11  A    between atoms: C_17  and  C_18
REMARK   12  A    between atoms: C_22  and  C_23
REMARK                            x       y       z     vdW  Elec       q    Type
REMARK                         _______ _______ _______ _____ _____    ______ ____
ROOT
ATOM      1  N   UNL     1       0.552  10.847  19.672  0.00  0.00    +0.000 N 
ENDROOT
BRANCH   1   2
ATOM      2  C   UNL     1      -0.763  10.889  19.064  0.00  0.00    +0.000 A 
ATOM      3  C   UNL     1      -1.069  10.111  17.945  0.00  0.00    +0.000 A 
ATOM      4  C   UNL     1      -2.331  10.204  17.346  0.00  0.00    +0.000 A 
ATOM      5  C   UNL     1      -3.293  11.092  17.841  0.00  0.00    +0.000 A 
ATOM      6  C   UNL     1      -4.644  11.206  17.196  0.00  0.00    +0.000 C 
ATOM      7  C   UNL     1      -2.970  11.890  18.946  0.00  0.00    +0.000 A 
ATOM      8  C   UNL     1      -1.711  11.792  19.550  0.00  0.00    +0.000 A 
ENDBRANCH   1   2
BRANCH   1   9
ATOM      9  S   UNL     1       0.685   9.588  20.830  0.00  0.00    +0.000 S 
ATOM     10  O   UNL     1      -0.660   9.103  21.095  0.00  0.00    +0.000 OA
ATOM     11  O   UNL     1       1.499  10.046  21.939  0.00  0.00    +0.000 OA
BRANCH   9  15
ATOM     12  C   UNL     1       2.706   6.085  18.672  0.00  0.00    +0.000 A 
ATOM     13  C   UNL     1       2.664   7.356  18.085  0.00  0.00    +0.000 A 
ATOM     14  C   UNL     1       2.069   8.429  18.754  0.00  0.00    +0.000 A 
ATOM     15  C   UNL     1       1.514   8.241  20.021  0.00  0.00    +0.000 A 
ATOM     16  C   UNL     1       1.668   7.020  20.678  0.00  0.00    +0.000 A 
ATOM     17  C   UNL     1       2.261   5.948  20.001  0.00  0.00    +0.000 A 
BRANCH  12  19
ATOM     18  C   UNL     1       2.085   3.825  17.558  0.00  0.00    +0.000 C 
ATOM     19  C   UNL     1       3.158   4.840  17.939  0.00  0.00    +0.000 C 
ENDBRANCH  12  19
ENDBRANCH   9  15
ENDBRANCH   1   9
BRANCH   1  20
ATOM     20  C   UNL     1       1.228  12.165  19.837  0.00  0.00    +0.000 C 
BRANCH  20  21
ATOM     21  C   UNL     1       2.291  12.719  18.900  0.00  0.00    +0.000 C 
ATOM     22  O   UNL     1       2.680  12.097  17.913  0.00  0.00    +0.000 OA
ATOM     23  N   UNL     1       2.826  13.987  19.201  0.00  0.00    +0.000 N 
BRANCH  23  24
ATOM     24  C   UNL     1       2.371  14.870  20.284  0.00  0.00    +0.000 C 
ATOM     25  C   UNL     1       3.291  14.837  21.492  0.00  0.00    +0.000 C 
ENDBRANCH  23  24
BRANCH  23  26
ATOM     26  C   UNL     1       3.933  14.485  18.374  0.00  0.00    +0.000 C 
ATOM     27  C   UNL     1       3.536  15.635  17.461  0.00  0.00    +0.000 C 
ENDBRANCH  23  26
ENDBRANCH  20  21
ENDBRANCH   1  20
TORSDOF 8
ENDMDL
MODEL 4
REMARK VINA RESULT:      -7.6      0.608      1.155
REMARK  Name = 
REMARK  12 active torsions:
REMARK  status: ('A' for Active; 'I' for Inactive)
REMARK    1  A    between atoms: C_1  and  C_2
REMARK    2  A    between atoms: C_2  and  C_3
REMARK    3  A    between atoms: C_6  and  S_7
REMARK    4  A    between atoms: S_7  and  N_10
REMARK    5  A    between atoms: N_10  and  C_11
REMARK    6  A    between atoms: N_10  and  C_19
REMARK    7  A    between atoms: C_11  and  C_12
REMARK    8  A    between atoms: N_14  and  C_15
REMARK    9  A    between atoms: N_14  and  C_17
REMARK   10  A    between atoms: C_15  and  C_16
REMARK   11  A    between atoms: C_17  and  C_18
REMARK   12  A    between atoms: C_22  and  C_23
REMARK                            x       y       z     vdW  Elec       q    Type
REMARK                         _______ _______ _______ _____ _____    ______ ____
ROOT
ATOM      1  N   UNL     1       5.273   4.843  18.534  0.00  0.00    +0.000 N 
ENDROOT
BRANCH   1   2
ATOM      2  C   UNL     1       4.265   5.885  18.501  0.00  0.00    +0.000 A 
ATOM      3  C   UNL     1       4.185   6.782  17.433  0.00  0.00    +0.000 A 
ATOM      4  C   UNL     1       3.235   7.810  17.446  0.00  0.00    +0.000 A 
ATOM      5  C   UNL     1       2.370   7.969  18.536  0.00  0.00    +0.000 A 
ATOM      6  C   UNL     1       1.356   9.077  18.562  0.00  0.00    +0.000 C 
ATOM      7  C   UNL     1       2.474   7.084  19.616  0.00  0.00    +0.000 A 
ATOM      8  C   UNL     1       3.419   6.052  19.600  0.00  0.00    +0.000 A 
ENDBRANCH   1   2
BRANCH   1   9
ATOM      9  S   UNL     1       6.695   5.297  17.688  0.00  0.00    +0.000 S 
ATOM     10  O   UNL     1       7.772   4.450  18.172  0.00  0.00    +0.000 OA
ATOM     11  O   UNL     1       6.848   6.737  17.752  0.00  0.00    +0.000 OA
BRANCH   9  15
ATOM     12  C   UNL     1       6.101   3.925  13.354  0.00  0.00    +0.000 A 
ATOM     13  C   UNL     1       5.065   3.805  14.288  0.00  0.00    +0.000 A 
ATOM     14  C   UNL     1       5.238   4.247  15.603  0.00  0.00    +0.000 A 
ATOM     15  C   UNL     1       6.451   4.816  15.995  0.00  0.00    +0.000 A 
ATOM     16  C   UNL     1       7.443   5.068  15.047  0.00  0.00    +0.000 A 
ATOM     17  C   UNL     1       7.266   4.621  13.733  0.00  0.00    +0.000 A 
BRANCH  12  19
ATOM     18  C   UNL     1       4.684   3.071  11.355  0.00  0.00    +0.000 C 
ATOM     19  C   UNL     1       6.059   3.304  11.974  0.00  0.00    +0.000 C 
ENDBRANCH  12  19
ENDBRANCH   9  15
ENDBRANCH   1   9
BRANCH   1  20
ATOM     20  C   UNL     1       4.754   3.446  18.542  0.00  0.00    +0.000 C 
BRANCH  20  21
ATOM     21  C   UNL     1       4.099   2.771  19.738  0.00  0.00    +0.000 C 
ATOM     22  O   UNL     1       4.748   2.394  20.713  0.00  0.00    +0.000 OA
ATOM     23  N   UNL     1       2.703   2.587  19.696  0.00  0.00    +0.000 N 
BRANCH  23  24
ATOM     24  C   UNL     1       1.808   3.085  18.643  0.00  0.00    +0.000 C 
ATOM     25  C   UNL     1       0.411   2.494  18.733  0.00  0.00    +0.000 C 
ENDBRANCH  23  24
BRANCH  23  26
ATOM     26  C   UNL     1       2.071   1.834  20.789  0.00  0.00    +0.000 C 
ATOM     27  C   UNL     1       1.648   2.709  21.960  0.00  0.00    +0.000 C 
ENDBRANCH  23  26
ENDBRANCH  20  21
ENDBRANCH   1  20
TORSDOF 8
ENDMDL
MODEL 5
REMARK VINA RESULT:      -7.6      0.950      1.399
REMARK  Name = 
REMARK  12 active torsions:
REMARK  status: ('A' for Active; 'I' for Inactive)
REMARK    1  A    between atoms: C_1  and  C_2
REMARK    2  A    between atoms: C_2  and  C_3
REMARK    3  A    between atoms: C_6  and  S_7
REMARK    4  A    between atoms: S_7  and  N_10
REMARK    5  A    between atoms: N_10  and  C_11
REMARK    6  A    between atoms: N_10  and  C_19
REMARK    7  A    between atoms: C_11  and  C_12
REMARK    8  A    between atoms: N_14  and  C_15
REMARK    9  A    between atoms: N_14  and  C_17
REMARK   10  A    between atoms: C_15  and  C_16
REMARK   11  A    between atoms: C_17  and  C_18
REMARK   12  A    between atoms: C_22  and  C_23
REMARK                            x       y       z     vdW  Elec       q    Type
REMARK                         _______ _______ _______ _____ _____    ______ ____
ROOT
ATOM      1  N   UNL     1       5.553   4.863  18.774  0.00  0.00    +0.000 N 
ENDROOT
BRANCH   1   2
ATOM      2  C   UNL     1       4.514   5.859  18.603  0.00  0.00    +0.000 A 
ATOM      3  C   UNL     1       3.529   6.054  19.574  0.00  0.00    +0.000 A 
ATOM      4  C   UNL     1       2.509   6.989  19.364  0.00  0.00    +0.000 A 
ATOM      5  C   UNL     1       2.444   7.721  18.172  0.00  0.00    +0.000 A 
ATOM      6  C   UNL     1       1.344   8.716  17.935  0.00  0.00    +0.000 C 
ATOM      7  C   UNL     1       3.418   7.500  17.190  0.00  0.00    +0.000 A 
ATOM      8  C   UNL     1       4.443   6.571  17.403  0.00  0.00    +0.000 A 
ENDBRANCH   1   2
BRANCH   1   9
ATOM      9  S   UNL     1       6.988   5.278  17.931  0.00  0.00    +0.000 S 
ATOM     10  O   UNL     1       8.036   4.386  18.399  0.00  0.00    +0.000 OA
ATOM     11  O   UNL     1       7.193   6.710  18.018  0.00  0.00    +0.000 OA
BRANCH   9  15
ATOM     12  C   UNL     1       6.383   4.014  13.566  0.00  0.00    +0.000 A 
ATOM     13  C   UNL     1       5.547   3.518  14.575  0.00  0.00    +0.000 A 
ATOM     14  C   UNL     1       5.717   3.923  15.902  0.00  0.00    +0.000 A 
ATOM     15  C   UNL     1       6.723   4.832  16.232  0.00  0.00    +0.000 A 
ATOM     16  C   UNL     1       7.473   5.441  15.225  0.00  0.00    +0.000 A 
ATOM     17  C   UNL     1       7.302   5.028  13.899  0.00  0.00    +0.000 A 
BRANCH  12  19
ATOM     18  C   UNL     1       5.106   2.825  11.646  0.00  0.00    +0.000 C 
ATOM     19  C   UNL     1       6.386   3.485  12.148  0.00  0.00    +0.000 C 
ENDBRANCH  12  19
ENDBRANCH   9  15
ENDBRANCH   1   9
BRANCH   1  20
ATOM     20  C   UNL     1       5.080   3.456  18.911  0.00  0.00    +0.000 C 
BRANCH  20  21
ATOM     21  C   UNL     1       3.695   2.963  18.517  0.00  0.00    +0.000 C 
ATOM     22  O   UNL     1       3.337   2.889  17.343  0.00  0.00    +0.000 OA
ATOM     23  N   UNL     1       2.819   2.588  19.555  0.00  0.00    +0.000 N 
BRANCH  23  24
ATOM     24  C   UNL     1       3.162   2.532  20.983  0.00  0.00    +0.000 C 
ATOM     25  C   UNL     1       2.111   3.183  21.865  0.00  0.00    +0.000 C 
ENDBRANCH  23  24
BRANCH  23  26
ATOM     26  C   UNL     1       1.441   2.221  19.199  0.00  0.00    +0.000 C 
ATOM     27  C   UNL     1       0.560   3.419  18.877  0.00  0.00    +0.000 C 
ENDBRANCH  23  26
ENDBRANCH  20  21
ENDBRANCH   1  20
TORSDOF 8
ENDMDL
MODEL 6
REMARK VINA RESULT:      -7.5      5.438      8.813
REMARK  Name = 
REMARK  12 active torsions:
REMARK  status: ('A' for Active; 'I' for Inactive)
REMARK    1  A    between atoms: C_1  and  C_2
REMARK    2  A    between atoms: C_2  and  C_3
REMARK    3  A    between atoms: C_6  and  S_7
REMARK    4  A    between atoms: S_7  and  N_10
REMARK    5  A    between atoms: N_10  and  C_11
REMARK    6  A    between atoms: N_10  and  C_19
REMARK    7  A    between atoms: C_11  and  C_12
REMARK    8  A    between atoms: N_14  and  C_15
REMARK    9  A    between atoms: N_14  and  C_17
REMARK   10  A    between atoms: C_15  and  C_16
REMARK   11  A    between atoms: C_17  and  C_18
REMARK   12  A    between atoms: C_22  and  C_23
REMARK                            x       y       z     vdW  Elec       q    Type
REMARK                         _______ _______ _______ _____ _____    ______ ____
ROOT
ATOM      1  N   UNL     1       0.390  11.031  19.528  0.00  0.00    +0.000 N 
ENDROOT
BRANCH   1   2
ATOM      2  C   UNL     1      -0.971  11.051  19.031  0.00  0.00    +0.000 A 
ATOM      3  C   UNL     1      -1.357  10.267  17.941  0.00  0.00    +0.000 A 
ATOM      4  C   UNL     1      -2.665  10.339  17.449  0.00  0.00    +0.000 A 
ATOM      5  C   UNL     1      -3.597  11.213  18.023  0.00  0.00    +0.000 A 
ATOM      6  C   UNL     1      -4.999  11.305  17.492  0.00  0.00    +0.000 C 
ATOM      7  C   UNL     1      -3.196  12.017  19.098  0.00  0.00    +0.000 A 
ATOM      8  C   UNL     1      -1.890  11.940  19.595  0.00  0.00    +0.000 A 
ENDBRANCH   1   2
BRANCH   1   9
ATOM      9  S   UNL     1       0.654   9.742  20.629  0.00  0.00    +0.000 S 
ATOM     10  O   UNL     1      -0.638   9.132  20.895  0.00  0.00    +0.000 OA
ATOM     11  O   UNL     1       1.448  10.221  21.742  0.00  0.00    +0.000 OA
BRANCH   9  15
ATOM     12  C   UNL     1       3.154   6.598  18.419  0.00  0.00    +0.000 A 
ATOM     13  C   UNL     1       2.660   6.341  19.704  0.00  0.00    +0.000 A 
ATOM     14  C   UNL     1       1.877   7.291  20.367  0.00  0.00    +0.000 A 
ATOM     15  C   UNL     1       1.578   8.506  19.748  0.00  0.00    +0.000 A 
ATOM     16  C   UNL     1       1.945   8.722  18.420  0.00  0.00    +0.000 A 
ATOM     17  C   UNL     1       2.732   7.770  17.763  0.00  0.00    +0.000 A 
BRANCH  12  19
ATOM     18  C   UNL     1       5.070   6.364  16.684  0.00  0.00    +0.000 C 
ATOM     19  C   UNL     1       4.158   5.709  17.717  0.00  0.00    +0.000 C 
ENDBRANCH  12  19
ENDBRANCH   9  15
ENDBRANCH   1   9
BRANCH   1  20
ATOM     20  C   UNL     1       1.040  12.364  19.682  0.00  0.00    +0.000 C 
BRANCH  20  21
ATOM     21  C   UNL     1       2.187  12.875  18.822  0.00  0.00    +0.000 C 
ATOM     22  O   UNL     1       2.739  12.167  17.981  0.00  0.00    +0.000 OA
ATOM     23  N   UNL     1       2.604  14.205  19.020  0.00  0.00    +0.000 N 
BRANCH  23  24
ATOM     24  C   UNL     1       1.960  15.179  19.913  0.00  0.00    +0.000 C 
ATOM     25  C   UNL     1       2.776  15.457  21.164  0.00  0.00    +0.000 C 
ENDBRANCH  23  24
BRANCH  23  26
ATOM     26  C   UNL     1       3.784  14.678  18.281  0.00  0.00    +0.000 C 
ATOM     27  C   UNL     1       3.475  15.804  17.306  0.00  0.00    +0.000 C 
ENDBRANCH  23  26
ENDBRANCH  20  21
ENDBRANCH   1  20
TORSDOF 8
ENDMDL
MODEL 7
REMARK VINA RESULT:      -7.5      0.482      1.414
REMARK  Name = 
REMARK  12 active torsions:
REMARK  status: ('A' for Active; 'I' for Inactive)
REMARK    1  A    between atoms: C_1  and  C_2
REMARK    2  A    between atoms: C_2  and  C_3
REMARK    3  A    between atoms: C_6  and  S_7
REMARK    4  A    between atoms: S_7  and  N_10
REMARK    5  A    between atoms: N_10  and  C_11
REMARK    6  A    between atoms: N_10  and  C_19
REMARK    7  A    between atoms: C_11  and  C_12
REMARK    8  A    between atoms: N_14  and  C_15
REMARK    9  A    between atoms: N_14  and  C_17
REMARK   10  A    between atoms: C_15  and  C_16
REMARK   11  A    between atoms: C_17  and  C_18
REMARK   12  A    between atoms: C_22  and  C_23
REMARK                            x       y       z     vdW  Elec       q    Type
REMARK                         _______ _______ _______ _____ _____    ______ ____
ROOT
ATOM      1  N   UNL     1       5.332   4.859  18.577  0.00  0.00    +0.000 N 
ENDROOT
BRANCH   1   2
ATOM      2  C   UNL     1       4.322   5.894  18.470  0.00  0.00    +0.000 A 
ATOM      3  C   UNL     1       4.190   6.661  17.310  0.00  0.00    +0.000 A 
ATOM      4  C   UNL     1       3.240   7.686  17.247  0.00  0.00    +0.000 A 
ATOM      5  C   UNL     1       2.427   7.974  18.350  0.00  0.00    +0.000 A 
ATOM      6  C   UNL     1       1.413   9.081  18.294  0.00  0.00    +0.000 C 
ATOM      7  C   UNL     1       2.582   7.220  19.520  0.00  0.00    +0.000 A 
ATOM      8  C   UNL     1       3.528   6.190  19.580  0.00  0.00    +0.000 A 
ENDBRANCH   1   2
BRANCH   1   9
ATOM      9  S   UNL     1       6.801   5.314  17.817  0.00  0.00    +0.000 S 
ATOM     10  O   UNL     1       7.857   4.506  18.405  0.00  0.00    +0.000 OA
ATOM     11  O   UNL     1       6.923   6.758  17.842  0.00  0.00    +0.000 OA
BRANCH   9  15
ATOM     12  C   UNL     1       6.428   4.025  13.434  0.00  0.00    +0.000 A 
ATOM     13  C   UNL     1       7.423   4.928  13.829  0.00  0.00    +0.000 A 
ATOM     14  C   UNL     1       7.552   5.301  15.171  0.00  0.00    +0.000 A 
ATOM     15  C   UNL     1       6.687   4.771  16.129  0.00  0.00    +0.000 A 
ATOM     16  C   UNL     1       5.782   3.769  15.777  0.00  0.00    +0.000 A 
ATOM     17  C   UNL     1       5.655   3.403  14.433  0.00  0.00    +0.000 A 
BRANCH  12  19
ATOM     18  C   UNL     1       4.712   3.174  11.683  0.00  0.00    +0.000 C 
ATOM     19  C   UNL     1       6.104   3.719  11.987  0.00  0.00    +0.000 C 
ENDBRANCH  12  19
ENDBRANCH   9  15
ENDBRANCH   1   9
BRANCH   1  20
ATOM     20  C   UNL     1       4.822   3.458  18.568  0.00  0.00    +0.000 C 
BRANCH  20  21
ATOM     21  C   UNL     1       4.056   2.806  19.709  0.00  0.00    +0.000 C 
ATOM     22  O   UNL     1       4.626   2.316  20.683  0.00  0.00    +0.000 OA
ATOM     23  N   UNL     1       2.651   2.779  19.617  0.00  0.00    +0.000 N 
BRANCH  23  24
ATOM     24  C   UNL     1       1.852   3.420  18.563  0.00  0.00    +0.000 C 
ATOM     25  C   UNL     1       2.249   2.966  17.169  0.00  0.00    +0.000 C 
ENDBRANCH  23  24
BRANCH  23  26
ATOM     26  C   UNL     1       1.903   2.052  20.653  0.00  0.00    +0.000 C 
ATOM     27  C   UNL     1       1.394   2.947  21.772  0.00  0.00    +0.000 C 
ENDBRANCH  23  26
ENDBRANCH  20  21
ENDBRANCH   1  20
TORSDOF 8
ENDMDL
MODEL 8
REMARK VINA RESULT:      -7.4      1.352      2.096
REMARK  Name = 
REMARK  12 active torsions:
REMARK  status: ('A' for Active; 'I' for Inactive)
REMARK    1  A    between atoms: C_1  and  C_2
REMARK    2  A    between atoms: C_2  and  C_3
REMARK    3  A    between atoms: C_6  and  S_7
REMARK    4  A    between atoms: S_7  and  N_10
REMARK    5  A    between atoms: N_10  and  C_11
REMARK    6  A    between atoms: N_10  and  C_19
REMARK    7  A    between atoms: C_11  and  C_12
REMARK    8  A    between atoms: N_14  and  C_15
REMARK    9  A    between atoms: N_14  and  C_17
REMARK   10  A    between atoms: C_15  and  C_16
REMARK   11  A    between atoms: C_17  and  C_18
REMARK   12  A    between atoms: C_22  and  C_23
REMARK                            x       y       z     vdW  Elec       q    Type
REMARK                         _______ _______ _______ _____ _____    ______ ____
ROOT
ATOM      1  N   UNL     1       3.908   5.622  18.212  0.00  0.00    +0.000 N 
ENDROOT
BRANCH   1   2
ATOM      2  C   UNL     1       3.119   6.804  18.497  0.00  0.00    +0.000 A 
ATOM      3  C   UNL     1       2.525   6.996  19.746  0.00  0.00    +0.000 A 
ATOM      4  C   UNL     1       1.728   8.122  19.982  0.00  0.00    +0.000 A 
ATOM      5  C   UNL     1       1.494   9.057  18.967  0.00  0.00    +0.000 A 
ATOM      6  C   UNL     1       0.630  10.261  19.209  0.00  0.00    +0.000 C 
ATOM      7  C   UNL     1       2.069   8.845  17.707  0.00  0.00    +0.000 A 
ATOM      8  C   UNL     1       2.872   7.723  17.473  0.00  0.00    +0.000 A 
ENDBRANCH   1   2
BRANCH   1   9
ATOM      9  S   UNL     1       5.526   6.014  17.796  0.00  0.00    +0.000 S 
ATOM     10  O   UNL     1       6.391   5.346  18.755  0.00  0.00    +0.000 OA
ATOM     11  O   UNL     1       5.639   7.449  17.626  0.00  0.00    +0.000 OA
BRANCH   9  15
ATOM     12  C   UNL     1       6.342   4.080  13.720  0.00  0.00    +0.000 A 
ATOM     13  C   UNL     1       7.339   4.817  14.372  0.00  0.00    +0.000 A 
ATOM     14  C   UNL     1       7.097   5.385  15.626  0.00  0.00    +0.000 A 
ATOM     15  C   UNL     1       5.855   5.218  16.241  0.00  0.00    +0.000 A 
ATOM     16  C   UNL     1       4.901   4.375  15.672  0.00  0.00    +0.000 A 
ATOM     17  C   UNL     1       5.147   3.812  14.415  0.00  0.00    +0.000 A 
BRANCH  12  19
ATOM     18  C   UNL     1       5.308   2.765  11.737  0.00  0.00    +0.000 C 
ATOM     19  C   UNL     1       6.460   3.598  12.290  0.00  0.00    +0.000 C 
ENDBRANCH  12  19
ENDBRANCH   9  15
ENDBRANCH   1   9
BRANCH   1  20
ATOM     20  C   UNL     1       3.169   4.490  17.585  0.00  0.00    +0.000 C 
BRANCH  20  21
ATOM     21  C   UNL     1       2.100   3.660  18.281  0.00  0.00    +0.000 C 
ATOM     22  O   UNL     1       0.973   3.517  17.809  0.00  0.00    +0.000 OA
ATOM     23  N   UNL     1       2.445   3.049  19.502  0.00  0.00    +0.000 N 
BRANCH  23  24
ATOM     24  C   UNL     1       3.782   3.056  20.113  0.00  0.00    +0.000 C 
ATOM     25  C   UNL     1       4.522   1.744  19.920  0.00  0.00    +0.000 C 
ENDBRANCH  23  24
BRANCH  23  26
ATOM     26  C   UNL     1       1.392   2.340  20.243  0.00  0.00    +0.000 C 
ATOM     27  C   UNL     1       1.327   2.722  21.715  0.00  0.00    +0.000 C 
ENDBRANCH  23  26
ENDBRANCH  20  21
ENDBRANCH   1  20
TORSDOF 8
ENDMDL
MODEL 9
REMARK VINA RESULT:      -7.4      5.459      8.785
REMARK  Name = 
REMARK  12 active torsions:
REMARK  status: ('A' for Active; 'I' for Inactive)
REMARK    1  A    between atoms: C_1  and  C_2
REMARK    2  A    between atoms: C_2  and  C_3
REMARK    3  A    between atoms: C_6  and  S_7
REMARK    4  A    between atoms: S_7  and  N_10
REMARK    5  A    between atoms: N_10  and  C_11
REMARK    6  A    between atoms: N_10  and  C_19
REMARK    7  A    between atoms: C_11  and  C_12
REMARK    8  A    between atoms: N_14  and  C_15
REMARK    9  A    between atoms: N_14  and  C_17
REMARK   10  A    between atoms: C_15  and  C_16
REMARK   11  A    between atoms: C_17  and  C_18
REMARK   12  A    between atoms: C_22  and  C_23
REMARK                            x       y       z     vdW  Elec       q    Type
REMARK                         _______ _______ _______ _____ _____    ______ ____
ROOT
ATOM      1  N   UNL     1       0.553  11.015  19.611  0.00  0.00    +0.000 N 
ENDROOT
BRANCH   1   2
ATOM      2  C   UNL     1      -0.784  11.119  19.061  0.00  0.00    +0.000 A 
ATOM      3  C   UNL     1      -1.733  11.978  19.619  0.00  0.00    +0.000 A 
ATOM      4  C   UNL     1      -3.032  12.026  19.100  0.00  0.00    +0.000 A 
ATOM      5  C   UNL     1      -3.406  11.198  18.034  0.00  0.00    +0.000 A 
ATOM      6  C   UNL     1      -4.802  11.235  17.480  0.00  0.00    +0.000 C 
ATOM      7  C   UNL     1      -2.458  10.318  17.497  0.00  0.00    +0.000 A 
ATOM      8  C   UNL     1      -1.157  10.276  18.011  0.00  0.00    +0.000 A 
ENDBRANCH   1   2
BRANCH   1   9
ATOM      9  S   UNL     1       0.722   9.651  20.637  0.00  0.00    +0.000 S 
ATOM     10  O   UNL     1      -0.601   9.071  20.804  0.00  0.00    +0.000 OA
ATOM     11  O   UNL     1       1.477  10.032  21.815  0.00  0.00    +0.000 OA
BRANCH   9  15
ATOM     12  C   UNL     1       3.224   6.569  18.344  0.00  0.00    +0.000 A 
ATOM     13  C   UNL     1       2.688   6.260  19.601  0.00  0.00    +0.000 A 
ATOM     14  C   UNL     1       1.905   7.192  20.289  0.00  0.00    +0.000 A 
ATOM     15  C   UNL     1       1.647   8.441  19.722  0.00  0.00    +0.000 A 
ATOM     16  C   UNL     1       2.055   8.715  18.416  0.00  0.00    +0.000 A 
ATOM     17  C   UNL     1       2.842   7.780  17.735  0.00  0.00    +0.000 A 
BRANCH  12  19
ATOM     18  C   UNL     1       4.949   6.300  16.425  0.00  0.00    +0.000 C 
ATOM     19  C   UNL     1       4.229   5.695  17.626  0.00  0.00    +0.000 C 
ENDBRANCH  12  19
ENDBRANCH   9  15
ENDBRANCH   1   9
BRANCH   1  20
ATOM     20  C   UNL     1       1.243  12.310  19.876  0.00  0.00    +0.000 C 
BRANCH  20  21
ATOM     21  C   UNL     1       2.071  13.076  18.856  0.00  0.00    +0.000 C 
ATOM     22  O   UNL     1       2.834  12.510  18.074  0.00  0.00    +0.000 OA
ATOM     23  N   UNL     1       1.937  14.478  18.830  0.00  0.00    +0.000 N 
BRANCH  23  24
ATOM     24  C   UNL     1       0.986  15.259  19.634  0.00  0.00    +0.000 C 
ATOM     25  C   UNL     1      -0.169  15.804  18.811  0.00  0.00    +0.000 C 
ENDBRANCH  23  24
BRANCH  23  26
ATOM     26  C   UNL     1       2.814  15.242  17.932  0.00  0.00    +0.000 C 
ATOM     27  C   UNL     1       3.662  16.279  18.652  0.00  0.00    +0.000 C 
ENDBRANCH  23  26
ENDBRANCH  20  21
ENDBRANCH   1  20
TORSDOF 8
ENDMDL
