MODEL 1
REMARK VINA RESULT:      -8.4      0.000      0.000
REMARK  Name = 
REMARK  13 active torsions:
REMARK  status: ('A' for Active; 'I' for Inactive)
REMARK    1  A    between atoms: C_2  and  C_3
REMARK    2  A    between atoms: C_2  and  C_4
REMARK    3  A    between atoms: C_5  and  C_6
REMARK    4  A    between atoms: C_6  and  C_7
REMARK    5  A    between atoms: C_7  and  C_8
REMARK    6  A    between atoms: C_9  and  C_10
REMARK    7  A    between atoms: C_10  and  C_11
REMARK    8  A    between atoms: C_11  and  C_12
REMARK    9  A    between atoms: C_12  and  C_13
REMARK   10  A    between atoms: C_19  and  C_20
REMARK   11  A    between atoms: C_21  and  C_22
REMARK   12  A    between atoms: C_22  and  O_24
REMARK   13  A    between atoms: C_25  and  O_26
REMARK                            x       y       z     vdW  Elec       q    Type
REMARK                         _______ _______ _______ _____ _____    ______ ____
ROOT
ATOM      1  C   UNL     1       2.795   5.925  18.639  0.00  0.00    +0.000 C 
ATOM      2  C   UNL     1       2.028   4.664  18.221  0.00  0.00    +0.000 C 
ATOM      3  C   UNL     1       2.682   6.938  17.524  0.00  0.00    +0.000 C 
ATOM      4  C   UNL     1       2.180   8.164  17.697  0.00  0.00    +0.000 C 
ATOM      5  C   UNL     1       1.715   8.544  19.025  0.00  0.00    +0.000 A 
ATOM      6  C   UNL     1       1.762   7.603  20.050  0.00  0.00    +0.000 A 
ATOM      7  C   UNL     1       1.325   7.935  21.334  0.00  0.00    +0.000 A 
ATOM      8  C   UNL     1       0.845   9.222  21.645  0.00  0.00    +0.000 A 
ATOM      9  C   UNL     1       0.452   9.473  23.079  0.00  0.00    +0.000 C 
ATOM     10  C   UNL     1       0.791  10.184  20.611  0.00  0.00    +0.000 A 
ATOM     11  C   UNL     1       1.234   9.831  19.311  0.00  0.00    +0.000 A 
ATOM     12  O   UNL     1       2.213   6.326  19.898  0.00  0.00    +0.000 OA
ENDROOT
BRANCH  10  13
ATOM     13  C   UNL     1       0.376  11.601  20.807  0.00  0.00    +0.000 C 
ATOM     14  O   UNL     1       1.098  12.391  21.400  0.00  0.00    +0.000 OA
BRANCH  13  15
ATOM     15  O   UNL     1      -0.771  11.985  20.222  0.00  0.00    +0.000 OA
ATOM     16  H   UNL     1      -0.693  12.747  19.625  0.00  0.00    +0.000 HD
ENDBRANCH  13  15
ENDBRANCH  10  13
BRANCH  11  17
ATOM     17  O   UNL     1       1.210  10.733  18.267  0.00  0.00    +0.000 OA
ATOM     18  H   UNL     1       0.723  11.538  18.543  0.00  0.00    +0.000 HD
ENDBRANCH  11  17
BRANCH   1  19
ATOM     19  C   UNL     1       4.298   5.642  18.888  0.00  0.00    +0.000 C 
BRANCH  19  20
ATOM     20  C   UNL     1       4.737   4.261  18.389  0.00  0.00    +0.000 C 
BRANCH  20  23
ATOM     21  C   UNL     1       6.556   4.591  16.705  0.00  0.00    +0.000 C 
ATOM     22  C   UNL     1       7.527   4.999  17.782  0.00  0.00    +0.000 C 
ATOM     23  C   UNL     1       5.276   4.274  16.986  0.00  0.00    +0.000 C 
BRANCH  21  24
ATOM     24  C   UNL     1       7.078   4.590  15.287  0.00  0.00    +0.000 C 
BRANCH  24  26
ATOM     25  C   UNL     1       6.448   3.729  12.954  0.00  0.00    +0.000 C 
ATOM     26  C   UNL     1       6.230   3.862  14.276  0.00  0.00    +0.000 C 
BRANCH  25  28
ATOM     27  C   UNL     1       4.345   3.376  11.800  0.00  0.00    +0.000 C 
ATOM     28  C   UNL     1       5.610   2.981  12.026  0.00  0.00    +0.000 C 
ATOM     29  C   UNL     1       6.175   1.779  11.318  0.00  0.00    +0.000 C 
ENDBRANCH  25  28
ENDBRANCH  24  26
ENDBRANCH  21  24
ENDBRANCH  20  23
ENDBRANCH  19  20
ENDBRANCH   1  19
TORSDOF 9
ENDMDL
MODEL 2
REMARK VINA RESULT:      -8.3      0.735      1.314
REMARK  Name = 
REMARK  13 active torsions:
REMARK  status: ('A' for Active; 'I' for Inactive)
REMARK    1  A    between atoms: C_2  and  C_3
REMARK    2  A    between atoms: C_2  and  C_4
REMARK    3  A    between atoms: C_5  and  C_6
REMARK    4  A    between atoms: C_6  and  C_7
REMARK    5  A    between atoms: C_7  and  C_8
REMARK    6  A    between atoms: C_9  and  C_10
REMARK    7  A    between atoms: C_10  and  C_11
REMARK    8  A    between atoms: C_11  and  C_12
REMARK    9  A    between atoms: C_12  and  C_13
REMARK   10  A    between atoms: C_19  and  C_20
REMARK   11  A    between atoms: C_21  and  C_22
REMARK   12  A    between atoms: C_22  and  O_24
REMARK   13  A    between atoms: C_25  and  O_26
REMARK                            x       y       z     vdW  Elec       q    Type
REMARK                         _______ _______ _______ _____ _____    ______ ____
ROOT
ATOM      1  C   UNL     1       2.691   6.121  18.764  0.00  0.00    +0.000 C 
ATOM      2  C   UNL     1       1.950   4.885  18.236  0.00  0.00    +0.000 C 
ATOM      3  C   UNL     1       2.659   7.184  17.691  0.00  0.00    +0.000 C 
ATOM      4  C   UNL     1       2.150   8.404  17.883  0.00  0.00    +0.000 C 
ATOM      5  C   UNL     1       1.595   8.727  19.192  0.00  0.00    +0.000 A 
ATOM      6  C   UNL     1       1.567   7.741  20.174  0.00  0.00    +0.000 A 
ATOM      7  C   UNL     1       1.043   8.018  21.439  0.00  0.00    +0.000 A 
ATOM      8  C   UNL     1       0.547   9.293  21.773  0.00  0.00    +0.000 A 
ATOM      9  C   UNL     1       0.056   9.482  23.186  0.00  0.00    +0.000 C 
ATOM     10  C   UNL     1       0.569  10.301  20.782  0.00  0.00    +0.000 A 
ATOM     11  C   UNL     1       1.099  10.003  19.501  0.00  0.00    +0.000 A 
ATOM     12  O   UNL     1       2.023   6.470  19.996  0.00  0.00    +0.000 OA
ENDROOT
BRANCH  10  13
ATOM     13  C   UNL     1       0.145  11.710  21.012  0.00  0.00    +0.000 C 
ATOM     14  O   UNL     1      -1.040  12.015  21.025  0.00  0.00    +0.000 OA
BRANCH  13  15
ATOM     15  O   UNL     1       1.113  12.598  21.297  0.00  0.00    +0.000 OA
ATOM     16  H   UNL     1       1.639  12.890  20.536  0.00  0.00    +0.000 HD
ENDBRANCH  13  15
ENDBRANCH  10  13
BRANCH  11  17
ATOM     17  O   UNL     1       1.152  10.951  18.501  0.00  0.00    +0.000 OA
ATOM     18  H   UNL     1       1.139  11.847  18.899  0.00  0.00    +0.000 HD
ENDBRANCH  11  17
BRANCH   1  19
ATOM     19  C   UNL     1       4.172   5.818  19.104  0.00  0.00    +0.000 C 
BRANCH  19  20
ATOM     20  C   UNL     1       5.155   6.458  18.118  0.00  0.00    +0.000 C 
BRANCH  20  23
ATOM     21  C   UNL     1       6.014   5.450  15.996  0.00  0.00    +0.000 C 
ATOM     22  C   UNL     1       5.218   6.426  15.170  0.00  0.00    +0.000 C 
ATOM     23  C   UNL     1       5.966   5.456  17.344  0.00  0.00    +0.000 C 
BRANCH  21  24
ATOM     24  C   UNL     1       6.842   4.438  15.239  0.00  0.00    +0.000 C 
BRANCH  24  26
ATOM     25  C   UNL     1       6.165   3.769  12.858  0.00  0.00    +0.000 C 
ATOM     26  C   UNL     1       6.107   3.638  14.196  0.00  0.00    +0.000 C 
BRANCH  25  28
ATOM     27  C   UNL     1       6.004   1.788  11.469  0.00  0.00    +0.000 C 
ATOM     28  C   UNL     1       5.457   2.941  11.890  0.00  0.00    +0.000 C 
ATOM     29  C   UNL     1       4.111   3.381  11.380  0.00  0.00    +0.000 C 
ENDBRANCH  25  28
ENDBRANCH  24  26
ENDBRANCH  21  24
ENDBRANCH  20  23
ENDBRANCH  19  20
ENDBRANCH   1  19
TORSDOF 9
ENDMDL
MODEL 3
REMARK VINA RESULT:      -7.7      0.788      1.376
REMARK  Name = 
REMARK  13 active torsions:
REMARK  status: ('A' for Active; 'I' for Inactive)
REMARK    1  A    between atoms: C_2  and  C_3
REMARK    2  A    between atoms: C_2  and  C_4
REMARK    3  A    between atoms: C_5  and  C_6
REMARK    4  A    between atoms: C_6  and  C_7
REMARK    5  A    between atoms: C_7  and  C_8
REMARK    6  A    between atoms: C_9  and  C_10
REMARK    7  A    between atoms: C_10  and  C_11
REMARK    8  A    between atoms: C_11  and  C_12
REMARK    9  A    between atoms: C_12  and  C_13
REMARK   10  A    between atoms: C_19  and  C_20
REMARK   11  A    between atoms: C_21  and  C_22
REMARK   12  A    between atoms: C_22  and  O_24
REMARK   13  A    between atoms: C_25  and  O_26
REMARK                            x       y       z     vdW  Elec       q    Type
REMARK                         _______ _______ _______ _____ _____    ______ ____
ROOT
ATOM      1  C   UNL     1       2.524   5.678  19.387  0.00  0.00    +0.000 C 
ATOM      2  C   UNL     1       1.709   4.431  19.018  0.00  0.00    +0.000 C 
ATOM      3  C   UNL     1       2.677   6.526  18.147  0.00  0.00    +0.000 C 
ATOM      4  C   UNL     1       2.276   7.799  18.076  0.00  0.00    +0.000 C 
ATOM      5  C   UNL     1       1.657   8.399  19.251  0.00  0.00    +0.000 A 
ATOM      6  C   UNL     1       1.459   7.614  20.384  0.00  0.00    +0.000 A 
ATOM      7  C   UNL     1       0.871   8.159  21.527  0.00  0.00    +0.000 A 
ATOM      8  C   UNL     1       0.476   9.509  21.587  0.00  0.00    +0.000 A 
ATOM      9  C   UNL     1      -0.100   9.993  22.894  0.00  0.00    +0.000 C 
ATOM     10  C   UNL     1       0.671  10.315  20.441  0.00  0.00    +0.000 A 
ATOM     11  C   UNL     1       1.265   9.747  19.286  0.00  0.00    +0.000 A 
ATOM     12  O   UNL     1       1.802   6.299  20.474  0.00  0.00    +0.000 OA
ENDROOT
BRANCH  10  13
ATOM     13  C   UNL     1       0.369  11.773  20.382  0.00  0.00    +0.000 C 
ATOM     14  O   UNL     1      -0.586  12.190  19.740  0.00  0.00    +0.000 OA
BRANCH  13  15
ATOM     15  O   UNL     1       1.130  12.583  21.137  0.00  0.00    +0.000 OA
ATOM     16  H   UNL     1       1.673  13.217  20.640  0.00  0.00    +0.000 HD
ENDBRANCH  13  15
ENDBRANCH  10  13
BRANCH  11  17
ATOM     17  O   UNL     1       1.485  10.489  18.144  0.00  0.00    +0.000 OA
ATOM     18  H   UNL     1       0.695  11.038  17.956  0.00  0.00    +0.000 HD
ENDBRANCH  11  17
BRANCH   1  19
ATOM     19  C   UNL     1       3.939   5.322  19.910  0.00  0.00    +0.000 C 
BRANCH  19  20
ATOM     20  C   UNL     1       4.641   4.260  19.056  0.00  0.00    +0.000 C 
BRANCH  20  23
ATOM     21  C   UNL     1       5.218   4.578  16.644  0.00  0.00    +0.000 C 
ATOM     22  C   UNL     1       4.108   3.651  16.221  0.00  0.00    +0.000 C 
ATOM     23  C   UNL     1       5.470   4.837  17.943  0.00  0.00    +0.000 C 
BRANCH  21  24
ATOM     24  C   UNL     1       6.061   5.175  15.541  0.00  0.00    +0.000 C 
BRANCH  24  26
ATOM     25  C   UNL     1       6.283   3.610  13.521  0.00  0.00    +0.000 C 
ATOM     26  C   UNL     1       5.763   4.682  14.149  0.00  0.00    +0.000 C 
BRANCH  25  28
ATOM     27  C   UNL     1       6.862   2.569  11.409  0.00  0.00    +0.000 C 
ATOM     28  C   UNL     1       5.932   3.157  12.181  0.00  0.00    +0.000 C 
ATOM     29  C   UNL     1       4.525   3.340  11.680  0.00  0.00    +0.000 C 
ENDBRANCH  25  28
ENDBRANCH  24  26
ENDBRANCH  21  24
ENDBRANCH  20  23
ENDBRANCH  19  20
ENDBRANCH   1  19
TORSDOF 9
ENDMDL
MODEL 4
REMARK VINA RESULT:      -7.7      2.933      4.752
REMARK  Name = 
REMARK  13 active torsions:
REMARK  status: ('A' for Active; 'I' for Inactive)
REMARK    1  A    between atoms: C_2  and  C_3
REMARK    2  A    between atoms: C_2  and  C_4
REMARK    3  A    between atoms: C_5  and  C_6
REMARK    4  A    between atoms: C_6  and  C_7
REMARK    5  A    between atoms: C_7  and  C_8
REMARK    6  A    between atoms: C_9  and  C_10
REMARK    7  A    between atoms: C_10  and  C_11
REMARK    8  A    between atoms: C_11  and  C_12
REMARK    9  A    between atoms: C_12  and  C_13
REMARK   10  A    between atoms: C_19  and  C_20
REMARK   11  A    between atoms: C_21  and  C_22
REMARK   12  A    between atoms: C_22  and  O_24
REMARK   13  A    between atoms: C_25  and  O_26
REMARK                            x       y       z     vdW  Elec       q    Type
REMARK                         _______ _______ _______ _____ _____    ______ ____
ROOT
ATOM      1  C   UNL     1       3.277   4.625  18.989  0.00  0.00    +0.000 C 
ATOM      2  C   UNL     1       2.499   3.332  18.708  0.00  0.00    +0.000 C 
ATOM      3  C   UNL     1       3.436   5.373  17.687  0.00  0.00    +0.000 C 
ATOM      4  C   UNL     1       3.007   6.625  17.503  0.00  0.00    +0.000 C 
ATOM      5  C   UNL     1       2.349   7.303  18.613  0.00  0.00    +0.000 A 
ATOM      6  C   UNL     1       2.146   6.609  19.803  0.00  0.00    +0.000 A 
ATOM      7  C   UNL     1       1.521   7.231  20.886  0.00  0.00    +0.000 A 
ATOM      8  C   UNL     1       1.095   8.571  20.827  0.00  0.00    +0.000 A 
ATOM      9  C   UNL     1       0.480   9.145  22.078  0.00  0.00    +0.000 C 
ATOM     10  C   UNL     1       1.294   9.285  19.623  0.00  0.00    +0.000 A 
ATOM     11  C   UNL     1       1.926   8.639  18.530  0.00  0.00    +0.000 A 
ATOM     12  O   UNL     1       2.518   5.314  20.007  0.00  0.00    +0.000 OA
ENDROOT
BRANCH  10  13
ATOM     13  C   UNL     1       0.961  10.725  19.438  0.00  0.00    +0.000 C 
ATOM     14  O   UNL     1       1.453  11.581  20.160  0.00  0.00    +0.000 OA
BRANCH  13  15
ATOM     15  O   UNL     1       0.179  11.039  18.391  0.00  0.00    +0.000 OA
ATOM     16  H   UNL     1       0.313  10.492  17.600  0.00  0.00    +0.000 HD
ENDBRANCH  13  15
ENDBRANCH  10  13
BRANCH  11  17
ATOM     17  O   UNL     1       2.153   9.291  17.335  0.00  0.00    +0.000 OA
ATOM     18  H   UNL     1       1.911  10.236  17.429  0.00  0.00    +0.000 HD
ENDBRANCH  11  17
BRANCH   1  19
ATOM     19  C   UNL     1       4.688   4.348  19.566  0.00  0.00    +0.000 C 
BRANCH  19  20
ATOM     20  C   UNL     1       5.813   4.679  18.580  0.00  0.00    +0.000 C 
BRANCH  20  23
ATOM     21  C   UNL     1       7.430   6.575  18.363  0.00  0.00    +0.000 C 
ATOM     22  C   UNL     1       7.159   6.682  16.884  0.00  0.00    +0.000 C 
ATOM     23  C   UNL     1       6.827   5.644  19.129  0.00  0.00    +0.000 C 
BRANCH  21  24
ATOM     24  C   UNL     1       8.441   7.539  18.938  0.00  0.00    +0.000 C 
BRANCH  24  26
ATOM     25  C   UNL     1       9.081  10.013  18.725  0.00  0.00    +0.000 C 
ATOM     26  C   UNL     1       8.535   8.877  18.252  0.00  0.00    +0.000 C 
BRANCH  25  28
ATOM     27  C   UNL     1       8.058  11.901  17.598  0.00  0.00    +0.000 C 
ATOM     28  C   UNL     1       9.177  11.275  18.003  0.00  0.00    +0.000 C 
ATOM     29  C   UNL     1      10.530  11.872  17.728  0.00  0.00    +0.000 C 
ENDBRANCH  25  28
ENDBRANCH  24  26
ENDBRANCH  21  24
ENDBRANCH  20  23
ENDBRANCH  19  20
ENDBRANCH   1  19
TORSDOF 9
ENDMDL
MODEL 5
REMARK VINA RESULT:      -7.7      1.063      1.282
REMARK  Name = 
REMARK  13 active torsions:
REMARK  status: ('A' for Active; 'I' for Inactive)
REMARK    1  A    between atoms: C_2  and  C_3
REMARK    2  A    between atoms: C_2  and  C_4
REMARK    3  A    between atoms: C_5  and  C_6
REMARK    4  A    between atoms: C_6  and  C_7
REMARK    5  A    between atoms: C_7  and  C_8
REMARK    6  A    between atoms: C_9  and  C_10
REMARK    7  A    between atoms: C_10  and  C_11
REMARK    8  A    between atoms: C_11  and  C_12
REMARK    9  A    between atoms: C_12  and  C_13
REMARK   10  A    between atoms: C_19  and  C_20
REMARK   11  A    between atoms: C_21  and  C_22
REMARK   12  A    between atoms: C_22  and  O_24
REMARK   13  A    between atoms: C_25  and  O_26
REMARK                            x       y       z     vdW  Elec       q    Type
REMARK                         _______ _______ _______ _____ _____    ______ ____
ROOT
ATOM      1  C   UNL     1       2.557   6.759  18.568  0.00  0.00    +0.000 C 
ATOM      2  C   UNL     1       1.926   5.456  18.059  0.00  0.00    +0.000 C 
ATOM      3  C   UNL     1       2.256   7.851  17.569  0.00  0.00    +0.000 C 
ATOM      4  C   UNL     1       1.619   8.981  17.889  0.00  0.00    +0.000 C 
ATOM      5  C   UNL     1       1.189   9.170  19.269  0.00  0.00    +0.000 A 
ATOM      6  C   UNL     1       1.411   8.150  20.189  0.00  0.00    +0.000 A 
ATOM      7  C   UNL     1       1.013   8.299  21.520  0.00  0.00    +0.000 A 
ATOM      8  C   UNL     1       0.399   9.479  21.982  0.00  0.00    +0.000 A 
ATOM      9  C   UNL     1       0.062   9.540  23.450  0.00  0.00    +0.000 C 
ATOM     10  C   UNL     1       0.167  10.521  21.054  0.00  0.00    +0.000 A 
ATOM     11  C   UNL     1       0.572  10.352  19.706  0.00  0.00    +0.000 A 
ATOM     12  O   UNL     1       2.005   6.961  19.887  0.00  0.00    +0.000 OA
ENDROOT
BRANCH  10  13
ATOM     13  C   UNL     1      -0.407  11.848  21.413  0.00  0.00    +0.000 C 
ATOM     14  O   UNL     1       0.266  12.684  22.001  0.00  0.00    +0.000 OA
BRANCH  13  15
ATOM     15  O   UNL     1      -1.650  12.112  20.977  0.00  0.00    +0.000 OA
ATOM     16  H   UNL     1      -1.844  11.800  20.078  0.00  0.00    +0.000 HD
ENDBRANCH  13  15
ENDBRANCH  10  13
BRANCH  11  17
ATOM     17  O   UNL     1       0.377  11.339  18.762  0.00  0.00    +0.000 OA
ATOM     18  H   UNL     1       1.187  11.434  18.217  0.00  0.00    +0.000 HD
ENDBRANCH  11  17
BRANCH   1  19
ATOM     19  C   UNL     1       4.095   6.647  18.717  0.00  0.00    +0.000 C 
BRANCH  19  20
ATOM     20  C   UNL     1       4.852   7.110  17.467  0.00  0.00    +0.000 C 
BRANCH  20  23
ATOM     21  C   UNL     1       6.684   5.482  16.967  0.00  0.00    +0.000 C 
ATOM     22  C   UNL     1       7.541   6.057  18.065  0.00  0.00    +0.000 C 
ATOM     23  C   UNL     1       5.464   5.981  16.685  0.00  0.00    +0.000 C 
BRANCH  21  24
ATOM     24  C   UNL     1       7.276   4.343  16.171  0.00  0.00    +0.000 C 
BRANCH  24  26
ATOM     25  C   UNL     1       6.241   3.610  13.942  0.00  0.00    +0.000 C 
ATOM     26  C   UNL     1       7.047   4.394  14.683  0.00  0.00    +0.000 C 
BRANCH  25  28
ATOM     27  C   UNL     1       7.025   4.164  11.715  0.00  0.00    +0.000 C 
ATOM     28  C   UNL     1       6.029   3.726  12.505  0.00  0.00    +0.000 C 
ATOM     29  C   UNL     1       4.699   3.341  11.917  0.00  0.00    +0.000 C 
ENDBRANCH  25  28
ENDBRANCH  24  26
ENDBRANCH  21  24
ENDBRANCH  20  23
ENDBRANCH  19  20
ENDBRANCH   1  19
TORSDOF 9
ENDMDL
MODEL 6
REMARK VINA RESULT:      -7.6      1.024      1.344
REMARK  Name = 
REMARK  13 active torsions:
REMARK  status: ('A' for Active; 'I' for Inactive)
REMARK    1  A    between atoms: C_2  and  C_3
REMARK    2  A    between atoms: C_2  and  C_4
REMARK    3  A    between atoms: C_5  and  C_6
REMARK    4  A    between atoms: C_6  and  C_7
REMARK    5  A    between atoms: C_7  and  C_8
REMARK    6  A    between atoms: C_9  and  C_10
REMARK    7  A    between atoms: C_10  and  C_11
REMARK    8  A    between atoms: C_11  and  C_12
REMARK    9  A    between atoms: C_12  and  C_13
REMARK   10  A    between atoms: C_19  and  C_20
REMARK   11  A    between atoms: C_21  and  C_22
REMARK   12  A    between atoms: C_22  and  O_24
REMARK   13  A    between atoms: C_25  and  O_26
REMARK                            x       y       z     vdW  Elec       q    Type
REMARK                         _______ _______ _______ _____ _____    ______ ____
ROOT
ATOM      1  C   UNL     1       2.377   5.194  19.336  0.00  0.00    +0.000 C 
ATOM      2  C   UNL     1       1.431   3.991  19.220  0.00  0.00    +0.000 C 
ATOM      3  C   UNL     1       2.475   5.850  17.979  0.00  0.00    +0.000 C 
ATOM      4  C   UNL     1       2.173   7.133  17.763  0.00  0.00    +0.000 C 
ATOM      5  C   UNL     1       1.724   7.941  18.890  0.00  0.00    +0.000 A 
ATOM      6  C   UNL     1       1.577   7.337  20.136  0.00  0.00    +0.000 A 
ATOM      7  C   UNL     1       1.151   8.083  21.237  0.00  0.00    +0.000 A 
ATOM      8  C   UNL     1       0.876   9.461  21.138  0.00  0.00    +0.000 A 
ATOM      9  C   UNL     1       0.473  10.167  22.408  0.00  0.00    +0.000 C 
ATOM     10  C   UNL     1       1.020  10.083  19.877  0.00  0.00    +0.000 A 
ATOM     11  C   UNL     1       1.449   9.312  18.767  0.00  0.00    +0.000 A 
ATOM     12  O   UNL     1       1.819   6.019  20.381  0.00  0.00    +0.000 OA
ENDROOT
BRANCH  10  13
ATOM     13  C   UNL     1       0.834  11.542  19.637  0.00  0.00    +0.000 C 
ATOM     14  O   UNL     1       1.790  12.265  19.392  0.00  0.00    +0.000 OA
BRANCH  13  15
ATOM     15  O   UNL     1      -0.430  11.998  19.608  0.00  0.00    +0.000 OA
ATOM     16  H   UNL     1      -0.936  11.857  20.424  0.00  0.00    +0.000 HD
ENDBRANCH  13  15
ENDBRANCH  10  13
BRANCH  11  17
ATOM     17  O   UNL     1       1.614   9.871  17.517  0.00  0.00    +0.000 OA
ATOM     18  H   UNL     1       0.780  10.305  17.241  0.00  0.00    +0.000 HD
ENDBRANCH  11  17
BRANCH   1  19
ATOM     19  C   UNL     1       3.803   4.778  19.778  0.00  0.00    +0.000 C 
BRANCH  19  20
ATOM     20  C   UNL     1       4.893   5.711  19.238  0.00  0.00    +0.000 C 
BRANCH  20  23
ATOM     21  C   UNL     1       6.241   5.326  17.168  0.00  0.00    +0.000 C 
ATOM     22  C   UNL     1       5.487   6.405  16.435  0.00  0.00    +0.000 C 
ATOM     23  C   UNL     1       5.951   4.999  18.443  0.00  0.00    +0.000 C 
BRANCH  21  24
ATOM     24  C   UNL     1       7.314   4.601  16.390  0.00  0.00    +0.000 C 
BRANCH  24  26
ATOM     25  C   UNL     1       6.324   3.794  14.166  0.00  0.00    +0.000 C 
ATOM     26  C   UNL     1       7.139   4.581  14.894  0.00  0.00    +0.000 C 
BRANCH  25  28
ATOM     27  C   UNL     1       5.043   3.371  12.151  0.00  0.00    +0.000 C 
ATOM     28  C   UNL     1       6.168   3.841  12.718  0.00  0.00    +0.000 C 
ATOM     29  C   UNL     1       7.264   4.428  11.871  0.00  0.00    +0.000 C 
ENDBRANCH  25  28
ENDBRANCH  24  26
ENDBRANCH  21  24
ENDBRANCH  20  23
ENDBRANCH  19  20
ENDBRANCH   1  19
TORSDOF 9
ENDMDL
MODEL 7
REMARK VINA RESULT:      -7.6      4.250      9.721
REMARK  Name = 
REMARK  13 active torsions:
REMARK  status: ('A' for Active; 'I' for Inactive)
REMARK    1  A    between atoms: C_2  and  C_3
REMARK    2  A    between atoms: C_2  and  C_4
REMARK    3  A    between atoms: C_5  and  C_6
REMARK    4  A    between atoms: C_6  and  C_7
REMARK    5  A    between atoms: C_7  and  C_8
REMARK    6  A    between atoms: C_9  and  C_10
REMARK    7  A    between atoms: C_10  and  C_11
REMARK    8  A    between atoms: C_11  and  C_12
REMARK    9  A    between atoms: C_12  and  C_13
REMARK   10  A    between atoms: C_19  and  C_20
REMARK   11  A    between atoms: C_21  and  C_22
REMARK   12  A    between atoms: C_22  and  O_24
REMARK   13  A    between atoms: C_25  and  O_26
REMARK                            x       y       z     vdW  Elec       q    Type
REMARK                         _______ _______ _______ _____ _____    ______ ____
ROOT
ATOM      1  C   UNL     1       0.790   9.737  19.202  0.00  0.00    +0.000 C 
ATOM      2  C   UNL     1       1.117  10.981  20.039  0.00  0.00    +0.000 C 
ATOM      3  C   UNL     1       1.710   9.719  18.004  0.00  0.00    +0.000 C 
ATOM      4  C   UNL     1       2.529   8.702  17.724  0.00  0.00    +0.000 C 
ATOM      5  C   UNL     1       2.539   7.551  18.620  0.00  0.00    +0.000 A 
ATOM      6  C   UNL     1       1.737   7.576  19.757  0.00  0.00    +0.000 A 
ATOM      7  C   UNL     1       1.722   6.490  20.635  0.00  0.00    +0.000 A 
ATOM      8  C   UNL     1       2.491   5.334  20.398  0.00  0.00    +0.000 A 
ATOM      9  C   UNL     1       2.351   4.208  21.391  0.00  0.00    +0.000 C 
ATOM     10  C   UNL     1       3.311   5.300  19.247  0.00  0.00    +0.000 A 
ATOM     11  C   UNL     1       3.319   6.412  18.367  0.00  0.00    +0.000 A 
ATOM     12  O   UNL     1       0.934   8.620  20.106  0.00  0.00    +0.000 OA
ENDROOT
BRANCH  10  13
ATOM     13  C   UNL     1       4.121   4.121  18.831  0.00  0.00    +0.000 C 
ATOM     14  O   UNL     1       5.315   4.056  19.093  0.00  0.00    +0.000 OA
BRANCH  13  15
ATOM     15  O   UNL     1       3.463   3.105  18.249  0.00  0.00    +0.000 OA
ATOM     16  H   UNL     1       3.070   2.464  18.864  0.00  0.00    +0.000 HD
ENDBRANCH  13  15
ENDBRANCH  10  13
BRANCH  11  17
ATOM     17  O   UNL     1       4.094   6.428  17.226  0.00  0.00    +0.000 OA
ATOM     18  H   UNL     1       4.812   5.767  17.310  0.00  0.00    +0.000 HD
ENDBRANCH  11  17
BRANCH   1  19
ATOM     19  C   UNL     1      -0.673   9.740  18.691  0.00  0.00    +0.000 C 
BRANCH  19  20
ATOM     20  C   UNL     1      -1.154  11.131  18.263  0.00  0.00    +0.000 C 
BRANCH  20  23
ATOM     21  C   UNL     1      -3.380  11.214  17.127  0.00  0.00    +0.000 C 
ATOM     22  C   UNL     1      -2.735  11.042  15.776  0.00  0.00    +0.000 C 
ATOM     23  C   UNL     1      -2.650  11.274  18.259  0.00  0.00    +0.000 C 
BRANCH  21  24
ATOM     24  C   UNL     1      -4.884  11.353  17.148  0.00  0.00    +0.000 C 
BRANCH  24  26
ATOM     25  C   UNL     1      -6.666  10.365  18.706  0.00  0.00    +0.000 C 
ATOM     26  C   UNL     1      -5.550  11.081  18.472  0.00  0.00    +0.000 C 
BRANCH  25  28
ATOM     27  C   UNL     1      -7.480   8.838  20.404  0.00  0.00    +0.000 C 
ATOM     28  C   UNL     1      -7.249  10.104  20.016  0.00  0.00    +0.000 C 
ATOM     29  C   UNL     1      -7.574  11.255  20.928  0.00  0.00    +0.000 C 
ENDBRANCH  25  28
ENDBRANCH  24  26
ENDBRANCH  21  24
ENDBRANCH  20  23
ENDBRANCH  19  20
ENDBRANCH   1  19
TORSDOF 9
ENDMDL
MODEL 8
REMARK VINA RESULT:      -7.6      2.880      4.704
REMARK  Name = 
REMARK  13 active torsions:
REMARK  status: ('A' for Active; 'I' for Inactive)
REMARK    1  A    between atoms: C_2  and  C_3
REMARK    2  A    between atoms: C_2  and  C_4
REMARK    3  A    between atoms: C_5  and  C_6
REMARK    4  A    between atoms: C_6  and  C_7
REMARK    5  A    between atoms: C_7  and  C_8
REMARK    6  A    between atoms: C_9  and  C_10
REMARK    7  A    between atoms: C_10  and  C_11
REMARK    8  A    between atoms: C_11  and  C_12
REMARK    9  A    between atoms: C_12  and  C_13
REMARK   10  A    between atoms: C_19  and  C_20
REMARK   11  A    between atoms: C_21  and  C_22
REMARK   12  A    between atoms: C_22  and  O_24
REMARK   13  A    between atoms: C_25  and  O_26
REMARK                            x       y       z     vdW  Elec       q    Type
REMARK                         _______ _______ _______ _____ _____    ______ ____
ROOT
ATOM      1  C   UNL     1       2.754   5.238  19.104  0.00  0.00    +0.000 C 
ATOM      2  C   UNL     1       1.896   4.003  18.802  0.00  0.00    +0.000 C 
ATOM      3  C   UNL     1       2.891   6.040  17.832  0.00  0.00    +0.000 C 
ATOM      4  C   UNL     1       2.522   7.320  17.729  0.00  0.00    +0.000 C 
ATOM      5  C   UNL     1       1.955   7.976  18.901  0.00  0.00    +0.000 A 
ATOM      6  C   UNL     1       1.772   7.235  20.065  0.00  0.00    +0.000 A 
ATOM      7  C   UNL     1       1.233   7.833  21.207  0.00  0.00    +0.000 A 
ATOM      8  C   UNL     1       0.877   9.195  21.232  0.00  0.00    +0.000 A 
ATOM      9  C   UNL     1       0.354   9.737  22.538  0.00  0.00    +0.000 C 
ATOM     10  C   UNL     1       1.057   9.956  20.054  0.00  0.00    +0.000 A 
ATOM     11  C   UNL     1       1.600   9.334  18.902  0.00  0.00    +0.000 A 
ATOM     12  O   UNL     1       2.083   5.914  20.190  0.00  0.00    +0.000 OA
ENDROOT
BRANCH  10  13
ATOM     13  C   UNL     1       0.792  11.419  19.954  0.00  0.00    +0.000 C 
ATOM     14  O   UNL     1      -0.042  11.854  19.171  0.00  0.00    +0.000 OA
BRANCH  13  15
ATOM     15  O   UNL     1       1.437  12.215  20.824  0.00  0.00    +0.000 OA
ATOM     16  H   UNL     1       0.864  12.793  21.353  0.00  0.00    +0.000 HD
ENDBRANCH  13  15
ENDBRANCH  10  13
BRANCH  11  17
ATOM     17  O   UNL     1       1.804  10.031  17.730  0.00  0.00    +0.000 OA
ATOM     18  H   UNL     1       0.940  10.214  17.304  0.00  0.00    +0.000 HD
ENDBRANCH  11  17
BRANCH   1  19
ATOM     19  C   UNL     1       4.175   4.860  19.596  0.00  0.00    +0.000 C 
BRANCH  19  20
ATOM     20  C   UNL     1       5.216   4.862  18.472  0.00  0.00    +0.000 C 
BRANCH  20  23
ATOM     21  C   UNL     1       6.956   6.630  18.156  0.00  0.00    +0.000 C 
ATOM     22  C   UNL     1       6.240   7.166  16.944  0.00  0.00    +0.000 C 
ATOM     23  C   UNL     1       6.494   5.564  18.839  0.00  0.00    +0.000 C 
BRANCH  21  24
ATOM     24  C   UNL     1       8.239   7.325  18.548  0.00  0.00    +0.000 C 
BRANCH  24  26
ATOM     25  C   UNL     1       9.074   9.737  18.793  0.00  0.00    +0.000 C 
ATOM     26  C   UNL     1       8.326   8.788  18.199  0.00  0.00    +0.000 C 
BRANCH  25  28
ATOM     27  C   UNL     1      10.160  11.905  18.825  0.00  0.00    +0.000 C 
ATOM     28  C   UNL     1       9.147  11.136  18.391  0.00  0.00    +0.000 C 
ATOM     29  C   UNL     1       8.091  11.704  17.480  0.00  0.00    +0.000 C 
ENDBRANCH  25  28
ENDBRANCH  24  26
ENDBRANCH  21  24
ENDBRANCH  20  23
ENDBRANCH  19  20
ENDBRANCH   1  19
TORSDOF 9
ENDMDL
MODEL 9
REMARK VINA RESULT:      -7.5      3.364      5.443
REMARK  Name = 
REMARK  13 active torsions:
REMARK  status: ('A' for Active; 'I' for Inactive)
REMARK    1  A    between atoms: C_2  and  C_3
REMARK    2  A    between atoms: C_2  and  C_4
REMARK    3  A    between atoms: C_5  and  C_6
REMARK    4  A    between atoms: C_6  and  C_7
REMARK    5  A    between atoms: C_7  and  C_8
REMARK    6  A    between atoms: C_9  and  C_10
REMARK    7  A    between atoms: C_10  and  C_11
REMARK    8  A    between atoms: C_11  and  C_12
REMARK    9  A    between atoms: C_12  and  C_13
REMARK   10  A    between atoms: C_19  and  C_20
REMARK   11  A    between atoms: C_21  and  C_22
REMARK   12  A    between atoms: C_22  and  O_24
REMARK   13  A    between atoms: C_25  and  O_26
REMARK                            x       y       z     vdW  Elec       q    Type
REMARK                         _______ _______ _______ _____ _____    ______ ____
ROOT
ATOM      1  C   UNL     1       3.958   5.404  18.174  0.00  0.00    +0.000 C 
ATOM      2  C   UNL     1       3.431   4.045  17.693  0.00  0.00    +0.000 C 
ATOM      3  C   UNL     1       3.915   6.365  17.011  0.00  0.00    +0.000 C 
ATOM      4  C   UNL     1       3.247   7.522  17.041  0.00  0.00    +0.000 C 
ATOM      5  C   UNL     1       2.520   7.873  18.254  0.00  0.00    +0.000 A 
ATOM      6  C   UNL     1       2.505   6.973  19.315  0.00  0.00    +0.000 A 
ATOM      7  C   UNL     1       1.820   7.279  20.493  0.00  0.00    +0.000 A 
ATOM      8  C   UNL     1       1.142   8.502  20.660  0.00  0.00    +0.000 A 
ATOM      9  C   UNL     1       0.483   8.738  21.995  0.00  0.00    +0.000 C 
ATOM     10  C   UNL     1       1.150   9.423  19.587  0.00  0.00    +0.000 A 
ATOM     11  C   UNL     1       1.846   9.096  18.396  0.00  0.00    +0.000 A 
ATOM     12  O   UNL     1       3.126   5.760  19.300  0.00  0.00    +0.000 OA
ENDROOT
BRANCH  10  13
ATOM     13  C   UNL     1       0.539  10.781  19.646  0.00  0.00    +0.000 C 
ATOM     14  O   UNL     1      -0.673  10.928  19.569  0.00  0.00    +0.000 OA
BRANCH  13  15
ATOM     15  O   UNL     1       1.368  11.812  19.881  0.00  0.00    +0.000 OA
ATOM     16  H   UNL     1       1.236  12.259  20.733  0.00  0.00    +0.000 HD
ENDBRANCH  13  15
ENDBRANCH  10  13
BRANCH  11  17
ATOM     17  O   UNL     1       1.892   9.961  17.323  0.00  0.00    +0.000 OA
ATOM     18  H   UNL     1       2.041  10.875  17.646  0.00  0.00    +0.000 HD
ENDBRANCH  11  17
BRANCH   1  19
ATOM     19  C   UNL     1       5.420   5.319  18.682  0.00  0.00    +0.000 C 
BRANCH  19  20
ATOM     20  C   UNL     1       6.452   5.527  17.569  0.00  0.00    +0.000 C 
BRANCH  20  23
ATOM     21  C   UNL     1       7.721   7.628  18.048  0.00  0.00    +0.000 C 
ATOM     22  C   UNL     1       8.456   6.966  19.184  0.00  0.00    +0.000 C 
ATOM     23  C   UNL     1       6.791   6.971  17.326  0.00  0.00    +0.000 C 
BRANCH  21  24
ATOM     24  C   UNL     1       8.050   9.078  17.781  0.00  0.00    +0.000 C 
BRANCH  24  26
ATOM     25  C   UNL     1       9.744  10.830  18.580  0.00  0.00    +0.000 C 
ATOM     26  C   UNL     1       8.992   9.728  18.761  0.00  0.00    +0.000 C 
BRANCH  25  28
ATOM     27  C   UNL     1      11.896  11.706  19.273  0.00  0.00    +0.000 C 
ATOM     28  C   UNL     1      10.615  11.438  19.578  0.00  0.00    +0.000 C 
ATOM     29  C   UNL     1      10.066  11.771  20.939  0.00  0.00    +0.000 C 
ENDBRANCH  25  28
ENDBRANCH  24  26
ENDBRANCH  21  24
ENDBRANCH  20  23
ENDBRANCH  19  20
ENDBRANCH   1  19
TORSDOF 9
ENDMDL
