MODEL 1
REMARK VINA RESULT:      -8.0      0.000      0.000
REMARK  Name = 
REMARK  3 active torsions:
REMARK  status: ('A' for Active; 'I' for Inactive)
REMARK    1  A    between atoms: C_4  and  N_5
REMARK    2  A    between atoms: N_8  and  C_9
REMARK    3  A    between atoms: C_9  and  C_10
REMARK                            x       y       z     vdW  Elec       q    Type
REMARK                         _______ _______ _______ _____ _____    ______ ____
ROOT
ATOM      1  C   UNL     1       3.060   7.134  17.899  0.00  0.00    +0.000 A 
ATOM      2  C   UNL     1       2.172   6.065  17.810  0.00  0.00    +0.000 A 
ATOM      3  N   UNL     1       2.934   4.965  18.136  0.00  0.00    +0.000 N 
ATOM      4  C   UNL     1       2.658   4.027  19.188  0.00  0.00    +0.000 A 
ATOM      5  C   UNL     1       1.546   4.246  20.005  0.00  0.00    +0.000 A 
ATOM      6  C   UNL     1       1.439   3.539  21.201  0.00  0.00    +0.000 A 
ATOM      7  C   UNL     1       2.428   2.628  21.547  0.00  0.00    +0.000 A 
ATOM      8  C   UNL     1       3.481   2.444  20.670  0.00  0.00    +0.000 A 
ATOM      9  N   UNL     1       3.612   3.113  19.503  0.00  0.00    +0.000 NA
ATOM     10  C   UNL     1       4.164   5.156  17.537  0.00  0.00    +0.000 A 
ATOM     11  C   UNL     1       5.155   4.247  17.142  0.00  0.00    +0.000 A 
ATOM     12  C   UNL     1       6.403   4.764  16.817  0.00  0.00    +0.000 A 
ATOM     13  C   UNL     1       6.664   6.129  16.933  0.00  0.00    +0.000 A 
ATOM     14  C   UNL     1       5.657   7.032  17.337  0.00  0.00    +0.000 A 
ATOM     15  C   UNL     1       4.348   6.557  17.571  0.00  0.00    +0.000 A 
ENDROOT
BRANCH   1  16
ATOM     16  C   UNL     1       2.664   8.535  18.304  0.00  0.00    +0.000 C 
BRANCH  16  20
ATOM     17  N   UNL     1       0.661  11.013  20.345  0.00  0.00    +0.000 N 
ATOM     18  C   UNL     1       1.409   9.912  20.961  0.00  0.00    +0.000 C 
ATOM     19  C   UNL     1       1.095   8.591  20.200  0.00  0.00    +0.000 C 
ATOM     20  N   UNL     1       1.260   8.611  18.722  0.00  0.00    +0.000 NA
ATOM     21  C   UNL     1       0.576   9.809  18.185  0.00  0.00    +0.000 C 
ATOM     22  C   UNL     1       0.905  11.147  18.896  0.00  0.00    +0.000 C 
BRANCH  17  26
ATOM     23  C   UNL     1      -0.303  14.413  22.660  0.00  0.00    +0.000 A 
ATOM     24  C   UNL     1       0.716  14.490  21.713  0.00  0.00    +0.000 A 
ATOM     25  C   UNL     1       1.039  13.373  20.927  0.00  0.00    +0.000 A 
ATOM     26  C   UNL     1       0.344  12.163  21.056  0.00  0.00    +0.000 A 
ATOM     27  C   UNL     1      -0.687  12.122  22.008  0.00  0.00    +0.000 A 
ATOM     28  C   UNL     1      -1.006  13.224  22.808  0.00  0.00    +0.000 A 
ENDBRANCH  17  26
ENDBRANCH  16  20
ENDBRANCH   1  16
TORSDOF 3
ENDMDL
MODEL 2
REMARK VINA RESULT:      -7.9      1.796      4.018
REMARK  Name = 
REMARK  3 active torsions:
REMARK  status: ('A' for Active; 'I' for Inactive)
REMARK    1  A    between atoms: C_4  and  N_5
REMARK    2  A    between atoms: N_8  and  C_9
REMARK    3  A    between atoms: C_9  and  C_10
REMARK                            x       y       z     vdW  Elec       q    Type
REMARK                         _______ _______ _______ _____ _____    ______ ____
ROOT
ATOM      1  C   UNL     1       2.541   5.974  18.415  0.00  0.00    +0.000 A 
ATOM      2  C   UNL     1       3.928   6.055  18.501  0.00  0.00    +0.000 A 
ATOM      3  N   UNL     1       4.371   4.889  17.917  0.00  0.00    +0.000 N 
ATOM      4  C   UNL     1       5.277   4.792  16.807  0.00  0.00    +0.000 A 
ATOM      5  C   UNL     1       5.736   5.970  16.212  0.00  0.00    +0.000 A 
ATOM      6  C   UNL     1       6.355   5.898  14.965  0.00  0.00    +0.000 A 
ATOM      7  C   UNL     1       6.511   4.663  14.350  0.00  0.00    +0.000 A 
ATOM      8  C   UNL     1       6.059   3.540  15.018  0.00  0.00    +0.000 A 
ATOM      9  N   UNL     1       5.458   3.577  16.227  0.00  0.00    +0.000 NA
ATOM     10  C   UNL     1       3.507   3.896  18.334  0.00  0.00    +0.000 A 
ATOM     11  C   UNL     1       3.673   2.509  18.444  0.00  0.00    +0.000 A 
ATOM     12  C   UNL     1       2.530   1.741  18.633  0.00  0.00    +0.000 A 
ATOM     13  C   UNL     1       1.268   2.334  18.660  0.00  0.00    +0.000 A 
ATOM     14  C   UNL     1       1.116   3.733  18.543  0.00  0.00    +0.000 A 
ATOM     15  C   UNL     1       2.263   4.553  18.456  0.00  0.00    +0.000 A 
ENDROOT
BRANCH   1  16
ATOM     16  C   UNL     1       1.629   7.170  18.267  0.00  0.00    +0.000 C 
BRANCH  16  20
ATOM     17  N   UNL     1       0.135  10.161  20.039  0.00  0.00    +0.000 N 
ATOM     18  C   UNL     1       0.291  10.110  18.581  0.00  0.00    +0.000 C 
ATOM     19  C   UNL     1       1.731   9.630  18.237  0.00  0.00    +0.000 C 
ATOM     20  N   UNL     1       2.194   8.373  18.885  0.00  0.00    +0.000 NA
ATOM     21  C   UNL     1       1.901   8.454  20.334  0.00  0.00    +0.000 C 
ATOM     22  C   UNL     1       0.459   8.886  20.706  0.00  0.00    +0.000 C 
BRANCH  17  26
ATOM     23  C   UNL     1      -2.604  12.731  21.973  0.00  0.00    +0.000 A 
ATOM     24  C   UNL     1      -2.588  12.662  20.582  0.00  0.00    +0.000 A 
ATOM     25  C   UNL     1      -1.693  11.804  19.925  0.00  0.00    +0.000 A 
ATOM     26  C   UNL     1      -0.808  10.984  20.640  0.00  0.00    +0.000 A 
ATOM     27  C   UNL     1      -0.858  11.067  22.040  0.00  0.00    +0.000 A 
ATOM     28  C   UNL     1      -1.736  11.931  22.704  0.00  0.00    +0.000 A 
ENDBRANCH  17  26
ENDBRANCH  16  20
ENDBRANCH   1  16
TORSDOF 3
ENDMDL
MODEL 3
REMARK VINA RESULT:      -7.9      1.788      4.036
REMARK  Name = 
REMARK  3 active torsions:
REMARK  status: ('A' for Active; 'I' for Inactive)
REMARK    1  A    between atoms: C_4  and  N_5
REMARK    2  A    between atoms: N_8  and  C_9
REMARK    3  A    between atoms: C_9  and  C_10
REMARK                            x       y       z     vdW  Elec       q    Type
REMARK                         _______ _______ _______ _____ _____    ______ ____
ROOT
ATOM      1  C   UNL     1       2.115   5.858  19.997  0.00  0.00    +0.000 A 
ATOM      2  C   UNL     1       3.483   6.081  19.865  0.00  0.00    +0.000 A 
ATOM      3  N   UNL     1       3.909   5.077  19.024  0.00  0.00    +0.000 N 
ATOM      4  C   UNL     1       4.604   5.256  17.780  0.00  0.00    +0.000 A 
ATOM      5  C   UNL     1       4.847   6.556  17.330  0.00  0.00    +0.000 A 
ATOM      6  C   UNL     1       5.233   6.750  16.005  0.00  0.00    +0.000 A 
ATOM      7  C   UNL     1       5.378   5.651  15.168  0.00  0.00    +0.000 A 
ATOM      8  C   UNL     1       5.151   4.394  15.697  0.00  0.00    +0.000 A 
ATOM      9  N   UNL     1       4.778   4.174  16.977  0.00  0.00    +0.000 NA
ATOM     10  C   UNL     1       3.221   3.940  19.399  0.00  0.00    +0.000 A 
ATOM     11  C   UNL     1       3.519   2.580  19.239  0.00  0.00    +0.000 A 
ATOM     12  C   UNL     1       2.498   1.669  19.479  0.00  0.00    +0.000 A 
ATOM     13  C   UNL     1       1.217   2.104  19.815  0.00  0.00    +0.000 A 
ATOM     14  C   UNL     1       0.930   3.478  19.968  0.00  0.00    +0.000 A 
ATOM     15  C   UNL     1       1.969   4.426  19.837  0.00  0.00    +0.000 A 
ENDROOT
BRANCH   1  16
ATOM     16  C   UNL     1       1.094   6.952  20.210  0.00  0.00    +0.000 C 
BRANCH  16  20
ATOM     17  N   UNL     1      -0.230  10.352  21.213  0.00  0.00    +0.000 N 
ATOM     18  C   UNL     1      -0.109   9.939  19.810  0.00  0.00    +0.000 C 
ATOM     19  C   UNL     1       1.301   9.322  19.578  0.00  0.00    +0.000 C 
ATOM     20  N   UNL     1       1.724   8.242  20.509  0.00  0.00    +0.000 NA
ATOM     21  C   UNL     1       1.467   8.687  21.897  0.00  0.00    +0.000 C 
ATOM     22  C   UNL     1       0.054   9.265  22.168  0.00  0.00    +0.000 C 
BRANCH  17  26
ATOM     23  C   UNL     1      -3.060  13.303  22.275  0.00  0.00    +0.000 A 
ATOM     24  C   UNL     1      -2.481  12.515  23.267  0.00  0.00    +0.000 A 
ATOM     25  C   UNL     1      -1.530  11.539  22.932  0.00  0.00    +0.000 A 
ATOM     26  C   UNL     1      -1.123  11.340  21.605  0.00  0.00    +0.000 A 
ATOM     27  C   UNL     1      -1.714  12.160  20.630  0.00  0.00    +0.000 A 
ATOM     28  C   UNL     1      -2.674  13.125  20.952  0.00  0.00    +0.000 A 
ENDBRANCH  17  26
ENDBRANCH  16  20
ENDBRANCH   1  16
TORSDOF 3
ENDMDL
MODEL 4
REMARK VINA RESULT:      -7.8      3.374      9.029
REMARK  Name = 
REMARK  3 active torsions:
REMARK  status: ('A' for Active; 'I' for Inactive)
REMARK    1  A    between atoms: C_4  and  N_5
REMARK    2  A    between atoms: N_8  and  C_9
REMARK    3  A    between atoms: C_9  and  C_10
REMARK                            x       y       z     vdW  Elec       q    Type
REMARK                         _______ _______ _______ _____ _____    ______ ____
ROOT
ATOM      1  C   UNL     1      -1.459  10.591  19.162  0.00  0.00    +0.000 A 
ATOM      2  C   UNL     1      -1.830  11.885  19.517  0.00  0.00    +0.000 A 
ATOM      3  N   UNL     1      -3.056  12.062  18.915  0.00  0.00    +0.000 N 
ATOM      4  C   UNL     1      -4.278  12.422  19.577  0.00  0.00    +0.000 A 
ATOM      5  C   UNL     1      -4.268  12.571  20.966  0.00  0.00    +0.000 A 
ATOM      6  C   UNL     1      -5.482  12.612  21.649  0.00  0.00    +0.000 A 
ATOM      7  C   UNL     1      -6.670  12.517  20.935  0.00  0.00    +0.000 A 
ATOM      8  C   UNL     1      -6.597  12.405  19.559  0.00  0.00    +0.000 A 
ATOM      9  N   UNL     1      -5.436  12.364  18.869  0.00  0.00    +0.000 NA
ATOM     10  C   UNL     1      -2.965  11.468  17.671  0.00  0.00    +0.000 A 
ATOM     11  C   UNL     1      -3.677  11.687  16.484  0.00  0.00    +0.000 A 
ATOM     12  C   UNL     1      -3.545  10.741  15.475  0.00  0.00    +0.000 A 
ATOM     13  C   UNL     1      -2.772   9.597  15.667  0.00  0.00    +0.000 A 
ATOM     14  C   UNL     1      -2.064   9.387  16.870  0.00  0.00    +0.000 A 
ATOM     15  C   UNL     1      -2.089  10.379  17.875  0.00  0.00    +0.000 A 
ENDROOT
BRANCH   1  16
ATOM     16  C   UNL     1      -0.621   9.680  20.029  0.00  0.00    +0.000 C 
BRANCH  16  20
ATOM     17  N   UNL     1       2.388   7.818  18.689  0.00  0.00    +0.000 N 
ATOM     18  C   UNL     1       1.907   7.645  20.064  0.00  0.00    +0.000 C 
ATOM     19  C   UNL     1       1.661   9.043  20.700  0.00  0.00    +0.000 C 
ATOM     20  N   UNL     1       0.809   9.991  19.933  0.00  0.00    +0.000 NA
ATOM     21  C   UNL     1       1.285  10.027  18.532  0.00  0.00    +0.000 C 
ATOM     22  C   UNL     1       1.496   8.647  17.857  0.00  0.00    +0.000 C 
BRANCH  17  26
ATOM     23  C   UNL     1       4.520   4.767  16.690  0.00  0.00    +0.000 A 
ATOM     24  C   UNL     1       4.951   6.088  16.590  0.00  0.00    +0.000 A 
ATOM     25  C   UNL     1       4.262   7.111  17.259  0.00  0.00    +0.000 A 
ATOM     26  C   UNL     1       3.139   6.838  18.054  0.00  0.00    +0.000 A 
ATOM     27  C   UNL     1       2.738   5.496  18.145  0.00  0.00    +0.000 A 
ATOM     28  C   UNL     1       3.409   4.470  17.470  0.00  0.00    +0.000 A 
ENDBRANCH  17  26
ENDBRANCH  16  20
ENDBRANCH   1  16
TORSDOF 3
ENDMDL
MODEL 5
REMARK VINA RESULT:      -7.7      1.361      1.767
REMARK  Name = 
REMARK  3 active torsions:
REMARK  status: ('A' for Active; 'I' for Inactive)
REMARK    1  A    between atoms: C_4  and  N_5
REMARK    2  A    between atoms: N_8  and  C_9
REMARK    3  A    between atoms: C_9  and  C_10
REMARK                            x       y       z     vdW  Elec       q    Type
REMARK                         _______ _______ _______ _____ _____    ______ ____
ROOT
ATOM      1  C   UNL     1       2.310   6.443  17.664  0.00  0.00    +0.000 A 
ATOM      2  C   UNL     1       1.721   5.182  17.652  0.00  0.00    +0.000 A 
ATOM      3  N   UNL     1       2.674   4.359  18.209  0.00  0.00    +0.000 N 
ATOM      4  C   UNL     1       2.494   3.516  19.358  0.00  0.00    +0.000 A 
ATOM      5  C   UNL     1       1.266   3.543  20.023  0.00  0.00    +0.000 A 
ATOM      6  C   UNL     1       1.175   2.982  21.295  0.00  0.00    +0.000 A 
ATOM      7  C   UNL     1       2.299   2.400  21.866  0.00  0.00    +0.000 A 
ATOM      8  C   UNL     1       3.470   2.384  21.131  0.00  0.00    +0.000 A 
ATOM      9  N   UNL     1       3.589   2.918  19.896  0.00  0.00    +0.000 NA
ATOM     10  C   UNL     1       3.890   4.782  17.710  0.00  0.00    +0.000 A 
ATOM     11  C   UNL     1       5.111   4.113  17.551  0.00  0.00    +0.000 A 
ATOM     12  C   UNL     1       6.232   4.885  17.274  0.00  0.00    +0.000 A 
ATOM     13  C   UNL     1       6.143   6.275  17.209  0.00  0.00    +0.000 A 
ATOM     14  C   UNL     1       4.907   6.936  17.375  0.00  0.00    +0.000 A 
ATOM     15  C   UNL     1       3.729   6.176  17.552  0.00  0.00    +0.000 A 
ENDROOT
BRANCH   1  16
ATOM     16  C   UNL     1       1.543   7.737  17.816  0.00  0.00    +0.000 C 
BRANCH  16  20
ATOM     17  N   UNL     1       0.262  10.248  20.340  0.00  0.00    +0.000 N 
ATOM     18  C   UNL     1       0.475  10.592  18.930  0.00  0.00    +0.000 C 
ATOM     19  C   UNL     1       1.877  10.082  18.486  0.00  0.00    +0.000 C 
ATOM     20  N   UNL     1       2.191   8.654  18.758  0.00  0.00    +0.000 NA
ATOM     21  C   UNL     1       1.845   8.355  20.166  0.00  0.00    +0.000 C 
ATOM     22  C   UNL     1       0.436   8.811  20.624  0.00  0.00    +0.000 C 
BRANCH  17  26
ATOM     23  C   UNL     1      -2.564  12.389  22.638  0.00  0.00    +0.000 A 
ATOM     24  C   UNL     1      -1.751  11.441  23.254  0.00  0.00    +0.000 A 
ATOM     25  C   UNL     1      -0.799  10.730  22.507  0.00  0.00    +0.000 A 
ATOM     26  C   UNL     1      -0.624  10.962  21.135  0.00  0.00    +0.000 A 
ATOM     27  C   UNL     1      -1.448  11.935  20.547  0.00  0.00    +0.000 A 
ATOM     28  C   UNL     1      -2.412  12.637  21.280  0.00  0.00    +0.000 A 
ENDBRANCH  17  26
ENDBRANCH  16  20
ENDBRANCH   1  16
TORSDOF 3
ENDMDL
MODEL 6
REMARK VINA RESULT:      -7.7      1.393      1.498
REMARK  Name = 
REMARK  3 active torsions:
REMARK  status: ('A' for Active; 'I' for Inactive)
REMARK    1  A    between atoms: C_4  and  N_5
REMARK    2  A    between atoms: N_8  and  C_9
REMARK    3  A    between atoms: C_9  and  C_10
REMARK                            x       y       z     vdW  Elec       q    Type
REMARK                         _______ _______ _______ _____ _____    ______ ____
ROOT
ATOM      1  C   UNL     1       2.572   7.121  18.171  0.00  0.00    +0.000 A 
ATOM      2  C   UNL     1       1.700   6.036  18.168  0.00  0.00    +0.000 A 
ATOM      3  N   UNL     1       2.526   4.939  18.282  0.00  0.00    +0.000 N 
ATOM      4  C   UNL     1       2.455   3.930  19.301  0.00  0.00    +0.000 A 
ATOM      5  C   UNL     1       1.500   4.067  20.312  0.00  0.00    +0.000 A 
ATOM      6  C   UNL     1       1.617   3.283  21.459  0.00  0.00    +0.000 A 
ATOM      7  C   UNL     1       2.666   2.380  21.566  0.00  0.00    +0.000 A 
ATOM      8  C   UNL     1       3.551   2.281  20.508  0.00  0.00    +0.000 A 
ATOM      9  N   UNL     1       3.464   3.025  19.383  0.00  0.00    +0.000 NA
ATOM     10  C   UNL     1       3.628   5.202  17.492  0.00  0.00    +0.000 A 
ATOM     11  C   UNL     1       4.549   4.347  16.871  0.00  0.00    +0.000 A 
ATOM     12  C   UNL     1       5.712   4.918  16.368  0.00  0.00    +0.000 A 
ATOM     13  C   UNL     1       5.966   6.280  16.526  0.00  0.00    +0.000 A 
ATOM     14  C   UNL     1       5.031   7.128  17.159  0.00  0.00    +0.000 A 
ATOM     15  C   UNL     1       3.791   6.602  17.586  0.00  0.00    +0.000 A 
ENDROOT
BRANCH   1  16
ATOM     16  C   UNL     1       2.230   8.482  18.730  0.00  0.00    +0.000 C 
BRANCH  16  20
ATOM     17  N   UNL     1       0.162  11.650  18.838  0.00  0.00    +0.000 N 
ATOM     18  C   UNL     1      -0.446  10.314  18.847  0.00  0.00    +0.000 C 
ATOM     19  C   UNL     1       0.200   9.450  17.727  0.00  0.00    +0.000 C 
ATOM     20  N   UNL     1       1.686   9.378  17.705  0.00  0.00    +0.000 NA
ATOM     21  C   UNL     1       2.227  10.752  17.812  0.00  0.00    +0.000 C 
ATOM     22  C   UNL     1       1.632  11.622  18.949  0.00  0.00    +0.000 C 
BRANCH  17  26
ATOM     23  C   UNL     1      -1.877  14.929  20.551  0.00  0.00    +0.000 A 
ATOM     24  C   UNL     1      -0.733  15.151  19.788  0.00  0.00    +0.000 A 
ATOM     25  C   UNL     1      -0.052  14.074  19.202  0.00  0.00    +0.000 A 
ATOM     26  C   UNL     1      -0.506  12.755  19.348  0.00  0.00    +0.000 A 
ATOM     27  C   UNL     1      -1.669  12.566  20.110  0.00  0.00    +0.000 A 
ATOM     28  C   UNL     1      -2.347  13.632  20.712  0.00  0.00    +0.000 A 
ENDBRANCH  17  26
ENDBRANCH  16  20
ENDBRANCH   1  16
TORSDOF 3
ENDMDL
MODEL 7
REMARK VINA RESULT:      -7.6      1.760      3.929
REMARK  Name = 
REMARK  3 active torsions:
REMARK  status: ('A' for Active; 'I' for Inactive)
REMARK    1  A    between atoms: C_4  and  N_5
REMARK    2  A    between atoms: N_8  and  C_9
REMARK    3  A    between atoms: C_9  and  C_10
REMARK                            x       y       z     vdW  Elec       q    Type
REMARK                         _______ _______ _______ _____ _____    ______ ____
ROOT
ATOM      1  C   UNL     1       2.292   6.604  19.588  0.00  0.00    +0.000 A 
ATOM      2  C   UNL     1       3.659   6.738  19.364  0.00  0.00    +0.000 A 
ATOM      3  N   UNL     1       4.049   5.501  18.900  0.00  0.00    +0.000 N 
ATOM      4  C   UNL     1       4.715   5.237  17.656  0.00  0.00    +0.000 A 
ATOM      5  C   UNL     1       4.968   6.306  16.792  0.00  0.00    +0.000 A 
ATOM      6  C   UNL     1       5.324   6.035  15.472  0.00  0.00    +0.000 A 
ATOM      7  C   UNL     1       5.432   4.717  15.050  0.00  0.00    +0.000 A 
ATOM      8  C   UNL     1       5.197   3.715  15.974  0.00  0.00    +0.000 A 
ATOM      9  N   UNL     1       4.853   3.945  17.260  0.00  0.00    +0.000 NA
ATOM     10  C   UNL     1       3.353   4.571  19.648  0.00  0.00    +0.000 A 
ATOM     11  C   UNL     1       3.625   3.230  19.948  0.00  0.00    +0.000 A 
ATOM     12  C   UNL     1       2.596   2.475  20.497  0.00  0.00    +0.000 A 
ATOM     13  C   UNL     1       1.331   3.027  20.691  0.00  0.00    +0.000 A 
ATOM     14  C   UNL     1       1.069   4.379  20.379  0.00  0.00    +0.000 A 
ATOM     15  C   UNL     1       2.120   5.204  19.920  0.00  0.00    +0.000 A 
ENDROOT
BRANCH   1  16
ATOM     16  C   UNL     1       1.294   7.729  19.440  0.00  0.00    +0.000 C 
BRANCH  16  20
ATOM     17  N   UNL     1      -0.464  10.687  21.015  0.00  0.00    +0.000 N 
ATOM     18  C   UNL     1      -0.176  10.619  19.578  0.00  0.00    +0.000 C 
ATOM     19  C   UNL     1       1.306  10.190  19.373  0.00  0.00    +0.000 C 
ATOM     20  N   UNL     1       1.755   8.962  20.084  0.00  0.00    +0.000 NA
ATOM     21  C   UNL     1       1.330   9.053  21.499  0.00  0.00    +0.000 C 
ATOM     22  C   UNL     1      -0.154   9.436  21.732  0.00  0.00    +0.000 C 
BRANCH  17  26
ATOM     23  C   UNL     1      -3.467  13.159  22.663  0.00  0.00    +0.000 A 
ATOM     24  C   UNL     1      -3.207  13.209  21.296  0.00  0.00    +0.000 A 
ATOM     25  C   UNL     1      -2.222  12.385  20.731  0.00  0.00    +0.000 A 
ATOM     26  C   UNL     1      -1.487  11.482  21.513  0.00  0.00    +0.000 A 
ATOM     27  C   UNL     1      -1.783  11.445  22.885  0.00  0.00    +0.000 A 
ATOM     28  C   UNL     1      -2.753  12.273  23.460  0.00  0.00    +0.000 A 
ENDBRANCH  17  26
ENDBRANCH  16  20
ENDBRANCH   1  16
TORSDOF 3
ENDMDL
MODEL 8
REMARK VINA RESULT:      -7.5      1.871      9.055
REMARK  Name = 
REMARK  3 active torsions:
REMARK  status: ('A' for Active; 'I' for Inactive)
REMARK    1  A    between atoms: C_4  and  N_5
REMARK    2  A    between atoms: N_8  and  C_9
REMARK    3  A    between atoms: C_9  and  C_10
REMARK                            x       y       z     vdW  Elec       q    Type
REMARK                         _______ _______ _______ _____ _____    ______ ____
ROOT
ATOM      1  C   UNL     1       0.967   9.232  20.338  0.00  0.00    +0.000 A 
ATOM      2  C   UNL     1       0.714   9.963  19.180  0.00  0.00    +0.000 A 
ATOM      3  N   UNL     1       0.434  11.232  19.636  0.00  0.00    +0.000 N 
ATOM      4  C   UNL     1       1.114  12.437  19.251  0.00  0.00    +0.000 A 
ATOM      5  C   UNL     1       2.193  12.343  18.368  0.00  0.00    +0.000 A 
ATOM      6  C   UNL     1       3.045  13.437  18.228  0.00  0.00    +0.000 A 
ATOM      7  C   UNL     1       2.798  14.594  18.955  0.00  0.00    +0.000 A 
ATOM      8  C   UNL     1       1.691  14.619  19.783  0.00  0.00    +0.000 A 
ATOM      9  N   UNL     1       0.845  13.576  19.939  0.00  0.00    +0.000 NA
ATOM     10  C   UNL     1      -0.329  11.073  20.776  0.00  0.00    +0.000 A 
ATOM     11  C   UNL     1      -1.245  11.927  21.405  0.00  0.00    +0.000 A 
ATOM     12  C   UNL     1      -1.649  11.595  22.692  0.00  0.00    +0.000 A 
ATOM     13  C   UNL     1      -1.118  10.482  23.342  0.00  0.00    +0.000 A 
ATOM     14  C   UNL     1      -0.191   9.633  22.698  0.00  0.00    +0.000 A 
ATOM     15  C   UNL     1       0.160   9.880  21.352  0.00  0.00    +0.000 A 
ENDROOT
BRANCH   1  16
ATOM     16  C   UNL     1       1.928   8.069  20.415  0.00  0.00    +0.000 C 
BRANCH  16  20
ATOM     17  N   UNL     1       4.064   6.076  18.009  0.00  0.00    +0.000 N 
ATOM     18  C   UNL     1       3.546   7.409  17.680  0.00  0.00    +0.000 C 
ATOM     19  C   UNL     1       2.030   7.469  18.029  0.00  0.00    +0.000 C 
ATOM     20  N   UNL     1       1.639   7.049  19.402  0.00  0.00    +0.000 NA
ATOM     21  C   UNL     1       2.290   5.754  19.703  0.00  0.00    +0.000 C 
ATOM     22  C   UNL     1       3.810   5.679  19.406  0.00  0.00    +0.000 C 
BRANCH  17  26
ATOM     23  C   UNL     1       7.507   4.384  16.239  0.00  0.00    +0.000 A 
ATOM     24  C   UNL     1       6.409   4.704  15.444  0.00  0.00    +0.000 A 
ATOM     25  C   UNL     1       5.263   5.278  16.014  0.00  0.00    +0.000 A 
ATOM     26  C   UNL     1       5.193   5.562  17.386  0.00  0.00    +0.000 A 
ATOM     27  C   UNL     1       6.321   5.242  18.158  0.00  0.00    +0.000 A 
ATOM     28  C   UNL     1       7.462   4.654  17.601  0.00  0.00    +0.000 A 
ENDBRANCH  17  26
ENDBRANCH  16  20
ENDBRANCH   1  16
TORSDOF 3
ENDMDL
MODEL 9
REMARK VINA RESULT:      -7.4      2.673      5.784
REMARK  Name = 
REMARK  3 active torsions:
REMARK  status: ('A' for Active; 'I' for Inactive)
REMARK    1  A    between atoms: C_4  and  N_5
REMARK    2  A    between atoms: N_8  and  C_9
REMARK    3  A    between atoms: C_9  and  C_10
REMARK                            x       y       z     vdW  Elec       q    Type
REMARK                         _______ _______ _______ _____ _____    ______ ____
ROOT
ATOM      1  C   UNL     1       4.800   4.043  17.586  0.00  0.00    +0.000 A 
ATOM      2  C   UNL     1       4.365   4.669  16.420  0.00  0.00    +0.000 A 
ATOM      3  N   UNL     1       5.507   5.232  15.894  0.00  0.00    +0.000 N 
ATOM      4  C   UNL     1       6.036   4.996  14.580  0.00  0.00    +0.000 A 
ATOM      5  C   UNL     1       5.383   4.083  13.749  0.00  0.00    +0.000 A 
ATOM      6  C   UNL     1       6.041   3.615  12.613  0.00  0.00    +0.000 A 
ATOM      7  C   UNL     1       7.320   4.074  12.327  0.00  0.00    +0.000 A 
ATOM      8  C   UNL     1       7.886   5.002  13.181  0.00  0.00    +0.000 A 
ATOM      9  N   UNL     1       7.273   5.476  14.289  0.00  0.00    +0.000 NA
ATOM     10  C   UNL     1       6.219   5.734  16.965  0.00  0.00    +0.000 A 
ATOM     11  C   UNL     1       7.179   6.752  17.046  0.00  0.00    +0.000 A 
ATOM     12  C   UNL     1       7.919   6.842  18.218  0.00  0.00    +0.000 A 
ATOM     13  C   UNL     1       7.740   5.919  19.248  0.00  0.00    +0.000 A 
ATOM     14  C   UNL     1       6.772   4.896  19.151  0.00  0.00    +0.000 A 
ATOM     15  C   UNL     1       5.929   4.839  18.019  0.00  0.00    +0.000 A 
ENDROOT
BRANCH   1  16
ATOM     16  C   UNL     1       4.182   2.786  18.154  0.00  0.00    +0.000 C 
BRANCH  16  20
ATOM     17  N   UNL     1       2.377   5.965  19.131  0.00  0.00    +0.000 N 
ATOM     18  C   UNL     1       3.521   5.448  19.890  0.00  0.00    +0.000 C 
ATOM     19  C   UNL     1       3.313   3.928  20.155  0.00  0.00    +0.000 C 
ATOM     20  N   UNL     1       3.003   3.076  18.976  0.00  0.00    +0.000 NA
ATOM     21  C   UNL     1       1.919   3.719  18.200  0.00  0.00    +0.000 C 
ATOM     22  C   UNL     1       2.120   5.223  17.882  0.00  0.00    +0.000 C 
BRANCH  17  26
ATOM     23  C   UNL     1       1.221  10.029  19.095  0.00  0.00    +0.000 A 
ATOM     24  C   UNL     1       1.145   9.301  20.280  0.00  0.00    +0.000 A 
ATOM     25  C   UNL     1       1.538   7.954  20.312  0.00  0.00    +0.000 A 
ATOM     26  C   UNL     1       2.030   7.309  19.168  0.00  0.00    +0.000 A 
ATOM     27  C   UNL     1       2.106   8.074  17.993  0.00  0.00    +0.000 A 
ATOM     28  C   UNL     1       1.703   9.412  17.948  0.00  0.00    +0.000 A 
ENDBRANCH  17  26
ENDBRANCH  16  20
ENDBRANCH   1  16
TORSDOF 3
ENDMDL
