MODEL 1
REMARK VINA RESULT:      -7.1      0.000      0.000
REMARK  Name = 
REMARK  8 active torsions:
REMARK  status: ('A' for Active; 'I' for Inactive)
REMARK    1  A    between atoms: C_2  and  C_3
REMARK    2  A    between atoms: C_3  and  N_4
REMARK    3  A    between atoms: C_5  and  C_7
REMARK    4  A    between atoms: C_10  and  N_11
REMARK    5  A    between atoms: N_11  and  C_12
REMARK    6  A    between atoms: N_11  and  S_15
REMARK    7  A    between atoms: C_12  and  C_13
REMARK    8  A    between atoms: S_15  and  C_16
REMARK                            x       y       z     vdW  Elec       q    Type
REMARK                         _______ _______ _______ _____ _____    ______ ____
ROOT
ATOM      1  C   UNL     1       2.143   3.431  18.148  0.00  0.00    +0.000 A 
ATOM      2  C   UNL     1       2.270   4.817  17.998  0.00  0.00    +0.000 A 
ATOM      3  C   UNL     1       3.437   5.366  17.452  0.00  0.00    +0.000 A 
ATOM      4  C   UNL     1       4.475   4.535  17.025  0.00  0.00    +0.000 A 
ATOM      5  C   UNL     1       4.338   3.155  17.127  0.00  0.00    +0.000 A 
ATOM      6  C   UNL     1       3.214   2.616  17.754  0.00  0.00    +0.000 A 
ENDROOT
BRANCH   1   8
ATOM      7  N   UNL     1       0.623   3.040  20.098  0.00  0.00    +0.000 N 
ATOM      8  C   UNL     1       0.882   2.897  18.746  0.00  0.00    +0.000 C 
ATOM      9  O   UNL     1       0.082   2.283  18.040  0.00  0.00    +0.000 OA
ATOM     10  H   UNL     1      -0.294   2.706  20.372  0.00  0.00    +0.000 HD
BRANCH   7  11
ATOM     11  C   UNL     1       1.405   3.778  21.053  0.00  0.00    +0.000 C 
BRANCH  11  13
ATOM     12  C   UNL     1       3.412   2.360  21.334  0.00  0.00    +0.000 C 
ATOM     13  C   UNL     1       2.302   2.903  21.852  0.00  0.00    +0.000 C 
ENDBRANCH  11  13
ENDBRANCH   7  11
ENDBRANCH   1   8
BRANCH   4  14
ATOM     14  N   UNL     1       5.736   5.120  16.688  0.00  0.00    +0.000 N 
BRANCH  14  15
ATOM     15  S   UNL     1       6.981   4.937  17.830  0.00  0.00    +0.000 S 
ATOM     16  C   UNL     1       7.526   6.614  18.102  0.00  0.00    +0.000 C 
ATOM     17  O   UNL     1       6.378   4.483  19.068  0.00  0.00    +0.000 OA
ATOM     18  O   UNL     1       8.083   4.209  17.234  0.00  0.00    +0.000 OA
ENDBRANCH  14  15
BRANCH  14  19
ATOM     19  C   UNL     1       6.105   5.327  15.278  0.00  0.00    +0.000 C 
BRANCH  19  20
ATOM     20  C   UNL     1       5.881   4.041  14.539  0.00  0.00    +0.000 C 
ATOM     21  C   UNL     1       6.233   3.804  13.268  0.00  0.00    +0.000 C 
ENDBRANCH  19  20
ENDBRANCH  14  19
ENDBRANCH   4  14
TORSDOF 7
ENDMDL
MODEL 2
REMARK VINA RESULT:      -7.1      1.964      3.463
REMARK  Name = 
REMARK  8 active torsions:
REMARK  status: ('A' for Active; 'I' for Inactive)
REMARK    1  A    between atoms: C_2  and  C_3
REMARK    2  A    between atoms: C_3  and  N_4
REMARK    3  A    between atoms: C_5  and  C_7
REMARK    4  A    between atoms: C_10  and  N_11
REMARK    5  A    between atoms: N_11  and  C_12
REMARK    6  A    between atoms: N_11  and  S_15
REMARK    7  A    between atoms: C_12  and  C_13
REMARK    8  A    between atoms: S_15  and  C_16
REMARK                            x       y       z     vdW  Elec       q    Type
REMARK                         _______ _______ _______ _____ _____    ______ ____
ROOT
ATOM      1  C   UNL     1       2.966   5.269  19.169  0.00  0.00    +0.000 A 
ATOM      2  C   UNL     1       4.183   4.878  19.739  0.00  0.00    +0.000 A 
ATOM      3  C   UNL     1       5.395   5.272  19.159  0.00  0.00    +0.000 A 
ATOM      4  C   UNL     1       5.403   6.081  18.021  0.00  0.00    +0.000 A 
ATOM      5  C   UNL     1       4.199   6.513  17.475  0.00  0.00    +0.000 A 
ATOM      6  C   UNL     1       2.994   6.045  18.002  0.00  0.00    +0.000 A 
ENDROOT
BRANCH   1   8
ATOM      7  N   UNL     1       1.030   3.694  19.362  0.00  0.00    +0.000 N 
ATOM      8  C   UNL     1       1.701   4.814  19.821  0.00  0.00    +0.000 C 
ATOM      9  O   UNL     1       1.223   5.465  20.750  0.00  0.00    +0.000 OA
ATOM     10  H   UNL     1       0.229   3.442  19.930  0.00  0.00    +0.000 HD
BRANCH   7  11
ATOM     11  C   UNL     1       1.471   2.783  18.341  0.00  0.00    +0.000 C 
BRANCH  11  13
ATOM     12  C   UNL     1       3.632   1.595  18.150  0.00  0.00    +0.000 C 
ATOM     13  C   UNL     1       2.504   1.834  18.833  0.00  0.00    +0.000 C 
ENDBRANCH  11  13
ENDBRANCH   7  11
ENDBRANCH   1   8
BRANCH   4  14
ATOM     14  N   UNL     1       6.634   6.277  17.319  0.00  0.00    +0.000 N 
BRANCH  14  15
ATOM     15  S   UNL     1       7.185   4.970  16.385  0.00  0.00    +0.000 S 
ATOM     16  C   UNL     1       5.695   4.035  16.085  0.00  0.00    +0.000 C 
ATOM     17  O   UNL     1       7.619   5.496  15.105  0.00  0.00    +0.000 OA
ATOM     18  O   UNL     1       8.069   4.142  17.181  0.00  0.00    +0.000 OA
ENDBRANCH  14  15
BRANCH  14  19
ATOM     19  C   UNL     1       7.070   7.634  16.950  0.00  0.00    +0.000 C 
BRANCH  19  20
ATOM     20  C   UNL     1       8.062   8.105  17.973  0.00  0.00    +0.000 C 
ATOM     21  C   UNL     1       8.444   9.376  18.157  0.00  0.00    +0.000 C 
ENDBRANCH  19  20
ENDBRANCH  14  19
ENDBRANCH   4  14
TORSDOF 7
ENDMDL
MODEL 3
REMARK VINA RESULT:      -7.0      1.947      3.306
REMARK  Name = 
REMARK  8 active torsions:
REMARK  status: ('A' for Active; 'I' for Inactive)
REMARK    1  A    between atoms: C_2  and  C_3
REMARK    2  A    between atoms: C_3  and  N_4
REMARK    3  A    between atoms: C_5  and  C_7
REMARK    4  A    between atoms: C_10  and  N_11
REMARK    5  A    between atoms: N_11  and  C_12
REMARK    6  A    between atoms: N_11  and  S_15
REMARK    7  A    between atoms: C_12  and  C_13
REMARK    8  A    between atoms: S_15  and  C_16
REMARK                            x       y       z     vdW  Elec       q    Type
REMARK                         _______ _______ _______ _____ _____    ______ ____
ROOT
ATOM      1  C   UNL     1       2.981   5.448  19.593  0.00  0.00    +0.000 A 
ATOM      2  C   UNL     1       2.886   6.204  18.419  0.00  0.00    +0.000 A 
ATOM      3  C   UNL     1       4.003   6.367  17.589  0.00  0.00    +0.000 A 
ATOM      4  C   UNL     1       5.216   5.756  17.911  0.00  0.00    +0.000 A 
ATOM      5  C   UNL     1       5.307   4.964  19.050  0.00  0.00    +0.000 A 
ATOM      6  C   UNL     1       4.220   4.878  19.921  0.00  0.00    +0.000 A 
ENDROOT
BRANCH   1   8
ATOM      7  N   UNL     1       1.164   4.080  20.638  0.00  0.00    +0.000 N 
ATOM      8  C   UNL     1       1.763   5.313  20.447  0.00  0.00    +0.000 C 
ATOM      9  O   UNL     1       1.258   6.315  20.954  0.00  0.00    +0.000 OA
ATOM     10  H   UNL     1       0.393   4.103  21.296  0.00  0.00    +0.000 HD
BRANCH   7  11
ATOM     11  C   UNL     1       1.650   2.806  20.182  0.00  0.00    +0.000 C 
BRANCH  11  13
ATOM     12  C   UNL     1       2.177   2.406  17.800  0.00  0.00    +0.000 C 
ATOM     13  C   UNL     1       1.266   2.521  18.775  0.00  0.00    +0.000 C 
ENDBRANCH  11  13
ENDBRANCH   7  11
ENDBRANCH   1   8
BRANCH   4  14
ATOM     14  N   UNL     1       6.391   6.121  17.180  0.00  0.00    +0.000 N 
BRANCH  14  15
ATOM     15  S   UNL     1       7.100   4.901  16.235  0.00  0.00    +0.000 S 
ATOM     16  C   UNL     1       5.723   3.826  15.867  0.00  0.00    +0.000 C 
ATOM     17  O   UNL     1       7.514   5.500  14.981  0.00  0.00    +0.000 OA
ATOM     18  O   UNL     1       8.041   4.148  17.040  0.00  0.00    +0.000 OA
ENDBRANCH  14  15
BRANCH  14  19
ATOM     19  C   UNL     1       6.620   7.524  16.799  0.00  0.00    +0.000 C 
BRANCH  19  20
ATOM     20  C   UNL     1       7.736   8.065  17.644  0.00  0.00    +0.000 C 
ATOM     21  C   UNL     1       8.325   7.420  18.659  0.00  0.00    +0.000 C 
ENDBRANCH  19  20
ENDBRANCH  14  19
ENDBRANCH   4  14
TORSDOF 7
ENDMDL
MODEL 4
REMARK VINA RESULT:      -7.0      0.650      1.257
REMARK  Name = 
REMARK  8 active torsions:
REMARK  status: ('A' for Active; 'I' for Inactive)
REMARK    1  A    between atoms: C_2  and  C_3
REMARK    2  A    between atoms: C_3  and  N_4
REMARK    3  A    between atoms: C_5  and  C_7
REMARK    4  A    between atoms: C_10  and  N_11
REMARK    5  A    between atoms: N_11  and  C_12
REMARK    6  A    between atoms: N_11  and  S_15
REMARK    7  A    between atoms: C_12  and  C_13
REMARK    8  A    between atoms: S_15  and  C_16
REMARK                            x       y       z     vdW  Elec       q    Type
REMARK                         _______ _______ _______ _____ _____    ______ ____
ROOT
ATOM      1  C   UNL     1       2.121   3.160  18.228  0.00  0.00    +0.000 A 
ATOM      2  C   UNL     1       3.155   2.221  18.136  0.00  0.00    +0.000 A 
ATOM      3  C   UNL     1       4.420   2.605  17.675  0.00  0.00    +0.000 A 
ATOM      4  C   UNL     1       4.672   3.934  17.327  0.00  0.00    +0.000 A 
ATOM      5  C   UNL     1       3.664   4.883  17.461  0.00  0.00    +0.000 A 
ATOM      6  C   UNL     1       2.381   4.480  17.834  0.00  0.00    +0.000 A 
ENDROOT
BRANCH   1   8
ATOM      7  N   UNL     1       0.358   2.998  19.998  0.00  0.00    +0.000 N 
ATOM      8  C   UNL     1       0.787   2.696  18.717  0.00  0.00    +0.000 C 
ATOM      9  O   UNL     1       0.078   2.000  17.991  0.00  0.00    +0.000 OA
ATOM     10  H   UNL     1      -0.591   2.695  20.188  0.00  0.00    +0.000 HD
BRANCH   7  11
ATOM     11  C   UNL     1       1.019   3.847  20.951  0.00  0.00    +0.000 C 
BRANCH  11  13
ATOM     12  C   UNL     1       2.947   2.435  21.586  0.00  0.00    +0.000 C 
ATOM     13  C   UNL     1       1.825   3.079  21.935  0.00  0.00    +0.000 C 
ENDBRANCH  11  13
ENDBRANCH   7  11
ENDBRANCH   1   8
BRANCH   4  14
ATOM     14  N   UNL     1       5.889   4.254  16.648  0.00  0.00    +0.000 N 
BRANCH  14  15
ATOM     15  S   UNL     1       7.152   4.859  17.610  0.00  0.00    +0.000 S 
ATOM     16  C   UNL     1       7.263   6.566  17.101  0.00  0.00    +0.000 C 
ATOM     17  O   UNL     1       6.695   4.858  18.987  0.00  0.00    +0.000 OA
ATOM     18  O   UNL     1       8.395   4.211  17.244  0.00  0.00    +0.000 OA
ENDBRANCH  14  15
BRANCH  14  19
ATOM     19  C   UNL     1       6.232   3.581  15.384  0.00  0.00    +0.000 C 
BRANCH  19  20
ATOM     20  C   UNL     1       5.506   4.273  14.269  0.00  0.00    +0.000 C 
ATOM     21  C   UNL     1       5.541   3.915  12.979  0.00  0.00    +0.000 C 
ENDBRANCH  19  20
ENDBRANCH  14  19
ENDBRANCH   4  14
TORSDOF 7
ENDMDL
MODEL 5
REMARK VINA RESULT:      -7.0      2.499      6.619
REMARK  Name = 
REMARK  8 active torsions:
REMARK  status: ('A' for Active; 'I' for Inactive)
REMARK    1  A    between atoms: C_2  and  C_3
REMARK    2  A    between atoms: C_3  and  N_4
REMARK    3  A    between atoms: C_5  and  C_7
REMARK    4  A    between atoms: C_10  and  N_11
REMARK    5  A    between atoms: N_11  and  C_12
REMARK    6  A    between atoms: N_11  and  S_15
REMARK    7  A    between atoms: C_12  and  C_13
REMARK    8  A    between atoms: S_15  and  C_16
REMARK                            x       y       z     vdW  Elec       q    Type
REMARK                         _______ _______ _______ _____ _____    ______ ____
ROOT
ATOM      1  C   UNL     1       5.587   6.115  17.652  0.00  0.00    +0.000 A 
ATOM      2  C   UNL     1       5.723   5.571  18.934  0.00  0.00    +0.000 A 
ATOM      3  C   UNL     1       4.618   5.010  19.586  0.00  0.00    +0.000 A 
ATOM      4  C   UNL     1       3.374   4.964  18.953  0.00  0.00    +0.000 A 
ATOM      5  C   UNL     1       3.240   5.459  17.661  0.00  0.00    +0.000 A 
ATOM      6  C   UNL     1       4.321   6.098  17.050  0.00  0.00    +0.000 A 
ENDROOT
BRANCH   1   8
ATOM      7  N   UNL     1       7.554   5.976  16.109  0.00  0.00    +0.000 N 
ATOM      8  C   UNL     1       6.795   6.710  17.005  0.00  0.00    +0.000 C 
ATOM      9  O   UNL     1       7.149   7.851  17.302  0.00  0.00    +0.000 OA
ATOM     10  H   UNL     1       8.302   6.509  15.681  0.00  0.00    +0.000 HD
BRANCH   7  11
ATOM     11  C   UNL     1       7.256   4.665  15.600  0.00  0.00    +0.000 C 
BRANCH  11  13
ATOM     12  C   UNL     1       5.477   4.030  14.004  0.00  0.00    +0.000 C 
ATOM     13  C   UNL     1       6.602   4.708  14.266  0.00  0.00    +0.000 C 
ENDBRANCH  11  13
ENDBRANCH   7  11
ENDBRANCH   1   8
BRANCH   4  14
ATOM     14  N   UNL     1       2.221   4.601  19.718  0.00  0.00    +0.000 N 
BRANCH  14  15
ATOM     15  S   UNL     1       1.836   2.946  19.761  0.00  0.00    +0.000 S 
ATOM     16  C   UNL     1       1.526   2.650  21.493  0.00  0.00    +0.000 C 
ATOM     17  O   UNL     1       0.573   2.771  19.070  0.00  0.00    +0.000 OA
ATOM     18  O   UNL     1       2.998   2.167  19.384  0.00  0.00    +0.000 OA
ENDBRANCH  14  15
BRANCH  14  19
ATOM     19  C   UNL     1       1.769   5.453  20.830  0.00  0.00    +0.000 C 
BRANCH  19  20
ATOM     20  C   UNL     1       1.848   6.885  20.388  0.00  0.00    +0.000 C 
ATOM     21  C   UNL     1       1.276   7.923  21.012  0.00  0.00    +0.000 C 
ENDBRANCH  19  20
ENDBRANCH  14  19
ENDBRANCH   4  14
TORSDOF 7
ENDMDL
MODEL 6
REMARK VINA RESULT:      -6.9      2.522      6.607
REMARK  Name = 
REMARK  8 active torsions:
REMARK  status: ('A' for Active; 'I' for Inactive)
REMARK    1  A    between atoms: C_2  and  C_3
REMARK    2  A    between atoms: C_3  and  N_4
REMARK    3  A    between atoms: C_5  and  C_7
REMARK    4  A    between atoms: C_10  and  N_11
REMARK    5  A    between atoms: N_11  and  C_12
REMARK    6  A    between atoms: N_11  and  S_15
REMARK    7  A    between atoms: C_12  and  C_13
REMARK    8  A    between atoms: S_15  and  C_16
REMARK                            x       y       z     vdW  Elec       q    Type
REMARK                         _______ _______ _______ _____ _____    ______ ____
ROOT
ATOM      1  C   UNL     1       5.850   5.226  17.361  0.00  0.00    +0.000 A 
ATOM      2  C   UNL     1       5.950   4.917  18.722  0.00  0.00    +0.000 A 
ATOM      3  C   UNL     1       4.809   4.567  19.454  0.00  0.00    +0.000 A 
ATOM      4  C   UNL     1       3.562   4.495  18.828  0.00  0.00    +0.000 A 
ATOM      5  C   UNL     1       3.461   4.754  17.465  0.00  0.00    +0.000 A 
ATOM      6  C   UNL     1       4.583   5.190  16.760  0.00  0.00    +0.000 A 
ENDROOT
BRANCH   1   8
ATOM      7  N   UNL     1       7.640   6.869  16.760  0.00  0.00    +0.000 N 
ATOM      8  C   UNL     1       7.096   5.603  16.628  0.00  0.00    +0.000 C 
ATOM      9  O   UNL     1       7.623   4.796  15.861  0.00  0.00    +0.000 OA
ATOM     10  H   UNL     1       8.523   6.981  16.276  0.00  0.00    +0.000 HD
BRANCH   7  11
ATOM     11  C   UNL     1       7.201   7.907  17.653  0.00  0.00    +0.000 C 
BRANCH  11  13
ATOM     12  C   UNL     1       8.790   9.419  18.794  0.00  0.00    +0.000 C 
ATOM     13  C   UNL     1       8.133   9.064  17.682  0.00  0.00    +0.000 C 
ENDBRANCH  11  13
ENDBRANCH   7  11
ENDBRANCH   1   8
BRANCH   4  14
ATOM     14  N   UNL     1       2.389   4.363  19.635  0.00  0.00    +0.000 N 
BRANCH  14  15
ATOM     15  S   UNL     1       1.757   2.794  19.793  0.00  0.00    +0.000 S 
ATOM     16  C   UNL     1       1.610   2.596  21.561  0.00  0.00    +0.000 C 
ATOM     17  O   UNL     1       0.410   2.805  19.256  0.00  0.00    +0.000 OA
ATOM     18  O   UNL     1       2.730   1.828  19.323  0.00  0.00    +0.000 OA
ENDBRANCH  14  15
BRANCH  14  19
ATOM     19  C   UNL     1       2.103   5.343  20.696  0.00  0.00    +0.000 C 
BRANCH  19  20
ATOM     20  C   UNL     1       1.860   6.676  20.052  0.00  0.00    +0.000 C 
ATOM     21  C   UNL     1       1.658   7.828  20.705  0.00  0.00    +0.000 C 
ENDBRANCH  19  20
ENDBRANCH  14  19
ENDBRANCH   4  14
TORSDOF 7
ENDMDL
MODEL 7
REMARK VINA RESULT:      -6.9      2.359      6.635
REMARK  Name = 
REMARK  8 active torsions:
REMARK  status: ('A' for Active; 'I' for Inactive)
REMARK    1  A    between atoms: C_2  and  C_3
REMARK    2  A    between atoms: C_3  and  N_4
REMARK    3  A    between atoms: C_5  and  C_7
REMARK    4  A    between atoms: C_10  and  N_11
REMARK    5  A    between atoms: N_11  and  C_12
REMARK    6  A    between atoms: N_11  and  S_15
REMARK    7  A    between atoms: C_12  and  C_13
REMARK    8  A    between atoms: S_15  and  C_16
REMARK                            x       y       z     vdW  Elec       q    Type
REMARK                         _______ _______ _______ _____ _____    ______ ____
ROOT
ATOM      1  C   UNL     1       5.716   5.859  17.469  0.00  0.00    +0.000 A 
ATOM      2  C   UNL     1       5.883   5.368  18.769  0.00  0.00    +0.000 A 
ATOM      3  C   UNL     1       4.800   4.808  19.458  0.00  0.00    +0.000 A 
ATOM      4  C   UNL     1       3.549   4.708  18.846  0.00  0.00    +0.000 A 
ATOM      5  C   UNL     1       3.386   5.150  17.538  0.00  0.00    +0.000 A 
ATOM      6  C   UNL     1       4.442   5.789  16.888  0.00  0.00    +0.000 A 
ENDROOT
BRANCH   1   8
ATOM      7  N   UNL     1       7.555   5.770  15.773  0.00  0.00    +0.000 N 
ATOM      8  C   UNL     1       6.901   6.456  16.781  0.00  0.00    +0.000 C 
ATOM      9  O   UNL     1       7.330   7.551  17.143  0.00  0.00    +0.000 OA
ATOM     10  H   UNL     1       8.294   6.306  15.333  0.00  0.00    +0.000 HD
BRANCH   7  11
ATOM     11  C   UNL     1       7.158   4.521  15.181  0.00  0.00    +0.000 C 
BRANCH  11  13
ATOM     12  C   UNL     1       6.159   3.691  13.077  0.00  0.00    +0.000 C 
ATOM     13  C   UNL     1       6.802   4.658  13.745  0.00  0.00    +0.000 C 
ENDBRANCH  11  13
ENDBRANCH   7  11
ENDBRANCH   1   8
BRANCH   4  14
ATOM     14  N   UNL     1       2.416   4.348  19.642  0.00  0.00    +0.000 N 
BRANCH  14  15
ATOM     15  S   UNL     1       1.783   2.792  19.390  0.00  0.00    +0.000 S 
ATOM     16  C   UNL     1       3.195   1.875  18.799  0.00  0.00    +0.000 C 
ATOM     17  O   UNL     1       1.436   2.243  20.688  0.00  0.00    +0.000 OA
ATOM     18  O   UNL     1       0.806   2.832  18.321  0.00  0.00    +0.000 OA
ENDBRANCH  14  15
BRANCH  14  19
ATOM     19  C   UNL     1       2.190   4.994  20.946  0.00  0.00    +0.000 C 
BRANCH  19  20
ATOM     20  C   UNL     1       1.407   6.254  20.718  0.00  0.00    +0.000 C 
ATOM     21  C   UNL     1       1.926   7.436  20.360  0.00  0.00    +0.000 C 
ENDBRANCH  19  20
ENDBRANCH  14  19
ENDBRANCH   4  14
TORSDOF 7
ENDMDL
MODEL 8
REMARK VINA RESULT:      -6.8      0.930      1.272
REMARK  Name = 
REMARK  8 active torsions:
REMARK  status: ('A' for Active; 'I' for Inactive)
REMARK    1  A    between atoms: C_2  and  C_3
REMARK    2  A    between atoms: C_3  and  N_4
REMARK    3  A    between atoms: C_5  and  C_7
REMARK    4  A    between atoms: C_10  and  N_11
REMARK    5  A    between atoms: N_11  and  C_12
REMARK    6  A    between atoms: N_11  and  S_15
REMARK    7  A    between atoms: C_12  and  C_13
REMARK    8  A    between atoms: S_15  and  C_16
REMARK                            x       y       z     vdW  Elec       q    Type
REMARK                         _______ _______ _______ _____ _____    ______ ____
ROOT
ATOM      1  C   UNL     1       2.291   3.042  18.276  0.00  0.00    +0.000 A 
ATOM      2  C   UNL     1       2.351   4.261  17.593  0.00  0.00    +0.000 A 
ATOM      3  C   UNL     1       3.558   4.701  17.035  0.00  0.00    +0.000 A 
ATOM      4  C   UNL     1       4.708   3.915  17.132  0.00  0.00    +0.000 A 
ATOM      5  C   UNL     1       4.647   2.680  17.768  0.00  0.00    +0.000 A 
ATOM      6  C   UNL     1       3.466   2.287  18.401  0.00  0.00    +0.000 A 
ENDROOT
BRANCH   1   8
ATOM      7  N   UNL     1       0.644   2.962  20.160  0.00  0.00    +0.000 N 
ATOM      8  C   UNL     1       0.981   2.623  18.861  0.00  0.00    +0.000 C 
ATOM      9  O   UNL     1       0.209   1.931  18.198  0.00  0.00    +0.000 OA
ATOM     10  H   UNL     1      -0.297   2.688  20.418  0.00  0.00    +0.000 HD
BRANCH   7  11
ATOM     11  C   UNL     1       1.388   3.813  21.050  0.00  0.00    +0.000 C 
BRANCH  11  13
ATOM     12  C   UNL     1       2.261   6.054  20.475  0.00  0.00    +0.000 C 
ATOM     13  C   UNL     1       1.217   5.255  20.733  0.00  0.00    +0.000 C 
ENDBRANCH  11  13
ENDBRANCH   7  11
ENDBRANCH   1   8
BRANCH   4  14
ATOM     14  N   UNL     1       5.968   4.483  16.761  0.00  0.00    +0.000 N 
BRANCH  14  15
ATOM     15  S   UNL     1       6.883   5.170  18.017  0.00  0.00    +0.000 S 
ATOM     16  C   UNL     1       7.308   6.779  17.371  0.00  0.00    +0.000 C 
ATOM     17  O   UNL     1       5.992   5.389  19.141  0.00  0.00    +0.000 OA
ATOM     18  O   UNL     1       8.115   4.426  18.185  0.00  0.00    +0.000 OA
ENDBRANCH  14  15
BRANCH  14  19
ATOM     19  C   UNL     1       6.675   4.003  15.562  0.00  0.00    +0.000 C 
BRANCH  19  20
ATOM     20  C   UNL     1       5.731   4.077  14.398  0.00  0.00    +0.000 C 
ATOM     21  C   UNL     1       6.032   3.756  13.133  0.00  0.00    +0.000 C 
ENDBRANCH  19  20
ENDBRANCH  14  19
ENDBRANCH   4  14
TORSDOF 7
ENDMDL
MODEL 9
REMARK VINA RESULT:      -6.7      2.492      6.585
REMARK  Name = 
REMARK  8 active torsions:
REMARK  status: ('A' for Active; 'I' for Inactive)
REMARK    1  A    between atoms: C_2  and  C_3
REMARK    2  A    between atoms: C_3  and  N_4
REMARK    3  A    between atoms: C_5  and  C_7
REMARK    4  A    between atoms: C_10  and  N_11
REMARK    5  A    between atoms: N_11  and  C_12
REMARK    6  A    between atoms: N_11  and  S_15
REMARK    7  A    between atoms: C_12  and  C_13
REMARK    8  A    between atoms: S_15  and  C_16
REMARK                            x       y       z     vdW  Elec       q    Type
REMARK                         _______ _______ _______ _____ _____    ______ ____
ROOT
ATOM      1  C   UNL     1       5.780   6.226  17.613  0.00  0.00    +0.000 A 
ATOM      2  C   UNL     1       4.511   6.543  17.113  0.00  0.00    +0.000 A 
ATOM      3  C   UNL     1       3.360   6.173  17.819  0.00  0.00    +0.000 A 
ATOM      4  C   UNL     1       3.465   5.507  19.042  0.00  0.00    +0.000 A 
ATOM      5  C   UNL     1       4.721   5.230  19.569  0.00  0.00    +0.000 A 
ATOM      6  C   UNL     1       5.864   5.519  18.821  0.00  0.00    +0.000 A 
ENDROOT
BRANCH   1   8
ATOM      7  N   UNL     1       7.553   5.765  15.907  0.00  0.00    +0.000 N 
ATOM      8  C   UNL     1       6.976   6.635  16.816  0.00  0.00    +0.000 C 
ATOM      9  O   UNL     1       7.484   7.742  16.999  0.00  0.00    +0.000 OA
ATOM     10  H   UNL     1       8.309   6.181  15.375  0.00  0.00    +0.000 HD
BRANCH   7  11
ATOM     11  C   UNL     1       7.060   4.472  15.519  0.00  0.00    +0.000 C 
BRANCH  11  13
ATOM     12  C   UNL     1       5.382   3.984  13.770  0.00  0.00    +0.000 C 
ATOM     13  C   UNL     1       6.596   4.439  14.108  0.00  0.00    +0.000 C 
ENDBRANCH  11  13
ENDBRANCH   7  11
ENDBRANCH   1   8
BRANCH   4  14
ATOM     14  N   UNL     1       2.288   4.941  19.625  0.00  0.00    +0.000 N 
BRANCH  14  15
ATOM     15  S   UNL     1       2.097   3.261  19.457  0.00  0.00    +0.000 S 
ATOM     16  C   UNL     1       2.596   2.638  21.053  0.00  0.00    +0.000 C 
ATOM     17  O   UNL     1       0.679   2.990  19.323  0.00  0.00    +0.000 OA
ATOM     18  O   UNL     1       3.040   2.761  18.477  0.00  0.00    +0.000 OA
ENDBRANCH  14  15
BRANCH  14  19
ATOM     19  C   UNL     1       1.623   5.611  20.755  0.00  0.00    +0.000 C 
BRANCH  19  20
ATOM     20  C   UNL     1       1.846   7.089  20.623  0.00  0.00    +0.000 C 
ATOM     21  C   UNL     1       1.069   8.042  21.156  0.00  0.00    +0.000 C 
ENDBRANCH  19  20
ENDBRANCH  14  19
ENDBRANCH   4  14
TORSDOF 7
ENDMDL
