MODEL 1
REMARK VINA RESULT:      -7.4      0.000      0.000
REMARK  Name = 
REMARK  3 active torsions:
REMARK  status: ('A' for Active; 'I' for Inactive)
REMARK    1  A    between atoms: C_2  and  C_3
REMARK    2  A    between atoms: C_8  and  C_9
REMARK    3  A    between atoms: N_16  and  C_17
REMARK                            x       y       z     vdW  Elec       q    Type
REMARK                         _______ _______ _______ _____ _____    ______ ____
ROOT
ATOM      1  C   UNL     1      -0.782  13.212  19.584  0.00  0.00    +0.000 C 
ATOM      2  C   UNL     1       0.615  12.908  20.150  0.00  0.00    +0.000 C 
ATOM      3  C   UNL     1       0.790  11.442  20.551  0.00  0.00    +0.000 C 
ATOM      4  C   UNL     1       0.357  10.453  19.457  0.00  0.00    +0.000 C 
ATOM      5  C   UNL     1      -0.992  10.786  18.806  0.00  0.00    +0.000 C 
ATOM      6  C   UNL     1      -1.085  12.267  18.412  0.00  0.00    +0.000 C 
ATOM      7  C   UNL     1       0.426   9.022  19.983  0.00  0.00    +0.000 C 
ATOM      8  N   UNL     1       1.470   8.423  19.211  0.00  0.00    +0.000 N 
ATOM      9  C   UNL     1       1.845   9.267  18.184  0.00  0.00    +0.000 C 
ATOM     10  O   UNL     1       2.552   9.028  17.214  0.00  0.00    +0.000 OA
ATOM     11  O   UNL     1       1.313  10.506  18.382  0.00  0.00    +0.000 OA
ENDROOT
BRANCH   1  17
ATOM     12  C   UNL     1      -5.415  12.724  23.367  0.00  0.00    +0.000 A 
ATOM     13  C   UNL     1      -4.418  12.591  24.343  0.00  0.00    +0.000 A 
ATOM     14  C   UNL     1      -3.054  12.652  24.015  0.00  0.00    +0.000 A 
ATOM     15  C   UNL     1      -2.744  12.847  22.668  0.00  0.00    +0.000 A 
ATOM     16  N   UNL     1      -1.554  12.946  21.988  0.00  0.00    +0.000 N 
ATOM     17  C   UNL     1      -1.837  13.106  20.652  0.00  0.00    +0.000 A 
ATOM     18  N   UNL     1      -3.141  13.145  20.457  0.00  0.00    +0.000 NA
ATOM     19  C   UNL     1      -3.715  12.981  21.684  0.00  0.00    +0.000 A 
ATOM     20  C   UNL     1      -5.073  12.928  22.024  0.00  0.00    +0.000 A 
ATOM     21  H   UNL     1      -0.631  12.893  22.395  0.00  0.00    +0.000 HD
BRANCH  12  23
ATOM     22  N   UNL     1      -7.916  12.586  24.036  0.00  0.00    +0.000 NA
ATOM     23  C   UNL     1      -6.801  12.649  23.738  0.00  0.00    +0.000 C 
ENDBRANCH  12  23
ENDBRANCH   1  17
BRANCH   8  24
ATOM     24  C   UNL     1       2.083   7.192  19.551  0.00  0.00    +0.000 A 
ATOM     25  C   UNL     1       1.567   6.395  20.583  0.00  0.00    +0.000 A 
ATOM     26  C   UNL     1       2.124   5.151  20.890  0.00  0.00    +0.000 A 
ATOM     27  C   UNL     1       3.216   4.685  20.170  0.00  0.00    +0.000 A 
ATOM     28  C   UNL     1       3.742   5.456  19.137  0.00  0.00    +0.000 A 
ATOM     29  C   UNL     1       3.176   6.698  18.825  0.00  0.00    +0.000 A 
ENDBRANCH   8  24
TORSDOF 3
ENDMDL
MODEL 2
REMARK VINA RESULT:      -7.4      1.971      8.424
REMARK  Name = 
REMARK  3 active torsions:
REMARK  status: ('A' for Active; 'I' for Inactive)
REMARK    1  A    between atoms: C_2  and  C_3
REMARK    2  A    between atoms: C_8  and  C_9
REMARK    3  A    between atoms: N_16  and  C_17
REMARK                            x       y       z     vdW  Elec       q    Type
REMARK                         _______ _______ _______ _____ _____    ______ ____
ROOT
ATOM      1  C   UNL     1       1.403  10.487  18.120  0.00  0.00    +0.000 C 
ATOM      2  C   UNL     1      -0.091  10.609  17.779  0.00  0.00    +0.000 C 
ATOM      3  C   UNL     1      -0.995  10.504  19.008  0.00  0.00    +0.000 C 
ATOM      4  C   UNL     1      -0.565  11.422  20.163  0.00  0.00    +0.000 C 
ATOM      5  C   UNL     1       0.939  11.393  20.465  0.00  0.00    +0.000 C 
ATOM      6  C   UNL     1       1.779  11.525  19.187  0.00  0.00    +0.000 C 
ATOM      7  C   UNL     1      -1.424  11.156  21.396  0.00  0.00    +0.000 C 
ATOM      8  N   UNL     1      -2.168  12.365  21.565  0.00  0.00    +0.000 N 
ATOM      9  C   UNL     1      -1.684  13.342  20.717  0.00  0.00    +0.000 C 
ATOM     10  O   UNL     1      -1.926  14.541  20.711  0.00  0.00    +0.000 OA
ATOM     11  O   UNL     1      -0.845  12.786  19.797  0.00  0.00    +0.000 OA
ENDROOT
BRANCH   1  17
ATOM     12  C   UNL     1       2.349   5.023  20.416  0.00  0.00    +0.000 A 
ATOM     13  C   UNL     1       3.021   4.790  19.208  0.00  0.00    +0.000 A 
ATOM     14  C   UNL     1       3.145   5.789  18.230  0.00  0.00    +0.000 A 
ATOM     15  C   UNL     1       2.559   7.023  18.520  0.00  0.00    +0.000 A 
ATOM     16  N   UNL     1       2.468   8.202  17.820  0.00  0.00    +0.000 N 
ATOM     17  C   UNL     1       1.745   9.093  18.576  0.00  0.00    +0.000 A 
ATOM     18  N   UNL     1       1.402   8.551  19.728  0.00  0.00    +0.000 NA
ATOM     19  C   UNL     1       1.888   7.276  19.709  0.00  0.00    +0.000 A 
ATOM     20  C   UNL     1       1.778   6.274  20.682  0.00  0.00    +0.000 A 
ATOM     21  H   UNL     1       2.852   8.379  16.902  0.00  0.00    +0.000 HD
BRANCH  12  23
ATOM     22  N   UNL     1       2.141   3.130  22.175  0.00  0.00    +0.000 NA
ATOM     23  C   UNL     1       2.235   3.974  21.392  0.00  0.00    +0.000 C 
ENDBRANCH  12  23
ENDBRANCH   1  17
BRANCH   8  24
ATOM     24  C   UNL     1      -3.304  12.471  22.405  0.00  0.00    +0.000 A 
ATOM     25  C   UNL     1      -3.184  12.327  23.794  0.00  0.00    +0.000 A 
ATOM     26  C   UNL     1      -4.283  12.489  24.640  0.00  0.00    +0.000 A 
ATOM     27  C   UNL     1      -5.529  12.792  24.107  0.00  0.00    +0.000 A 
ATOM     28  C   UNL     1      -5.671  12.947  22.731  0.00  0.00    +0.000 A 
ATOM     29  C   UNL     1      -4.565  12.794  21.886  0.00  0.00    +0.000 A 
ENDBRANCH   8  24
TORSDOF 3
ENDMDL
MODEL 3
REMARK VINA RESULT:      -7.4      2.364      8.465
REMARK  Name = 
REMARK  3 active torsions:
REMARK  status: ('A' for Active; 'I' for Inactive)
REMARK    1  A    between atoms: C_2  and  C_3
REMARK    2  A    between atoms: C_8  and  C_9
REMARK    3  A    between atoms: N_16  and  C_17
REMARK                            x       y       z     vdW  Elec       q    Type
REMARK                         _______ _______ _______ _____ _____    ______ ____
ROOT
ATOM      1  C   UNL     1       0.698  12.720  18.833  0.00  0.00    +0.000 C 
ATOM      2  C   UNL     1      -0.693  12.849  18.192  0.00  0.00    +0.000 C 
ATOM      3  C   UNL     1      -1.813  12.305  19.081  0.00  0.00    +0.000 C 
ATOM      4  C   UNL     1      -1.763  12.839  20.522  0.00  0.00    +0.000 C 
ATOM      5  C   UNL     1      -0.366  12.811  21.156  0.00  0.00    +0.000 C 
ATOM      6  C   UNL     1       0.698  13.392  20.214  0.00  0.00    +0.000 C 
ATOM      7  C   UNL     1      -2.818  12.143  21.378  0.00  0.00    +0.000 C 
ATOM      8  N   UNL     1      -3.737  13.188  21.706  0.00  0.00    +0.000 N 
ATOM      9  C   UNL     1      -3.221  14.412  21.323  0.00  0.00    +0.000 C 
ATOM     10  O   UNL     1      -3.616  15.534  21.609  0.00  0.00    +0.000 OA
ATOM     11  O   UNL     1      -2.141  14.228  20.513  0.00  0.00    +0.000 OA
ENDROOT
BRANCH   1  17
ATOM     12  C   UNL     1       2.045   6.947  19.769  0.00  0.00    +0.000 A 
ATOM     13  C   UNL     1       2.522   6.995  18.452  0.00  0.00    +0.000 A 
ATOM     14  C   UNL     1       2.482   8.178  17.697  0.00  0.00    +0.000 A 
ATOM     15  C   UNL     1       1.937   9.300  18.323  0.00  0.00    +0.000 A 
ATOM     16  N   UNL     1       1.726  10.592  17.906  0.00  0.00    +0.000 N 
ATOM     17  C   UNL     1       1.121  11.279  18.932  0.00  0.00    +0.000 A 
ATOM     18  N   UNL     1       0.967  10.498  19.983  0.00  0.00    +0.000 NA
ATOM     19  C   UNL     1       1.457   9.276  19.625  0.00  0.00    +0.000 A 
ATOM     20  C   UNL     1       1.511   8.093  20.373  0.00  0.00    +0.000 A 
ATOM     21  H   UNL     1       1.959  10.969  16.998  0.00  0.00    +0.000 HD
BRANCH  12  23
ATOM     22  N   UNL     1       2.138   4.729  21.109  0.00  0.00    +0.000 NA
ATOM     23  C   UNL     1       2.096   5.717  20.510  0.00  0.00    +0.000 C 
ENDBRANCH  12  23
ENDBRANCH   1  17
BRANCH   8  24
ATOM     24  C   UNL     1      -5.028  12.953  22.240  0.00  0.00    +0.000 A 
ATOM     25  C   UNL     1      -6.096  12.599  21.404  0.00  0.00    +0.000 A 
ATOM     26  C   UNL     1      -7.359  12.305  21.922  0.00  0.00    +0.000 A 
ATOM     27  C   UNL     1      -7.578  12.367  23.292  0.00  0.00    +0.000 A 
ATOM     28  C   UNL     1      -6.530  12.709  24.143  0.00  0.00    +0.000 A 
ATOM     29  C   UNL     1      -5.262  12.994  23.622  0.00  0.00    +0.000 A 
ENDBRANCH   8  24
TORSDOF 3
ENDMDL
MODEL 4
REMARK VINA RESULT:      -7.3      7.520     10.334
REMARK  Name = 
REMARK  3 active torsions:
REMARK  status: ('A' for Active; 'I' for Inactive)
REMARK    1  A    between atoms: C_2  and  C_3
REMARK    2  A    between atoms: C_8  and  C_9
REMARK    3  A    between atoms: N_16  and  C_17
REMARK                            x       y       z     vdW  Elec       q    Type
REMARK                         _______ _______ _______ _____ _____    ______ ____
ROOT
ATOM      1  C   UNL     1       6.463   6.171  18.273  0.00  0.00    +0.000 C 
ATOM      2  C   UNL     1       7.415   5.037  17.860  0.00  0.00    +0.000 C 
ATOM      3  C   UNL     1       6.855   4.168  16.733  0.00  0.00    +0.000 C 
ATOM      4  C   UNL     1       6.334   4.981  15.537  0.00  0.00    +0.000 C 
ATOM      5  C   UNL     1       5.456   6.179  15.923  0.00  0.00    +0.000 C 
ATOM      6  C   UNL     1       6.093   7.013  17.043  0.00  0.00    +0.000 C 
ATOM      7  C   UNL     1       5.664   4.056  14.523  0.00  0.00    +0.000 C 
ATOM      8  N   UNL     1       6.517   4.128  13.377  0.00  0.00    +0.000 N 
ATOM      9  C   UNL     1       7.453   5.131  13.544  0.00  0.00    +0.000 C 
ATOM     10  O   UNL     1       8.210   5.618  12.716  0.00  0.00    +0.000 OA
ATOM     11  O   UNL     1       7.458   5.551  14.841  0.00  0.00    +0.000 OA
ENDROOT
BRANCH   1  17
ATOM     12  C   UNL     1       1.937   3.572  21.237  0.00  0.00    +0.000 A 
ATOM     13  C   UNL     1       1.219   4.711  20.846  0.00  0.00    +0.000 A 
ATOM     14  C   UNL     1       1.804   5.718  20.063  0.00  0.00    +0.000 A 
ATOM     15  C   UNL     1       3.139   5.530  19.700  0.00  0.00    +0.000 A 
ATOM     16  N   UNL     1       4.024   6.285  18.968  0.00  0.00    +0.000 N 
ATOM     17  C   UNL     1       5.232   5.629  18.949  0.00  0.00    +0.000 A 
ATOM     18  N   UNL     1       5.148   4.486  19.602  0.00  0.00    +0.000 NA
ATOM     19  C   UNL     1       3.870   4.411  20.076  0.00  0.00    +0.000 A 
ATOM     20  C   UNL     1       3.273   3.408  20.850  0.00  0.00    +0.000 A 
ATOM     21  H   UNL     1       3.827   7.176  18.534  0.00  0.00    +0.000 HD
BRANCH  12  23
ATOM     22  N   UNL     1       0.800   1.756  22.697  0.00  0.00    +0.000 NA
ATOM     23  C   UNL     1       1.307   2.565  22.045  0.00  0.00    +0.000 C 
ENDBRANCH  12  23
ENDBRANCH   1  17
BRANCH   8  24
ATOM     24  C   UNL     1       6.452   3.212  12.298  0.00  0.00    +0.000 A 
ATOM     25  C   UNL     1       7.623   2.704  11.719  0.00  0.00    +0.000 A 
ATOM     26  C   UNL     1       7.576   1.755  10.695  0.00  0.00    +0.000 A 
ATOM     27  C   UNL     1       6.349   1.301  10.227  0.00  0.00    +0.000 A 
ATOM     28  C   UNL     1       5.173   1.786  10.792  0.00  0.00    +0.000 A 
ATOM     29  C   UNL     1       5.224   2.731  11.825  0.00  0.00    +0.000 A 
ENDBRANCH   8  24
TORSDOF 3
ENDMDL
MODEL 5
REMARK VINA RESULT:      -7.1      2.408      8.651
REMARK  Name = 
REMARK  3 active torsions:
REMARK  status: ('A' for Active; 'I' for Inactive)
REMARK    1  A    between atoms: C_2  and  C_3
REMARK    2  A    between atoms: C_8  and  C_9
REMARK    3  A    between atoms: N_16  and  C_17
REMARK                            x       y       z     vdW  Elec       q    Type
REMARK                         _______ _______ _______ _____ _____    ______ ____
ROOT
ATOM      1  C   UNL     1       0.615  12.656  18.964  0.00  0.00    +0.000 C 
ATOM      2  C   UNL     1      -0.757  12.831  18.294  0.00  0.00    +0.000 C 
ATOM      3  C   UNL     1      -1.910  12.299  19.146  0.00  0.00    +0.000 C 
ATOM      4  C   UNL     1      -1.881  12.805  20.598  0.00  0.00    +0.000 C 
ATOM      5  C   UNL     1      -0.500  12.731  21.263  0.00  0.00    +0.000 C 
ATOM      6  C   UNL     1       0.600  13.301  20.357  0.00  0.00    +0.000 C 
ATOM      7  C   UNL     1      -2.972  12.121  21.416  0.00  0.00    +0.000 C 
ATOM      8  N   UNL     1      -3.873  13.183  21.744  0.00  0.00    +0.000 N 
ATOM      9  C   UNL     1      -3.318  14.400  21.396  0.00  0.00    +0.000 C 
ATOM     10  O   UNL     1      -3.691  15.526  21.694  0.00  0.00    +0.000 OA
ATOM     11  O   UNL     1      -2.224  14.203  20.606  0.00  0.00    +0.000 OA
ENDROOT
BRANCH   1  17
ATOM     12  C   UNL     1       2.433   6.941  18.715  0.00  0.00    +0.000 A 
ATOM     13  C   UNL     1       2.046   6.911  20.062  0.00  0.00    +0.000 A 
ATOM     14  C   UNL     1       1.492   8.035  20.694  0.00  0.00    +0.000 A 
ATOM     15  C   UNL     1       1.353   9.185  19.914  0.00  0.00    +0.000 A 
ATOM     16  N   UNL     1       0.876  10.445  20.185  0.00  0.00    +0.000 N 
ATOM     17  C   UNL     1       1.000  11.202  19.044  0.00  0.00    +0.000 A 
ATOM     18  N   UNL     1       1.500  10.480  18.061  0.00  0.00    +0.000 NA
ATOM     19  C   UNL     1       1.729   9.238  18.579  0.00  0.00    +0.000 A 
ATOM     20  C   UNL     1       2.272   8.108  17.955  0.00  0.00    +0.000 A 
ATOM     21  H   UNL     1       0.512  10.765  21.071  0.00  0.00    +0.000 HD
BRANCH  12  23
ATOM     22  N   UNL     1       3.462   4.835  17.607  0.00  0.00    +0.000 NA
ATOM     23  C   UNL     1       3.002   5.773  18.102  0.00  0.00    +0.000 C 
ENDBRANCH  12  23
ENDBRANCH   1  17
BRANCH   8  24
ATOM     24  C   UNL     1      -5.180  12.970  22.244  0.00  0.00    +0.000 A 
ATOM     25  C   UNL     1      -6.216  12.560  21.392  0.00  0.00    +0.000 A 
ATOM     26  C   UNL     1      -7.496  12.289  21.881  0.00  0.00    +0.000 A 
ATOM     27  C   UNL     1      -7.764  12.429  23.236  0.00  0.00    +0.000 A 
ATOM     28  C   UNL     1      -6.750  12.828  24.102  0.00  0.00    +0.000 A 
ATOM     29  C   UNL     1      -5.466  13.091  23.611  0.00  0.00    +0.000 A 
ENDBRANCH   8  24
TORSDOF 3
ENDMDL
MODEL 6
REMARK VINA RESULT:      -7.1      2.131      8.403
REMARK  Name = 
REMARK  3 active torsions:
REMARK  status: ('A' for Active; 'I' for Inactive)
REMARK    1  A    between atoms: C_2  and  C_3
REMARK    2  A    between atoms: C_8  and  C_9
REMARK    3  A    between atoms: N_16  and  C_17
REMARK                            x       y       z     vdW  Elec       q    Type
REMARK                         _______ _______ _______ _____ _____    ______ ____
ROOT
ATOM      1  C   UNL     1       1.167  11.617  18.598  0.00  0.00    +0.000 C 
ATOM      2  C   UNL     1      -0.300  11.780  18.170  0.00  0.00    +0.000 C 
ATOM      3  C   UNL     1      -1.288  11.461  19.294  0.00  0.00    +0.000 C 
ATOM      4  C   UNL     1      -0.963  12.177  20.615  0.00  0.00    +0.000 C 
ATOM      5  C   UNL     1       0.515  12.113  21.019  0.00  0.00    +0.000 C 
ATOM      6  C   UNL     1       1.442  12.465  19.848  0.00  0.00    +0.000 C 
ATOM      7  C   UNL     1      -1.903  11.698  21.718  0.00  0.00    +0.000 C 
ATOM      8  N   UNL     1      -2.685  12.855  22.029  0.00  0.00    +0.000 N 
ATOM      9  C   UNL     1      -2.162  13.966  21.394  0.00  0.00    +0.000 C 
ATOM     10  O   UNL     1      -2.430  15.146  21.570  0.00  0.00    +0.000 OA
ATOM     11  O   UNL     1      -1.247  13.580  20.461  0.00  0.00    +0.000 OA
ENDROOT
BRANCH   1  17
ATOM     12  C   UNL     1       2.160   5.889  20.091  0.00  0.00    +0.000 A 
ATOM     13  C   UNL     1       2.690   5.795  18.797  0.00  0.00    +0.000 A 
ATOM     14  C   UNL     1       2.743   6.906  17.940  0.00  0.00    +0.000 A 
ATOM     15  C   UNL     1       2.236   8.106  18.442  0.00  0.00    +0.000 A 
ATOM     16  N   UNL     1       2.113   9.365  17.905  0.00  0.00    +0.000 N 
ATOM     17  C   UNL     1       1.507  10.170  18.839  0.00  0.00    +0.000 A 
ATOM     18  N   UNL     1       1.270   9.496  19.948  0.00  0.00    +0.000 NA
ATOM     19  C   UNL     1       1.706   8.223  19.719  0.00  0.00    +0.000 A 
ATOM     20  C   UNL     1       1.666   7.110  20.569  0.00  0.00    +0.000 A 
ATOM     21  H   UNL     1       2.401   9.647  16.979  0.00  0.00    +0.000 HD
BRANCH  12  23
ATOM     22  N   UNL     1       2.076   3.795  21.618  0.00  0.00    +0.000 NA
ATOM     23  C   UNL     1       2.115   4.730  20.938  0.00  0.00    +0.000 C 
ENDBRANCH  12  23
ENDBRANCH   1  17
BRANCH   8  24
ATOM     24  C   UNL     1      -3.880  12.807  22.787  0.00  0.00    +0.000 A 
ATOM     25  C   UNL     1      -5.124  13.028  22.180  0.00  0.00    +0.000 A 
ATOM     26  C   UNL     1      -6.315  12.925  22.901  0.00  0.00    +0.000 A 
ATOM     27  C   UNL     1      -6.282  12.605  24.252  0.00  0.00    +0.000 A 
ATOM     28  C   UNL     1      -5.059  12.374  24.876  0.00  0.00    +0.000 A 
ATOM     29  C   UNL     1      -3.866  12.469  24.148  0.00  0.00    +0.000 A 
ENDBRANCH   8  24
TORSDOF 3
ENDMDL
MODEL 7
REMARK VINA RESULT:      -7.1      2.193      8.466
REMARK  Name = 
REMARK  3 active torsions:
REMARK  status: ('A' for Active; 'I' for Inactive)
REMARK    1  A    between atoms: C_2  and  C_3
REMARK    2  A    between atoms: C_8  and  C_9
REMARK    3  A    between atoms: N_16  and  C_17
REMARK                            x       y       z     vdW  Elec       q    Type
REMARK                         _______ _______ _______ _____ _____    ______ ____
ROOT
ATOM      1  C   UNL     1       1.329  10.015  17.824  0.00  0.00    +0.000 C 
ATOM      2  C   UNL     1      -0.199  10.159  17.907  0.00  0.00    +0.000 C 
ATOM      3  C   UNL     1      -0.706  10.329  19.340  0.00  0.00    +0.000 C 
ATOM      4  C   UNL     1       0.044  11.414  20.129  0.00  0.00    +0.000 C 
ATOM      5  C   UNL     1       1.571  11.354  19.988  0.00  0.00    +0.000 C 
ATOM      6  C   UNL     1       2.003  11.205  18.523  0.00  0.00    +0.000 C 
ATOM      7  C   UNL     1      -0.419  11.423  21.583  0.00  0.00    +0.000 C 
ATOM      8  N   UNL     1      -1.079  12.684  21.726  0.00  0.00    +0.000 N 
ATOM      9  C   UNL     1      -0.860  13.463  20.606  0.00  0.00    +0.000 C 
ATOM     10  O   UNL     1      -1.091  14.654  20.443  0.00  0.00    +0.000 OA
ATOM     11  O   UNL     1      -0.327  12.703  19.607  0.00  0.00    +0.000 OA
ENDROOT
BRANCH   1  17
ATOM     12  C   UNL     1       2.610   4.817  20.537  0.00  0.00    +0.000 A 
ATOM     13  C   UNL     1       3.611   4.721  19.560  0.00  0.00    +0.000 A 
ATOM     14  C   UNL     1       3.807   5.730  18.605  0.00  0.00    +0.000 A 
ATOM     15  C   UNL     1       2.949   6.829  18.673  0.00  0.00    +0.000 A 
ATOM     16  N   UNL     1       2.835   7.973  17.920  0.00  0.00    +0.000 N 
ATOM     17  C   UNL     1       1.786   8.709  18.417  0.00  0.00    +0.000 A 
ATOM     18  N   UNL     1       1.253   8.107  19.462  0.00  0.00    +0.000 NA
ATOM     19  C   UNL     1       1.951   6.946  19.630  0.00  0.00    +0.000 A 
ATOM     20  C   UNL     1       1.770   5.938  20.586  0.00  0.00    +0.000 A 
ATOM     21  H   UNL     1       3.410   8.223  17.128  0.00  0.00    +0.000 HD
BRANCH  12  23
ATOM     22  N   UNL     1       2.290   2.912  22.267  0.00  0.00    +0.000 NA
ATOM     23  C   UNL     1       2.434   3.762  21.496  0.00  0.00    +0.000 C 
ENDBRANCH  12  23
ENDBRANCH   1  17
BRANCH   8  24
ATOM     24  C   UNL     1      -1.920  13.004  22.819  0.00  0.00    +0.000 A 
ATOM     25  C   UNL     1      -1.677  14.141  23.602  0.00  0.00    +0.000 A 
ATOM     26  C   UNL     1      -2.531  14.503  24.645  0.00  0.00    +0.000 A 
ATOM     27  C   UNL     1      -3.647  13.726  24.929  0.00  0.00    +0.000 A 
ATOM     28  C   UNL     1      -3.913  12.596  24.161  0.00  0.00    +0.000 A 
ATOM     29  C   UNL     1      -3.060  12.240  23.109  0.00  0.00    +0.000 A 
ENDBRANCH   8  24
TORSDOF 3
ENDMDL
MODEL 8
REMARK VINA RESULT:      -7.1      3.620      9.073
REMARK  Name = 
REMARK  3 active torsions:
REMARK  status: ('A' for Active; 'I' for Inactive)
REMARK    1  A    between atoms: C_2  and  C_3
REMARK    2  A    between atoms: C_8  and  C_9
REMARK    3  A    between atoms: N_16  and  C_17
REMARK                            x       y       z     vdW  Elec       q    Type
REMARK                         _______ _______ _______ _____ _____    ______ ____
ROOT
ATOM      1  C   UNL     1       0.209   9.162  21.157  0.00  0.00    +0.000 C 
ATOM      2  C   UNL     1       0.897  10.338  21.870  0.00  0.00    +0.000 C 
ATOM      3  C   UNL     1       1.346  11.439  20.907  0.00  0.00    +0.000 C 
ATOM      4  C   UNL     1       0.244  11.887  19.934  0.00  0.00    +0.000 C 
ATOM      5  C   UNL     1      -0.526  10.732  19.278  0.00  0.00    +0.000 C 
ATOM      6  C   UNL     1      -0.961   9.681  20.308  0.00  0.00    +0.000 C 
ATOM      7  C   UNL     1       0.808  12.877  18.918  0.00  0.00    +0.000 C 
ATOM      8  N   UNL     1       0.140  14.103  19.227  0.00  0.00    +0.000 N 
ATOM      9  C   UNL     1      -0.873  13.876  20.139  0.00  0.00    +0.000 C 
ATOM     10  O   UNL     1      -1.774  14.626  20.487  0.00  0.00    +0.000 OA
ATOM     11  O   UNL     1      -0.749  12.626  20.669  0.00  0.00    +0.000 OA
ENDROOT
BRANCH   1  17
ATOM     12  C   UNL     1       4.145   6.594  17.425  0.00  0.00    +0.000 A 
ATOM     13  C   UNL     1       4.239   5.618  18.428  0.00  0.00    +0.000 A 
ATOM     14  C   UNL     1       3.475   5.695  19.603  0.00  0.00    +0.000 A 
ATOM     15  C   UNL     1       2.624   6.794  19.724  0.00  0.00    +0.000 A 
ATOM     16  N   UNL     1       1.756   7.200  20.710  0.00  0.00    +0.000 N 
ATOM     17  C   UNL     1       1.188   8.388  20.316  0.00  0.00    +0.000 A 
ATOM     18  N   UNL     1       1.626   8.737  19.122  0.00  0.00    +0.000 NA
ATOM     19  C   UNL     1       2.515   7.772  18.745  0.00  0.00    +0.000 A 
ATOM     20  C   UNL     1       3.275   7.682  17.572  0.00  0.00    +0.000 A 
ATOM     21  H   UNL     1       1.578   6.719  21.580  0.00  0.00    +0.000 HD
BRANCH  12  23
ATOM     22  N   UNL     1       5.590   6.402  15.282  0.00  0.00    +0.000 NA
ATOM     23  C   UNL     1       4.948   6.487  16.238  0.00  0.00    +0.000 C 
ENDBRANCH  12  23
ENDBRANCH   1  17
BRANCH   8  24
ATOM     24  C   UNL     1       0.560  15.364  18.737  0.00  0.00    +0.000 A 
ATOM     25  C   UNL     1       1.922  15.652  18.571  0.00  0.00    +0.000 A 
ATOM     26  C   UNL     1       2.348  16.868  18.032  0.00  0.00    +0.000 A 
ATOM     27  C   UNL     1       1.415  17.825  17.655  0.00  0.00    +0.000 A 
ATOM     28  C   UNL     1       0.056  17.559  17.805  0.00  0.00    +0.000 A 
ATOM     29  C   UNL     1      -0.369  16.335  18.336  0.00  0.00    +0.000 A 
ENDBRANCH   8  24
TORSDOF 3
ENDMDL
MODEL 9
REMARK VINA RESULT:      -7.0      4.206      7.384
REMARK  Name = 
REMARK  3 active torsions:
REMARK  status: ('A' for Active; 'I' for Inactive)
REMARK    1  A    between atoms: C_2  and  C_3
REMARK    2  A    between atoms: C_8  and  C_9
REMARK    3  A    between atoms: N_16  and  C_17
REMARK                            x       y       z     vdW  Elec       q    Type
REMARK                         _______ _______ _______ _____ _____    ______ ____
ROOT
ATOM      1  C   UNL     1      -0.758  10.671  20.332  0.00  0.00    +0.000 C 
ATOM      2  C   UNL     1       0.725  10.346  20.088  0.00  0.00    +0.000 C 
ATOM      3  C   UNL     1       1.475  11.473  19.377  0.00  0.00    +0.000 C 
ATOM      4  C   UNL     1       1.260  12.852  20.023  0.00  0.00    +0.000 C 
ATOM      5  C   UNL     1      -0.202  13.167  20.365  0.00  0.00    +0.000 C 
ATOM      6  C   UNL     1      -0.880  11.998  21.095  0.00  0.00    +0.000 C 
ATOM      7  C   UNL     1       1.920  13.938  19.177  0.00  0.00    +0.000 C 
ATOM      8  N   UNL     1       2.975  14.428  20.008  0.00  0.00    +0.000 N 
ATOM      9  C   UNL     1       2.857  13.905  21.282  0.00  0.00    +0.000 C 
ATOM     10  O   UNL     1       3.442  14.236  22.304  0.00  0.00    +0.000 OA
ATOM     11  O   UNL     1       1.954  12.884  21.283  0.00  0.00    +0.000 OA
ENDROOT
BRANCH   1  17
ATOM     12  C   UNL     1      -3.432  10.385  14.966  0.00  0.00    +0.000 A 
ATOM     13  C   UNL     1      -4.399  11.205  15.566  0.00  0.00    +0.000 A 
ATOM     14  C   UNL     1      -4.273  11.640  16.895  0.00  0.00    +0.000 A 
ATOM     15  C   UNL     1      -3.142  11.207  17.589  0.00  0.00    +0.000 A 
ATOM     16  N   UNL     1      -2.699  11.414  18.873  0.00  0.00    +0.000 N 
ATOM     17  C   UNL     1      -1.525  10.718  19.037  0.00  0.00    +0.000 A 
ATOM     18  N   UNL     1      -1.187  10.110  17.917  0.00  0.00    +0.000 NA
ATOM     19  C   UNL     1      -2.174  10.395  17.017  0.00  0.00    +0.000 A 
ATOM     20  C   UNL     1      -2.303   9.974  15.687  0.00  0.00    +0.000 A 
ATOM     21  H   UNL     1      -3.163  11.966  19.581  0.00  0.00    +0.000 HD
BRANCH  12  23
ATOM     22  N   UNL     1      -3.725   9.607  12.511  0.00  0.00    +0.000 NA
ATOM     23  C   UNL     1      -3.596   9.954  13.606  0.00  0.00    +0.000 C 
ENDBRANCH  12  23
ENDBRANCH   1  17
BRANCH   8  24
ATOM     24  C   UNL     1       4.034  15.237  19.529  0.00  0.00    +0.000 A 
ATOM     25  C   UNL     1       4.209  16.544  20.004  0.00  0.00    +0.000 A 
ATOM     26  C   UNL     1       5.282  17.333  19.586  0.00  0.00    +0.000 A 
ATOM     27  C   UNL     1       6.201  16.827  18.675  0.00  0.00    +0.000 A 
ATOM     28  C   UNL     1       6.052  15.529  18.195  0.00  0.00    +0.000 A 
ATOM     29  C   UNL     1       4.980  14.737  18.623  0.00  0.00    +0.000 A 
ENDBRANCH   8  24
TORSDOF 3
ENDMDL
