MODEL 1
REMARK VINA RESULT:      -7.5      0.000      0.000
REMARK  Name = 
REMARK  5 active torsions:
REMARK  status: ('A' for Active; 'I' for Inactive)
REMARK    1  A    between atoms: C_1  and  C_2
REMARK    2  A    between atoms: C_6  and  C_7
REMARK    3  A    between atoms: C_7  and  C_8
REMARK    4  A    between atoms: C_8  and  C_9
REMARK    5  A    between atoms: C_15  and  C_16
REMARK                            x       y       z     vdW  Elec       q    Type
REMARK                         _______ _______ _______ _____ _____    ______ ____
ROOT
ATOM      1  C   UNL     1       3.578   4.095  16.969  0.00  0.00    +0.000 C 
ATOM      2  O   UNL     1       4.558   3.812  16.285  0.00  0.00    +0.000 OA
ATOM      3  N   UNL     1       3.410   5.344  17.546  0.00  0.00    +0.000 N 
ATOM      4  C   UNL     1       2.253   5.816  18.287  0.00  0.00    +0.000 C 
ATOM      5  C   UNL     1       2.144   7.278  17.900  0.00  0.00    +0.000 C 
ATOM      6  C   UNL     1       3.593   7.715  17.722  0.00  0.00    +0.000 C 
ATOM      7  C   UNL     1       4.344   6.440  17.283  0.00  0.00    +0.000 C 
ENDROOT
BRANCH   7   8
ATOM      8  C   UNL     1       5.661   6.296  18.011  0.00  0.00    +0.000 A 
ATOM      9  C   UNL     1       6.825   6.966  17.612  0.00  0.00    +0.000 A 
ATOM     10  C   UNL     1       8.020   6.749  18.291  0.00  0.00    +0.000 A 
ATOM     11  C   UNL     1       8.019   5.868  19.357  0.00  0.00    +0.000 A 
ATOM     12  N   UNL     1       6.920   5.205  19.779  0.00  0.00    +0.000 NA
ATOM     13  C   UNL     1       5.770   5.444  19.107  0.00  0.00    +0.000 A 
ENDBRANCH   7   8
BRANCH   1  14
ATOM     14  C   UNL     1       2.424   3.123  17.143  0.00  0.00    +0.000 C 
BRANCH  14  15
ATOM     15  C   UNL     1       2.765   1.949  18.062  0.00  0.00    +0.000 C 
BRANCH  15  21
ATOM     16  C   UNL     1       4.821   1.970  20.580  0.00  0.00    +0.000 C 
ATOM     17  C   UNL     1       3.375   2.321  20.583  0.00  0.00    +0.000 A 
ATOM     18  N   UNL     1       2.797   2.681  21.790  0.00  0.00    +0.000 NA
ATOM     19  C   UNL     1       1.526   2.961  21.611  0.00  0.00    +0.000 A 
ATOM     20  S   UNL     1       0.942   2.807  20.011  0.00  0.00    +0.000 S 
ATOM     21  C   UNL     1       2.510   2.318  19.498  0.00  0.00    +0.000 A 
ENDBRANCH  15  21
ENDBRANCH  14  15
ENDBRANCH   1  14
TORSDOF 4
ENDMDL
MODEL 2
REMARK VINA RESULT:      -7.2      2.002      2.912
REMARK  Name = 
REMARK  5 active torsions:
REMARK  status: ('A' for Active; 'I' for Inactive)
REMARK    1  A    between atoms: C_1  and  C_2
REMARK    2  A    between atoms: C_6  and  C_7
REMARK    3  A    between atoms: C_7  and  C_8
REMARK    4  A    between atoms: C_8  and  C_9
REMARK    5  A    between atoms: C_15  and  C_16
REMARK                            x       y       z     vdW  Elec       q    Type
REMARK                         _______ _______ _______ _____ _____    ______ ____
ROOT
ATOM      1  C   UNL     1       4.427   3.731  17.245  0.00  0.00    +0.000 C 
ATOM      2  O   UNL     1       4.913   3.431  18.331  0.00  0.00    +0.000 OA
ATOM      3  N   UNL     1       5.193   4.208  16.192  0.00  0.00    +0.000 N 
ATOM      4  C   UNL     1       4.740   4.499  14.843  0.00  0.00    +0.000 C 
ATOM      5  C   UNL     1       5.911   4.091  13.970  0.00  0.00    +0.000 C 
ATOM      6  C   UNL     1       7.131   4.426  14.820  0.00  0.00    +0.000 C 
ATOM      7  C   UNL     1       6.652   4.281  16.281  0.00  0.00    +0.000 C 
ENDROOT
BRANCH   7   8
ATOM      8  C   UNL     1       7.147   5.421  17.140  0.00  0.00    +0.000 A 
ATOM      9  C   UNL     1       7.119   6.757  16.717  0.00  0.00    +0.000 A 
ATOM     10  C   UNL     1       7.639   7.757  17.533  0.00  0.00    +0.000 A 
ATOM     11  C   UNL     1       8.173   7.393  18.756  0.00  0.00    +0.000 A 
ATOM     12  N   UNL     1       8.216   6.121  19.207  0.00  0.00    +0.000 NA
ATOM     13  C   UNL     1       7.693   5.171  18.397  0.00  0.00    +0.000 A 
ENDBRANCH   7   8
BRANCH   1  14
ATOM     14  C   UNL     1       2.956   3.498  16.943  0.00  0.00    +0.000 C 
BRANCH  14  15
ATOM     15  C   UNL     1       2.030   4.426  17.729  0.00  0.00    +0.000 C 
BRANCH  15  21
ATOM     16  C   UNL     1       1.906   6.074  20.528  0.00  0.00    +0.000 C 
ATOM     17  C   UNL     1       1.799   4.603  20.333  0.00  0.00    +0.000 A 
ATOM     18  N   UNL     1       1.651   3.808  21.459  0.00  0.00    +0.000 NA
ATOM     19  C   UNL     1       1.567   2.546  21.106  0.00  0.00    +0.000 A 
ATOM     20  S   UNL     1       1.666   2.227  19.429  0.00  0.00    +0.000 S 
ATOM     21  C   UNL     1       1.842   3.912  19.131  0.00  0.00    +0.000 A 
ENDBRANCH  15  21
ENDBRANCH  14  15
ENDBRANCH   1  14
TORSDOF 4
ENDMDL
MODEL 3
REMARK VINA RESULT:      -7.0      0.673      1.064
REMARK  Name = 
REMARK  5 active torsions:
REMARK  status: ('A' for Active; 'I' for Inactive)
REMARK    1  A    between atoms: C_1  and  C_2
REMARK    2  A    between atoms: C_6  and  C_7
REMARK    3  A    between atoms: C_7  and  C_8
REMARK    4  A    between atoms: C_8  and  C_9
REMARK    5  A    between atoms: C_15  and  C_16
REMARK                            x       y       z     vdW  Elec       q    Type
REMARK                         _______ _______ _______ _____ _____    ______ ____
ROOT
ATOM      1  C   UNL     1       3.546   4.150  16.925  0.00  0.00    +0.000 C 
ATOM      2  O   UNL     1       4.484   3.884  16.180  0.00  0.00    +0.000 OA
ATOM      3  N   UNL     1       3.400   5.393  17.524  0.00  0.00    +0.000 N 
ATOM      4  C   UNL     1       2.285   5.845  18.340  0.00  0.00    +0.000 C 
ATOM      5  C   UNL     1       2.138   7.309  17.974  0.00  0.00    +0.000 C 
ATOM      6  C   UNL     1       3.569   7.763  17.712  0.00  0.00    +0.000 C 
ATOM      7  C   UNL     1       4.305   6.501  17.215  0.00  0.00    +0.000 C 
ENDROOT
BRANCH   7   8
ATOM      8  C   UNL     1       5.665   6.365  17.859  0.00  0.00    +0.000 A 
ATOM      9  C   UNL     1       5.910   5.509  18.940  0.00  0.00    +0.000 A 
ATOM     10  C   UNL     1       7.172   5.468  19.526  0.00  0.00    +0.000 A 
ATOM     11  C   UNL     1       8.160   6.286  19.009  0.00  0.00    +0.000 A 
ATOM     12  N   UNL     1       7.971   7.122  17.965  0.00  0.00    +0.000 NA
ATOM     13  C   UNL     1       6.737   7.132  17.409  0.00  0.00    +0.000 A 
ENDBRANCH   7   8
BRANCH   1  14
ATOM     14  C   UNL     1       2.415   3.164  17.161  0.00  0.00    +0.000 C 
BRANCH  14  15
ATOM     15  C   UNL     1       2.816   2.000  18.066  0.00  0.00    +0.000 C 
BRANCH  15  21
ATOM     16  C   UNL     1       4.828   2.005  20.620  0.00  0.00    +0.000 C 
ATOM     17  C   UNL     1       3.376   2.329  20.605  0.00  0.00    +0.000 A 
ATOM     18  N   UNL     1       2.771   2.653  21.809  0.00  0.00    +0.000 NA
ATOM     19  C   UNL     1       1.498   2.913  21.614  0.00  0.00    +0.000 A 
ATOM     20  S   UNL     1       0.944   2.783  20.001  0.00  0.00    +0.000 S 
ATOM     21  C   UNL     1       2.530   2.334  19.506  0.00  0.00    +0.000 A 
ENDBRANCH  15  21
ENDBRANCH  14  15
ENDBRANCH   1  14
TORSDOF 4
ENDMDL
MODEL 4
REMARK VINA RESULT:      -6.9      1.558      1.972
REMARK  Name = 
REMARK  5 active torsions:
REMARK  status: ('A' for Active; 'I' for Inactive)
REMARK    1  A    between atoms: C_1  and  C_2
REMARK    2  A    between atoms: C_6  and  C_7
REMARK    3  A    between atoms: C_7  and  C_8
REMARK    4  A    between atoms: C_8  and  C_9
REMARK    5  A    between atoms: C_15  and  C_16
REMARK                            x       y       z     vdW  Elec       q    Type
REMARK                         _______ _______ _______ _____ _____    ______ ____
ROOT
ATOM      1  C   UNL     1       2.123   4.254  17.573  0.00  0.00    +0.000 C 
ATOM      2  O   UNL     1       2.525   3.721  16.543  0.00  0.00    +0.000 OA
ATOM      3  N   UNL     1       2.641   5.452  18.042  0.00  0.00    +0.000 N 
ATOM      4  C   UNL     1       2.177   6.216  19.188  0.00  0.00    +0.000 C 
ATOM      5  C   UNL     1       2.356   7.659  18.760  0.00  0.00    +0.000 C 
ATOM      6  C   UNL     1       3.605   7.627  17.888  0.00  0.00    +0.000 C 
ATOM      7  C   UNL     1       3.627   6.212  17.272  0.00  0.00    +0.000 C 
ENDROOT
BRANCH   7   8
ATOM      8  C   UNL     1       5.013   5.613  17.314  0.00  0.00    +0.000 A 
ATOM      9  C   UNL     1       5.767   5.365  16.159  0.00  0.00    +0.000 A 
ATOM     10  C   UNL     1       7.017   4.760  16.259  0.00  0.00    +0.000 A 
ATOM     11  C   UNL     1       7.482   4.422  17.517  0.00  0.00    +0.000 A 
ATOM     12  N   UNL     1       6.794   4.647  18.656  0.00  0.00    +0.000 NA
ATOM     13  C   UNL     1       5.586   5.246  18.529  0.00  0.00    +0.000 A 
ENDBRANCH   7   8
BRANCH   1  14
ATOM     14  C   UNL     1       0.952   3.686  18.356  0.00  0.00    +0.000 C 
BRANCH  14  15
ATOM     15  C   UNL     1       1.183   2.248  18.818  0.00  0.00    +0.000 C 
BRANCH  15  21
ATOM     16  C   UNL     1       2.051   3.338  21.754  0.00  0.00    +0.000 C 
ATOM     17  C   UNL     1       2.892   2.602  20.773  0.00  0.00    +0.000 A 
ATOM     18  N   UNL     1       4.214   2.354  21.106  0.00  0.00    +0.000 NA
ATOM     19  C   UNL     1       4.804   1.695  20.135  0.00  0.00    +0.000 A 
ATOM     20  S   UNL     1       3.834   1.338  18.773  0.00  0.00    +0.000 S 
ATOM     21  C   UNL     1       2.506   2.132  19.526  0.00  0.00    +0.000 A 
ENDBRANCH  15  21
ENDBRANCH  14  15
ENDBRANCH   1  14
TORSDOF 4
ENDMDL
MODEL 5
REMARK VINA RESULT:      -6.9      3.184      5.252
REMARK  Name = 
REMARK  5 active torsions:
REMARK  status: ('A' for Active; 'I' for Inactive)
REMARK    1  A    between atoms: C_1  and  C_2
REMARK    2  A    between atoms: C_6  and  C_7
REMARK    3  A    between atoms: C_7  and  C_8
REMARK    4  A    between atoms: C_8  and  C_9
REMARK    5  A    between atoms: C_15  and  C_16
REMARK                            x       y       z     vdW  Elec       q    Type
REMARK                         _______ _______ _______ _____ _____    ______ ____
ROOT
ATOM      1  C   UNL     1       3.463   5.656  19.274  0.00  0.00    +0.000 C 
ATOM      2  O   UNL     1       4.599   5.934  19.646  0.00  0.00    +0.000 OA
ATOM      3  N   UNL     1       3.187   4.550  18.484  0.00  0.00    +0.000 N 
ATOM      4  C   UNL     1       1.878   4.076  18.070  0.00  0.00    +0.000 C 
ATOM      5  C   UNL     1       2.017   2.566  18.083  0.00  0.00    +0.000 C 
ATOM      6  C   UNL     1       3.461   2.330  17.657  0.00  0.00    +0.000 C 
ATOM      7  C   UNL     1       4.228   3.581  18.136  0.00  0.00    +0.000 C 
ENDROOT
BRANCH   7   8
ATOM      8  C   UNL     1       5.185   4.080  17.079  0.00  0.00    +0.000 A 
ATOM      9  C   UNL     1       4.804   4.286  15.747  0.00  0.00    +0.000 A 
ATOM     10  C   UNL     1       5.746   4.695  14.808  0.00  0.00    +0.000 A 
ATOM     11  C   UNL     1       7.049   4.891  15.229  0.00  0.00    +0.000 A 
ATOM     12  N   UNL     1       7.460   4.711  16.502  0.00  0.00    +0.000 NA
ATOM     13  C   UNL     1       6.520   4.323  17.396  0.00  0.00    +0.000 A 
ENDBRANCH   7   8
BRANCH   1  14
ATOM     14  C   UNL     1       2.257   6.453  19.742  0.00  0.00    +0.000 C 
BRANCH  14  15
ATOM     15  C   UNL     1       2.192   7.853  19.133  0.00  0.00    +0.000 C 
BRANCH  15  21
ATOM     16  C   UNL     1       0.051  10.084  18.130  0.00  0.00    +0.000 C 
ATOM     17  C   UNL     1       0.375   9.698  19.530  0.00  0.00    +0.000 A 
ATOM     18  N   UNL     1      -0.278  10.365  20.555  0.00  0.00    +0.000 NA
ATOM     19  C   UNL     1       0.121   9.900  21.716  0.00  0.00    +0.000 A 
ATOM     20  S   UNL     1       1.293   8.655  21.664  0.00  0.00    +0.000 S 
ATOM     21  C   UNL     1       1.284   8.736  19.945  0.00  0.00    +0.000 A 
ENDBRANCH  15  21
ENDBRANCH  14  15
ENDBRANCH   1  14
TORSDOF 4
ENDMDL
MODEL 6
REMARK VINA RESULT:      -6.8      2.192      3.109
REMARK  Name = 
REMARK  5 active torsions:
REMARK  status: ('A' for Active; 'I' for Inactive)
REMARK    1  A    between atoms: C_1  and  C_2
REMARK    2  A    between atoms: C_6  and  C_7
REMARK    3  A    between atoms: C_7  and  C_8
REMARK    4  A    between atoms: C_8  and  C_9
REMARK    5  A    between atoms: C_15  and  C_16
REMARK                            x       y       z     vdW  Elec       q    Type
REMARK                         _______ _______ _______ _____ _____    ______ ____
ROOT
ATOM      1  C   UNL     1       4.463   3.809  17.218  0.00  0.00    +0.000 C 
ATOM      2  O   UNL     1       4.960   3.507  18.299  0.00  0.00    +0.000 OA
ATOM      3  N   UNL     1       5.224   4.255  16.148  0.00  0.00    +0.000 N 
ATOM      4  C   UNL     1       4.756   4.545  14.803  0.00  0.00    +0.000 C 
ATOM      5  C   UNL     1       5.901   4.098  13.915  0.00  0.00    +0.000 C 
ATOM      6  C   UNL     1       7.143   4.408  14.742  0.00  0.00    +0.000 C 
ATOM      7  C   UNL     1       6.686   4.290  16.211  0.00  0.00    +0.000 C 
ENDROOT
BRANCH   7   8
ATOM      8  C   UNL     1       7.225   5.424  17.050  0.00  0.00    +0.000 A 
ATOM      9  C   UNL     1       7.696   5.244  18.358  0.00  0.00    +0.000 A 
ATOM     10  C   UNL     1       8.129   6.338  19.100  0.00  0.00    +0.000 A 
ATOM     11  C   UNL     1       8.084   7.589  18.511  0.00  0.00    +0.000 A 
ATOM     12  N   UNL     1       7.644   7.809  17.253  0.00  0.00    +0.000 NA
ATOM     13  C   UNL     1       7.238   6.725  16.552  0.00  0.00    +0.000 A 
ENDBRANCH   7   8
BRANCH   1  14
ATOM     14  C   UNL     1       2.982   3.613  16.943  0.00  0.00    +0.000 C 
BRANCH  14  15
ATOM     15  C   UNL     1       2.095   4.584  17.722  0.00  0.00    +0.000 C 
BRANCH  15  21
ATOM     16  C   UNL     1       0.553   1.961  18.866  0.00  0.00    +0.000 C 
ATOM     17  C   UNL     1       1.268   3.007  19.645  0.00  0.00    +0.000 A 
ATOM     18  N   UNL     1       1.278   2.895  21.026  0.00  0.00    +0.000 NA
ATOM     19  C   UNL     1       1.951   3.893  21.551  0.00  0.00    +0.000 A 
ATOM     20  S   UNL     1       2.604   5.022  20.444  0.00  0.00    +0.000 S 
ATOM     21  C   UNL     1       1.932   4.117  19.144  0.00  0.00    +0.000 A 
ENDBRANCH  15  21
ENDBRANCH  14  15
ENDBRANCH   1  14
TORSDOF 4
ENDMDL
MODEL 7
REMARK VINA RESULT:      -6.8      3.243      5.245
REMARK  Name = 
REMARK  5 active torsions:
REMARK  status: ('A' for Active; 'I' for Inactive)
REMARK    1  A    between atoms: C_1  and  C_2
REMARK    2  A    between atoms: C_6  and  C_7
REMARK    3  A    between atoms: C_7  and  C_8
REMARK    4  A    between atoms: C_8  and  C_9
REMARK    5  A    between atoms: C_15  and  C_16
REMARK                            x       y       z     vdW  Elec       q    Type
REMARK                         _______ _______ _______ _____ _____    ______ ____
ROOT
ATOM      1  C   UNL     1       3.214   5.517  19.193  0.00  0.00    +0.000 C 
ATOM      2  O   UNL     1       4.295   5.933  19.599  0.00  0.00    +0.000 OA
ATOM      3  N   UNL     1       3.096   4.354  18.447  0.00  0.00    +0.000 N 
ATOM      4  C   UNL     1       1.866   3.722  18.002  0.00  0.00    +0.000 C 
ATOM      5  C   UNL     1       2.165   2.239  18.094  0.00  0.00    +0.000 C 
ATOM      6  C   UNL     1       3.645   2.145  17.740  0.00  0.00    +0.000 C 
ATOM      7  C   UNL     1       4.250   3.491  18.190  0.00  0.00    +0.000 C 
ENDROOT
BRANCH   7   8
ATOM      8  C   UNL     1       5.196   4.046  17.151  0.00  0.00    +0.000 A 
ATOM      9  C   UNL     1       4.810   4.288  15.826  0.00  0.00    +0.000 A 
ATOM     10  C   UNL     1       5.743   4.749  14.901  0.00  0.00    +0.000 A 
ATOM     11  C   UNL     1       7.041   4.959  15.329  0.00  0.00    +0.000 A 
ATOM     12  N   UNL     1       7.456   4.745  16.596  0.00  0.00    +0.000 NA
ATOM     13  C   UNL     1       6.525   4.308  17.476  0.00  0.00    +0.000 A 
ENDBRANCH   7   8
BRANCH   1  14
ATOM     14  C   UNL     1       1.909   6.197  19.573  0.00  0.00    +0.000 C 
BRANCH  14  15
ATOM     15  C   UNL     1       2.107   7.390  20.508  0.00  0.00    +0.000 C 
BRANCH  15  21
ATOM     16  C   UNL     1      -0.229   9.075  22.014  0.00  0.00    +0.000 C 
ATOM     17  C   UNL     1       0.312   9.295  20.646  0.00  0.00    +0.000 A 
ATOM     18  N   UNL     1      -0.237  10.315  19.886  0.00  0.00    +0.000 NA
ATOM     19  C   UNL     1       0.357  10.371  18.716  0.00  0.00    +0.000 A 
ATOM     20  S   UNL     1       1.592   9.218  18.446  0.00  0.00    +0.000 S 
ATOM     21  C   UNL     1       1.318   8.574  20.018  0.00  0.00    +0.000 A 
ENDBRANCH  15  21
ENDBRANCH  14  15
ENDBRANCH   1  14
TORSDOF 4
ENDMDL
MODEL 8
REMARK VINA RESULT:      -6.8      2.414      3.767
REMARK  Name = 
REMARK  5 active torsions:
REMARK  status: ('A' for Active; 'I' for Inactive)
REMARK    1  A    between atoms: C_1  and  C_2
REMARK    2  A    between atoms: C_6  and  C_7
REMARK    3  A    between atoms: C_7  and  C_8
REMARK    4  A    between atoms: C_8  and  C_9
REMARK    5  A    between atoms: C_15  and  C_16
REMARK                            x       y       z     vdW  Elec       q    Type
REMARK                         _______ _______ _______ _____ _____    ______ ____
ROOT
ATOM      1  C   UNL     1       4.137   6.613  17.665  0.00  0.00    +0.000 C 
ATOM      2  O   UNL     1       4.074   7.331  16.672  0.00  0.00    +0.000 OA
ATOM      3  N   UNL     1       5.287   5.919  18.011  0.00  0.00    +0.000 N 
ATOM      4  C   UNL     1       5.502   5.124  19.208  0.00  0.00    +0.000 C 
ATOM      5  C   UNL     1       6.957   5.372  19.554  0.00  0.00    +0.000 C 
ATOM      6  C   UNL     1       7.631   5.526  18.196  0.00  0.00    +0.000 C 
ATOM      7  C   UNL     1       6.536   6.091  17.267  0.00  0.00    +0.000 C 
ENDROOT
BRANCH   7   8
ATOM      8  C   UNL     1       6.536   5.396  15.925  0.00  0.00    +0.000 A 
ATOM      9  C   UNL     1       5.655   4.353  15.611  0.00  0.00    +0.000 A 
ATOM     10  C   UNL     1       5.742   3.715  14.377  0.00  0.00    +0.000 A 
ATOM     11  C   UNL     1       6.709   4.142  13.486  0.00  0.00    +0.000 A 
ATOM     12  N   UNL     1       7.575   5.146  13.743  0.00  0.00    +0.000 NA
ATOM     13  C   UNL     1       7.460   5.755  14.947  0.00  0.00    +0.000 A 
ENDBRANCH   7   8
BRANCH   1  14
ATOM     14  C   UNL     1       2.983   6.515  18.649  0.00  0.00    +0.000 C 
BRANCH  14  15
ATOM     15  C   UNL     1       1.870   5.582  18.173  0.00  0.00    +0.000 C 
BRANCH  15  21
ATOM     16  C   UNL     1       2.828   2.586  17.353  0.00  0.00    +0.000 C 
ATOM     17  C   UNL     1       2.255   3.034  18.650  0.00  0.00    +0.000 A 
ATOM     18  N   UNL     1       2.073   2.084  19.642  0.00  0.00    +0.000 NA
ATOM     19  C   UNL     1       1.566   2.648  20.714  0.00  0.00    +0.000 A 
ATOM     20  S   UNL     1       1.271   4.330  20.609  0.00  0.00    +0.000 S 
ATOM     21  C   UNL     1       1.860   4.319  18.992  0.00  0.00    +0.000 A 
ENDBRANCH  15  21
ENDBRANCH  14  15
ENDBRANCH   1  14
TORSDOF 4
ENDMDL
MODEL 9
REMARK VINA RESULT:      -6.7      3.485      5.330
REMARK  Name = 
REMARK  5 active torsions:
REMARK  status: ('A' for Active; 'I' for Inactive)
REMARK    1  A    between atoms: C_1  and  C_2
REMARK    2  A    between atoms: C_6  and  C_7
REMARK    3  A    between atoms: C_7  and  C_8
REMARK    4  A    between atoms: C_8  and  C_9
REMARK    5  A    between atoms: C_15  and  C_16
REMARK                            x       y       z     vdW  Elec       q    Type
REMARK                         _______ _______ _______ _____ _____    ______ ____
ROOT
ATOM      1  C   UNL     1       3.442   6.783  17.807  0.00  0.00    +0.000 C 
ATOM      2  O   UNL     1       4.493   7.415  17.858  0.00  0.00    +0.000 OA
ATOM      3  N   UNL     1       3.409   5.402  17.687  0.00  0.00    +0.000 N 
ATOM      4  C   UNL     1       2.232   4.550  17.716  0.00  0.00    +0.000 C 
ATOM      5  C   UNL     1       2.703   3.303  18.437  0.00  0.00    +0.000 C 
ATOM      6  C   UNL     1       4.157   3.161  18.004  0.00  0.00    +0.000 C 
ATOM      7  C   UNL     1       4.634   4.602  17.725  0.00  0.00    +0.000 C 
ENDROOT
BRANCH   7   8
ATOM      8  C   UNL     1       5.442   4.679  16.450  0.00  0.00    +0.000 A 
ATOM      9  C   UNL     1       5.023   4.089  15.250  0.00  0.00    +0.000 A 
ATOM     10  C   UNL     1       5.838   4.148  14.123  0.00  0.00    +0.000 A 
ATOM     11  C   UNL     1       7.053   4.801  14.227  0.00  0.00    +0.000 A 
ATOM     12  N   UNL     1       7.494   5.388  15.360  0.00  0.00    +0.000 NA
ATOM     13  C   UNL     1       6.676   5.325  16.436  0.00  0.00    +0.000 A 
ENDBRANCH   7   8
BRANCH   1  14
ATOM     14  C   UNL     1       2.096   7.467  17.978  0.00  0.00    +0.000 C 
BRANCH  14  15
ATOM     15  C   UNL     1       2.211   8.984  18.129  0.00  0.00    +0.000 C 
BRANCH  15  21
ATOM     16  C   UNL     1       1.508   8.248  21.216  0.00  0.00    +0.000 C 
ATOM     17  C   UNL     1       0.789   9.193  20.320  0.00  0.00    +0.000 A 
ATOM     18  N   UNL     1      -0.332   9.838  20.820  0.00  0.00    +0.000 NA
ATOM     19  C   UNL     1      -0.836  10.633  19.904  0.00  0.00    +0.000 A 
ATOM     20  S   UNL     1      -0.020  10.659  18.401  0.00  0.00    +0.000 S 
ATOM     21  C   UNL     1       1.106   9.507  19.007  0.00  0.00    +0.000 A 
ENDBRANCH  15  21
ENDBRANCH  14  15
ENDBRANCH   1  14
TORSDOF 4
ENDMDL
