MODEL 1
REMARK VINA RESULT:      -7.2      0.000      0.000
REMARK  Name = 
REMARK  7 active torsions:
REMARK  status: ('A' for Active; 'I' for Inactive)
REMARK    1  A    between atoms: C_1  and  C_2
REMARK    2  A    between atoms: C_5  and  S_6
REMARK    3  A    between atoms: S_6  and  N_9
REMARK    4  A    between atoms: C_13  and  C_14
REMARK    5  A    between atoms: N_16  and  C_17
REMARK    6  A    between atoms: C_17  and  C_18
REMARK    7  A    between atoms: C_23  and  C_24
REMARK                            x       y       z     vdW  Elec       q    Type
REMARK                         _______ _______ _______ _____ _____    ______ ____
ROOT
ATOM      1  N   UNL     1       2.219   4.871  18.396  0.00  0.00    +0.000 NA
ATOM      2  C   UNL     1       1.228   4.647  19.450  0.00  0.00    +0.000 C 
ATOM      3  S   UNL     1       1.150   2.906  19.835  0.00  0.00    +0.000 S 
ATOM      4  C   UNL     1       1.967   2.397  18.319  0.00  0.00    +0.000 C 
ATOM      5  C   UNL     1       2.595   3.633  17.658  0.00  0.00    +0.000 C 
ENDROOT
BRANCH   5   6
ATOM      6  C   UNL     1       4.065   3.354  17.327  0.00  0.00    +0.000 C 
ATOM      7  O   UNL     1       4.810   2.677  18.027  0.00  0.00    +0.000 OA
ATOM      8  N   UNL     1       4.476   3.873  16.114  0.00  0.00    +0.000 N 
ATOM      9  H   UNL     1       4.064   4.781  15.880  0.00  0.00    +0.000 HD
BRANCH   8  10
ATOM     10  C   UNL     1       5.860   3.689  15.665  0.00  0.00    +0.000 C 
BRANCH  10  11
ATOM     11  C   UNL     1       6.329   4.665  14.582  0.00  0.00    +0.000 C 
ATOM     12  F   UNL     1       7.640   4.977  14.724  0.00  0.00    +0.000 F 
ATOM     13  F   UNL     1       6.171   4.141  13.346  0.00  0.00    +0.000 F 
ATOM     14  F   UNL     1       5.632   5.822  14.628  0.00  0.00    +0.000 F 
ENDBRANCH  10  11
ENDBRANCH   8  10
ENDBRANCH   5   6
BRANCH   1  15
ATOM     15  S   UNL     1       3.329   6.115  18.646  0.00  0.00    +0.000 S 
ATOM     16  O   UNL     1       3.964   6.403  17.380  0.00  0.00    +0.000 OA
ATOM     17  O   UNL     1       4.089   5.802  19.833  0.00  0.00    +0.000 OA
BRANCH  15  22
ATOM     18  C   UNL     1       0.056  11.056  19.972  0.00  0.00    +0.000 C 
ATOM     19  C   UNL     1       0.777   9.775  19.645  0.00  0.00    +0.000 A 
ATOM     20  C   UNL     1       1.146   9.515  18.313  0.00  0.00    +0.000 A 
ATOM     21  C   UNL     1       1.886   8.378  17.983  0.00  0.00    +0.000 A 
ATOM     22  C   UNL     1       2.266   7.500  18.994  0.00  0.00    +0.000 A 
ATOM     23  C   UNL     1       1.853   7.708  20.314  0.00  0.00    +0.000 A 
ATOM     24  C   UNL     1       1.106   8.844  20.652  0.00  0.00    +0.000 A 
ATOM     25  C   UNL     1       0.687   9.052  22.081  0.00  0.00    +0.000 C 
ENDBRANCH  15  22
ENDBRANCH   1  15
TORSDOF 5
ENDMDL
MODEL 2
REMARK VINA RESULT:      -7.1      2.112      2.845
REMARK  Name = 
REMARK  7 active torsions:
REMARK  status: ('A' for Active; 'I' for Inactive)
REMARK    1  A    between atoms: C_1  and  C_2
REMARK    2  A    between atoms: C_5  and  S_6
REMARK    3  A    between atoms: S_6  and  N_9
REMARK    4  A    between atoms: C_13  and  C_14
REMARK    5  A    between atoms: N_16  and  C_17
REMARK    6  A    between atoms: C_17  and  C_18
REMARK    7  A    between atoms: C_23  and  C_24
REMARK                            x       y       z     vdW  Elec       q    Type
REMARK                         _______ _______ _______ _____ _____    ______ ____
ROOT
ATOM      1  N   UNL     1       2.986   3.013  18.740  0.00  0.00    +0.000 NA
ATOM      2  C   UNL     1       1.922   2.532  19.624  0.00  0.00    +0.000 C 
ATOM      3  S   UNL     1       2.517   2.494  21.307  0.00  0.00    +0.000 S 
ATOM      4  C   UNL     1       4.248   2.574  20.838  0.00  0.00    +0.000 C 
ATOM      5  C   UNL     1       4.341   2.960  19.355  0.00  0.00    +0.000 C 
ENDROOT
BRANCH   5   6
ATOM      6  C   UNL     1       5.306   4.138  19.185  0.00  0.00    +0.000 C 
ATOM      7  O   UNL     1       5.296   5.142  19.888  0.00  0.00    +0.000 OA
ATOM      8  N   UNL     1       6.262   3.944  18.205  0.00  0.00    +0.000 N 
ATOM      9  H   UNL     1       5.927   3.437  17.381  0.00  0.00    +0.000 HD
BRANCH   8  10
ATOM     10  C   UNL     1       7.252   4.989  17.925  0.00  0.00    +0.000 C 
BRANCH  10  11
ATOM     11  C   UNL     1       6.817   6.044  16.903  0.00  0.00    +0.000 C 
ATOM     12  F   UNL     1       7.782   6.972  16.698  0.00  0.00    +0.000 F 
ATOM     13  F   UNL     1       6.537   5.481  15.705  0.00  0.00    +0.000 F 
ATOM     14  F   UNL     1       5.709   6.699  17.314  0.00  0.00    +0.000 F 
ENDBRANCH  10  11
ENDBRANCH   8  10
ENDBRANCH   5   6
BRANCH   1  15
ATOM     15  S   UNL     1       2.570   4.213  17.632  0.00  0.00    +0.000 S 
ATOM     16  O   UNL     1       1.279   3.876  17.077  0.00  0.00    +0.000 OA
ATOM     17  O   UNL     1       3.722   4.467  16.799  0.00  0.00    +0.000 OA
BRANCH  15  22
ATOM     18  C   UNL     1       1.257   9.044  21.071  0.00  0.00    +0.000 C 
ATOM     19  C   UNL     1       1.686   7.867  20.234  0.00  0.00    +0.000 A 
ATOM     20  C   UNL     1       1.652   6.577  20.795  0.00  0.00    +0.000 A 
ATOM     21  C   UNL     1       1.963   5.453  20.027  0.00  0.00    +0.000 A 
ATOM     22  C   UNL     1       2.304   5.622  18.688  0.00  0.00    +0.000 A 
ATOM     23  C   UNL     1       2.407   6.900  18.131  0.00  0.00    +0.000 A 
ATOM     24  C   UNL     1       2.100   8.033  18.896  0.00  0.00    +0.000 A 
ATOM     25  C   UNL     1       2.203   9.396  18.270  0.00  0.00    +0.000 C 
ENDBRANCH  15  22
ENDBRANCH   1  15
TORSDOF 5
ENDMDL
MODEL 3
REMARK VINA RESULT:      -7.0      0.784      1.132
REMARK  Name = 
REMARK  7 active torsions:
REMARK  status: ('A' for Active; 'I' for Inactive)
REMARK    1  A    between atoms: C_1  and  C_2
REMARK    2  A    between atoms: C_5  and  S_6
REMARK    3  A    between atoms: S_6  and  N_9
REMARK    4  A    between atoms: C_13  and  C_14
REMARK    5  A    between atoms: N_16  and  C_17
REMARK    6  A    between atoms: C_17  and  C_18
REMARK    7  A    between atoms: C_23  and  C_24
REMARK                            x       y       z     vdW  Elec       q    Type
REMARK                         _______ _______ _______ _____ _____    ______ ____
ROOT
ATOM      1  N   UNL     1       2.494   4.926  18.104  0.00  0.00    +0.000 NA
ATOM      2  C   UNL     1       1.527   4.499  19.117  0.00  0.00    +0.000 C 
ATOM      3  S   UNL     1       1.563   2.720  19.265  0.00  0.00    +0.000 S 
ATOM      4  C   UNL     1       2.400   2.474  17.695  0.00  0.00    +0.000 C 
ATOM      5  C   UNL     1       2.943   3.824  17.207  0.00  0.00    +0.000 C 
ENDROOT
BRANCH   5   6
ATOM      6  C   UNL     1       4.425   3.688  16.843  0.00  0.00    +0.000 C 
ATOM      7  O   UNL     1       5.284   3.263  17.608  0.00  0.00    +0.000 OA
ATOM      8  N   UNL     1       4.714   4.016  15.533  0.00  0.00    +0.000 N 
ATOM      9  H   UNL     1       4.169   4.799  15.161  0.00  0.00    +0.000 HD
BRANCH   8  10
ATOM     10  C   UNL     1       6.094   3.939  15.041  0.00  0.00    +0.000 C 
BRANCH  10  11
ATOM     11  C   UNL     1       6.247   3.981  13.518  0.00  0.00    +0.000 C 
ATOM     12  F   UNL     1       5.080   4.298  12.906  0.00  0.00    +0.000 F 
ATOM     13  F   UNL     1       7.163   4.902  13.142  0.00  0.00    +0.000 F 
ATOM     14  F   UNL     1       6.646   2.785  13.030  0.00  0.00    +0.000 F 
ENDBRANCH  10  11
ENDBRANCH   8  10
ENDBRANCH   5   6
BRANCH   1  15
ATOM     15  S   UNL     1       3.523   6.194  18.521  0.00  0.00    +0.000 S 
ATOM     16  O   UNL     1       4.246   6.586  17.332  0.00  0.00    +0.000 OA
ATOM     17  O   UNL     1       4.197   5.835  19.747  0.00  0.00    +0.000 OA
BRANCH  15  22
ATOM     18  C   UNL     1      -0.055  10.924  19.828  0.00  0.00    +0.000 C 
ATOM     19  C   UNL     1       0.745   9.690  19.504  0.00  0.00    +0.000 A 
ATOM     20  C   UNL     1       1.150   9.463  18.176  0.00  0.00    +0.000 A 
ATOM     21  C   UNL     1       1.962   8.374  17.850  0.00  0.00    +0.000 A 
ATOM     22  C   UNL     1       2.375   7.511  18.861  0.00  0.00    +0.000 A 
ATOM     23  C   UNL     1       1.929   7.683  20.175  0.00  0.00    +0.000 A 
ATOM     24  C   UNL     1       1.112   8.771  20.509  0.00  0.00    +0.000 A 
ATOM     25  C   UNL     1       0.659   8.943  21.933  0.00  0.00    +0.000 C 
ENDBRANCH  15  22
ENDBRANCH   1  15
TORSDOF 5
ENDMDL
MODEL 4
REMARK VINA RESULT:      -7.0      1.808      2.141
REMARK  Name = 
REMARK  7 active torsions:
REMARK  status: ('A' for Active; 'I' for Inactive)
REMARK    1  A    between atoms: C_1  and  C_2
REMARK    2  A    between atoms: C_5  and  S_6
REMARK    3  A    between atoms: S_6  and  N_9
REMARK    4  A    between atoms: C_13  and  C_14
REMARK    5  A    between atoms: N_16  and  C_17
REMARK    6  A    between atoms: C_17  and  C_18
REMARK    7  A    between atoms: C_23  and  C_24
REMARK                            x       y       z     vdW  Elec       q    Type
REMARK                         _______ _______ _______ _____ _____    ______ ____
ROOT
ATOM      1  N   UNL     1       2.151   4.601  18.833  0.00  0.00    +0.000 NA
ATOM      2  C   UNL     1       1.111   3.699  19.330  0.00  0.00    +0.000 C 
ATOM      3  S   UNL     1       1.416   2.047  18.725  0.00  0.00    +0.000 S 
ATOM      4  C   UNL     1       2.536   2.584  17.429  0.00  0.00    +0.000 C 
ATOM      5  C   UNL     1       2.922   4.048  17.684  0.00  0.00    +0.000 C 
ENDROOT
BRANCH   5   6
ATOM      6  C   UNL     1       4.446   4.198  17.641  0.00  0.00    +0.000 C 
ATOM      7  O   UNL     1       5.226   3.470  18.246  0.00  0.00    +0.000 OA
ATOM      8  N   UNL     1       4.888   5.191  16.787  0.00  0.00    +0.000 N 
ATOM      9  H   UNL     1       4.294   6.024  16.762  0.00  0.00    +0.000 HD
BRANCH   8  10
ATOM     10  C   UNL     1       6.324   5.454  16.645  0.00  0.00    +0.000 C 
BRANCH  10  11
ATOM     11  C   UNL     1       6.849   6.656  17.437  0.00  0.00    +0.000 C 
ATOM     12  F   UNL     1       5.913   7.630  17.546  0.00  0.00    +0.000 F 
ATOM     13  F   UNL     1       7.208   6.299  18.691  0.00  0.00    +0.000 F 
ATOM     14  F   UNL     1       7.932   7.202  16.841  0.00  0.00    +0.000 F 
ENDBRANCH  10  11
ENDBRANCH   8  10
ENDBRANCH   5   6
BRANCH   1  15
ATOM     15  S   UNL     1       2.871   5.627  19.960  0.00  0.00    +0.000 S 
ATOM     16  O   UNL     1       4.279   5.710  19.648  0.00  0.00    +0.000 OA
ATOM     17  O   UNL     1       2.395   5.251  21.271  0.00  0.00    +0.000 OA
BRANCH  15  22
ATOM     18  C   UNL     1       0.837  11.202  18.670  0.00  0.00    +0.000 C 
ATOM     19  C   UNL     1       1.242   9.785  18.977  0.00  0.00    +0.000 A 
ATOM     20  C   UNL     1       1.867   9.017  17.976  0.00  0.00    +0.000 A 
ATOM     21  C   UNL     1       2.329   7.728  18.247  0.00  0.00    +0.000 A 
ATOM     22  C   UNL     1       2.172   7.206  19.528  0.00  0.00    +0.000 A 
ATOM     23  C   UNL     1       1.496   7.929  20.516  0.00  0.00    +0.000 A 
ATOM     24  C   UNL     1       1.025   9.221  20.251  0.00  0.00    +0.000 A 
ATOM     25  C   UNL     1       0.314   9.984  21.335  0.00  0.00    +0.000 C 
ENDBRANCH  15  22
ENDBRANCH   1  15
TORSDOF 5
ENDMDL
MODEL 5
REMARK VINA RESULT:      -7.0      2.029      2.338
REMARK  Name = 
REMARK  7 active torsions:
REMARK  status: ('A' for Active; 'I' for Inactive)
REMARK    1  A    between atoms: C_1  and  C_2
REMARK    2  A    between atoms: C_5  and  S_6
REMARK    3  A    between atoms: S_6  and  N_9
REMARK    4  A    between atoms: C_13  and  C_14
REMARK    5  A    between atoms: N_16  and  C_17
REMARK    6  A    between atoms: C_17  and  C_18
REMARK    7  A    between atoms: C_23  and  C_24
REMARK                            x       y       z     vdW  Elec       q    Type
REMARK                         _______ _______ _______ _____ _____    ______ ____
ROOT
ATOM      1  N   UNL     1       2.627   5.114  17.977  0.00  0.00    +0.000 NA
ATOM      2  C   UNL     1       1.637   4.530  18.883  0.00  0.00    +0.000 C 
ATOM      3  S   UNL     1       1.795   2.751  18.872  0.00  0.00    +0.000 S 
ATOM      4  C   UNL     1       2.738   2.711  17.344  0.00  0.00    +0.000 C 
ATOM      5  C   UNL     1       3.207   4.136  17.016  0.00  0.00    +0.000 C 
ENDROOT
BRANCH   5   6
ATOM      6  C   UNL     1       4.714   4.135  16.738  0.00  0.00    +0.000 C 
ATOM      7  O   UNL     1       5.206   4.065  15.617  0.00  0.00    +0.000 OA
ATOM      8  N   UNL     1       5.493   4.300  17.867  0.00  0.00    +0.000 N 
ATOM      9  H   UNL     1       5.130   3.837  18.704  0.00  0.00    +0.000 HD
BRANCH   8  10
ATOM     10  C   UNL     1       6.956   4.315  17.756  0.00  0.00    +0.000 C 
BRANCH  10  11
ATOM     11  C   UNL     1       7.665   5.363  18.620  0.00  0.00    +0.000 C 
ATOM     12  F   UNL     1       7.971   6.474  17.908  0.00  0.00    +0.000 F 
ATOM     13  F   UNL     1       6.889   5.750  19.658  0.00  0.00    +0.000 F 
ATOM     14  F   UNL     1       8.819   4.880  19.130  0.00  0.00    +0.000 F 
ENDBRANCH  10  11
ENDBRANCH   8  10
ENDBRANCH   5   6
BRANCH   1  15
ATOM     15  S   UNL     1       3.535   6.404  18.572  0.00  0.00    +0.000 S 
ATOM     16  O   UNL     1       4.349   6.909  17.490  0.00  0.00    +0.000 OA
ATOM     17  O   UNL     1       4.102   6.003  19.837  0.00  0.00    +0.000 OA
BRANCH  15  22
ATOM     18  C   UNL     1      -0.415  10.870  19.732  0.00  0.00    +0.000 C 
ATOM     19  C   UNL     1       0.482   9.695  19.444  0.00  0.00    +0.000 A 
ATOM     20  C   UNL     1       0.925   9.475  18.127  0.00  0.00    +0.000 A 
ATOM     21  C   UNL     1       1.823   8.446  17.835  0.00  0.00    +0.000 A 
ATOM     22  C   UNL     1       2.284   7.636  18.869  0.00  0.00    +0.000 A 
ATOM     23  C   UNL     1       1.805   7.798  20.172  0.00  0.00    +0.000 A 
ATOM     24  C   UNL     1       0.901   8.826  20.473  0.00  0.00    +0.000 A 
ATOM     25  C   UNL     1       0.412   8.989  21.885  0.00  0.00    +0.000 C 
ENDBRANCH  15  22
ENDBRANCH   1  15
TORSDOF 5
ENDMDL
MODEL 6
REMARK VINA RESULT:      -6.9      0.890      1.070
REMARK  Name = 
REMARK  7 active torsions:
REMARK  status: ('A' for Active; 'I' for Inactive)
REMARK    1  A    between atoms: C_1  and  C_2
REMARK    2  A    between atoms: C_5  and  S_6
REMARK    3  A    between atoms: S_6  and  N_9
REMARK    4  A    between atoms: C_13  and  C_14
REMARK    5  A    between atoms: N_16  and  C_17
REMARK    6  A    between atoms: C_17  and  C_18
REMARK    7  A    between atoms: C_23  and  C_24
REMARK                            x       y       z     vdW  Elec       q    Type
REMARK                         _______ _______ _______ _____ _____    ______ ____
ROOT
ATOM      1  N   UNL     1       2.198   4.945  18.306  0.00  0.00    +0.000 NA
ATOM      2  C   UNL     1       1.141   4.745  19.299  0.00  0.00    +0.000 C 
ATOM      3  S   UNL     1       1.024   3.010  19.703  0.00  0.00    +0.000 S 
ATOM      4  C   UNL     1       1.929   2.473  18.248  0.00  0.00    +0.000 C 
ATOM      5  C   UNL     1       2.607   3.693  17.610  0.00  0.00    +0.000 C 
ENDROOT
BRANCH   5   6
ATOM      6  C   UNL     1       4.092   3.398  17.374  0.00  0.00    +0.000 C 
ATOM      7  O   UNL     1       4.775   2.685  18.102  0.00  0.00    +0.000 OA
ATOM      8  N   UNL     1       4.597   3.948  16.211  0.00  0.00    +0.000 N 
ATOM      9  H   UNL     1       4.218   4.870  15.979  0.00  0.00    +0.000 HD
BRANCH   8  10
ATOM     10  C   UNL     1       6.006   3.753  15.856  0.00  0.00    +0.000 C 
BRANCH  10  11
ATOM     11  C   UNL     1       6.979   4.766  16.466  0.00  0.00    +0.000 C 
ATOM     12  F   UNL     1       8.010   4.153  17.098  0.00  0.00    +0.000 F 
ATOM     13  F   UNL     1       7.509   5.571  15.518  0.00  0.00    +0.000 F 
ATOM     14  F   UNL     1       6.362   5.554  17.374  0.00  0.00    +0.000 F 
ENDBRANCH  10  11
ENDBRANCH   8  10
ENDBRANCH   5   6
BRANCH   1  15
ATOM     15  S   UNL     1       3.301   6.184  18.606  0.00  0.00    +0.000 S 
ATOM     16  O   UNL     1       3.931   6.530  17.353  0.00  0.00    +0.000 OA
ATOM     17  O   UNL     1       4.066   5.824  19.777  0.00  0.00    +0.000 OA
BRANCH  15  22
ATOM     18  C   UNL     1       0.006  11.048  20.144  0.00  0.00    +0.000 C 
ATOM     19  C   UNL     1       0.733   9.785  19.765  0.00  0.00    +0.000 A 
ATOM     20  C   UNL     1       1.075   9.567  18.418  0.00  0.00    +0.000 A 
ATOM     21  C   UNL     1       1.821   8.448  18.040  0.00  0.00    +0.000 A 
ATOM     22  C   UNL     1       2.231   7.546  19.017  0.00  0.00    +0.000 A 
ATOM     23  C   UNL     1       1.845   7.711  20.351  0.00  0.00    +0.000 A 
ATOM     24  C   UNL     1       1.094   8.829  20.738  0.00  0.00    +0.000 A 
ATOM     25  C   UNL     1       0.704   8.992  22.181  0.00  0.00    +0.000 C 
ENDBRANCH  15  22
ENDBRANCH   1  15
TORSDOF 5
ENDMDL
MODEL 7
REMARK VINA RESULT:      -6.9      0.550      1.395
REMARK  Name = 
REMARK  7 active torsions:
REMARK  status: ('A' for Active; 'I' for Inactive)
REMARK    1  A    between atoms: C_1  and  C_2
REMARK    2  A    between atoms: C_5  and  S_6
REMARK    3  A    between atoms: S_6  and  N_9
REMARK    4  A    between atoms: C_13  and  C_14
REMARK    5  A    between atoms: N_16  and  C_17
REMARK    6  A    between atoms: C_17  and  C_18
REMARK    7  A    between atoms: C_23  and  C_24
REMARK                            x       y       z     vdW  Elec       q    Type
REMARK                         _______ _______ _______ _____ _____    ______ ____
ROOT
ATOM      1  N   UNL     1       2.085   4.840  18.569  0.00  0.00    +0.000 NA
ATOM      2  C   UNL     1       1.111   4.629  19.642  0.00  0.00    +0.000 C 
ATOM      3  S   UNL     1       0.966   2.882  19.980  0.00  0.00    +0.000 S 
ATOM      4  C   UNL     1       1.724   2.383  18.430  0.00  0.00    +0.000 C 
ATOM      5  C   UNL     1       2.389   3.609  17.788  0.00  0.00    +0.000 C 
ENDROOT
BRANCH   5   6
ATOM      6  C   UNL     1       3.837   3.278  17.413  0.00  0.00    +0.000 C 
ATOM      7  O   UNL     1       4.512   2.418  17.969  0.00  0.00    +0.000 OA
ATOM      8  N   UNL     1       4.310   3.984  16.324  0.00  0.00    +0.000 N 
ATOM      9  H   UNL     1       3.979   4.952  16.269  0.00  0.00    +0.000 HD
BRANCH   8  10
ATOM     10  C   UNL     1       5.683   3.776  15.851  0.00  0.00    +0.000 C 
BRANCH  10  11
ATOM     11  C   UNL     1       6.115   4.673  14.687  0.00  0.00    +0.000 C 
ATOM     12  F   UNL     1       7.451   4.899  14.699  0.00  0.00    +0.000 F 
ATOM     13  F   UNL     1       5.811   4.113  13.495  0.00  0.00    +0.000 F 
ATOM     14  F   UNL     1       5.503   5.877  14.741  0.00  0.00    +0.000 F 
ENDBRANCH  10  11
ENDBRANCH   8  10
ENDBRANCH   5   6
BRANCH   1  15
ATOM     15  S   UNL     1       3.253   6.028  18.825  0.00  0.00    +0.000 S 
ATOM     16  O   UNL     1       3.701   6.495  17.533  0.00  0.00    +0.000 OA
ATOM     17  O   UNL     1       4.172   5.541  19.827  0.00  0.00    +0.000 OA
BRANCH  15  22
ATOM     18  C   UNL     1      -0.381  10.365  21.034  0.00  0.00    +0.000 C 
ATOM     19  C   UNL     1       0.602   9.356  20.501  0.00  0.00    +0.000 A 
ATOM     20  C   UNL     1       1.035   8.310  21.337  0.00  0.00    +0.000 A 
ATOM     21  C   UNL     1       1.881   7.310  20.854  0.00  0.00    +0.000 A 
ATOM     22  C   UNL     1       2.292   7.353  19.525  0.00  0.00    +0.000 A 
ATOM     23  C   UNL     1       1.925   8.419  18.698  0.00  0.00    +0.000 A 
ATOM     24  C   UNL     1       1.079   9.429  19.176  0.00  0.00    +0.000 A 
ATOM     25  C   UNL     1       0.686  10.556  18.262  0.00  0.00    +0.000 C 
ENDBRANCH  15  22
ENDBRANCH   1  15
TORSDOF 5
ENDMDL
MODEL 8
REMARK VINA RESULT:      -6.8      2.166      2.404
REMARK  Name = 
REMARK  7 active torsions:
REMARK  status: ('A' for Active; 'I' for Inactive)
REMARK    1  A    between atoms: C_1  and  C_2
REMARK    2  A    between atoms: C_5  and  S_6
REMARK    3  A    between atoms: S_6  and  N_9
REMARK    4  A    between atoms: C_13  and  C_14
REMARK    5  A    between atoms: N_16  and  C_17
REMARK    6  A    between atoms: C_17  and  C_18
REMARK    7  A    between atoms: C_23  and  C_24
REMARK                            x       y       z     vdW  Elec       q    Type
REMARK                         _______ _______ _______ _____ _____    ______ ____
ROOT
ATOM      1  N   UNL     1       2.854   5.365  17.836  0.00  0.00    +0.000 NA
ATOM      2  C   UNL     1       1.455   5.056  18.137  0.00  0.00    +0.000 C 
ATOM      3  S   UNL     1       1.261   3.291  18.323  0.00  0.00    +0.000 S 
ATOM      4  C   UNL     1       2.811   2.900  17.505  0.00  0.00    +0.000 C 
ATOM      5  C   UNL     1       3.639   4.186  17.376  0.00  0.00    +0.000 C 
ENDROOT
BRANCH   5   6
ATOM      6  C   UNL     1       5.054   3.950  17.915  0.00  0.00    +0.000 C 
ATOM      7  O   UNL     1       5.338   3.097  18.748  0.00  0.00    +0.000 OA
ATOM      8  N   UNL     1       6.021   4.739  17.321  0.00  0.00    +0.000 N 
ATOM      9  H   UNL     1       5.713   5.690  17.096  0.00  0.00    +0.000 HD
BRANCH   8  10
ATOM     10  C   UNL     1       7.422   4.627  17.739  0.00  0.00    +0.000 C 
BRANCH  10  11
ATOM     11  C   UNL     1       7.842   5.566  18.873  0.00  0.00    +0.000 C 
ATOM     12  F   UNL     1       8.892   5.071  19.571  0.00  0.00    +0.000 F 
ATOM     13  F   UNL     1       8.209   6.778  18.397  0.00  0.00    +0.000 F 
ATOM     14  F   UNL     1       6.831   5.761  19.749  0.00  0.00    +0.000 F 
ENDBRANCH  10  11
ENDBRANCH   8  10
ENDBRANCH   5   6
BRANCH   1  15
ATOM     15  S   UNL     1       3.569   6.603  18.729  0.00  0.00    +0.000 S 
ATOM     16  O   UNL     1       4.569   7.231  17.895  0.00  0.00    +0.000 OA
ATOM     17  O   UNL     1       3.879   6.083  20.040  0.00  0.00    +0.000 OA
BRANCH  15  22
ATOM     18  C   UNL     1      -0.683  10.888  19.397  0.00  0.00    +0.000 C 
ATOM     19  C   UNL     1       0.293   9.753  19.227  0.00  0.00    +0.000 A 
ATOM     20  C   UNL     1       0.857   9.517  17.960  0.00  0.00    +0.000 A 
ATOM     21  C   UNL     1       1.826   8.527  17.781  0.00  0.00    +0.000 A 
ATOM     22  C   UNL     1       2.238   7.775  18.877  0.00  0.00    +0.000 A 
ATOM     23  C   UNL     1       1.642   7.952  20.130  0.00  0.00    +0.000 A 
ATOM     24  C   UNL     1       0.666   8.940  20.317  0.00  0.00    +0.000 A 
ATOM     25  C   UNL     1       0.051   9.120  21.677  0.00  0.00    +0.000 C 
ENDBRANCH  15  22
ENDBRANCH   1  15
TORSDOF 5
ENDMDL
MODEL 9
REMARK VINA RESULT:      -6.8      1.104      1.261
REMARK  Name = 
REMARK  7 active torsions:
REMARK  status: ('A' for Active; 'I' for Inactive)
REMARK    1  A    between atoms: C_1  and  C_2
REMARK    2  A    between atoms: C_5  and  S_6
REMARK    3  A    between atoms: S_6  and  N_9
REMARK    4  A    between atoms: C_13  and  C_14
REMARK    5  A    between atoms: N_16  and  C_17
REMARK    6  A    between atoms: C_17  and  C_18
REMARK    7  A    between atoms: C_23  and  C_24
REMARK                            x       y       z     vdW  Elec       q    Type
REMARK                         _______ _______ _______ _____ _____    ______ ____
ROOT
ATOM      1  N   UNL     1       1.994   4.618  18.949  0.00  0.00    +0.000 NA
ATOM      2  C   UNL     1       1.024   3.732  19.595  0.00  0.00    +0.000 C 
ATOM      3  S   UNL     1       1.245   2.065  18.994  0.00  0.00    +0.000 S 
ATOM      4  C   UNL     1       2.190   2.569  17.552  0.00  0.00    +0.000 C 
ATOM      5  C   UNL     1       2.609   4.036  17.724  0.00  0.00    +0.000 C 
ENDROOT
BRANCH   5   6
ATOM      6  C   UNL     1       4.116   4.177  17.481  0.00  0.00    +0.000 C 
ATOM      7  O   UNL     1       4.962   3.426  17.955  0.00  0.00    +0.000 OA
ATOM      8  N   UNL     1       4.451   5.193  16.606  0.00  0.00    +0.000 N 
ATOM      9  H   UNL     1       3.867   6.030  16.684  0.00  0.00    +0.000 HD
BRANCH   8  10
ATOM     10  C   UNL     1       5.858   5.450  16.281  0.00  0.00    +0.000 C 
BRANCH  10  11
ATOM     11  C   UNL     1       6.394   4.697  15.060  0.00  0.00    +0.000 C 
ATOM     12  F   UNL     1       6.699   3.411  15.359  0.00  0.00    +0.000 F 
ATOM     13  F   UNL     1       5.485   4.674  14.059  0.00  0.00    +0.000 F 
ATOM     14  F   UNL     1       7.516   5.276  14.579  0.00  0.00    +0.000 F 
ENDBRANCH  10  11
ENDBRANCH   8  10
ENDBRANCH   5   6
BRANCH   1  15
ATOM     15  S   UNL     1       2.855   5.664  19.952  0.00  0.00    +0.000 S 
ATOM     16  O   UNL     1       4.223   5.697  19.488  0.00  0.00    +0.000 OA
ATOM     17  O   UNL     1       2.514   5.351  21.320  0.00  0.00    +0.000 OA
BRANCH  15  22
ATOM     18  C   UNL     1       0.807  11.245  18.707  0.00  0.00    +0.000 C 
ATOM     19  C   UNL     1       1.215   9.826  19.003  0.00  0.00    +0.000 A 
ATOM     20  C   UNL     1       1.829   9.062  17.993  0.00  0.00    +0.000 A 
ATOM     21  C   UNL     1       2.294   7.772  18.253  0.00  0.00    +0.000 A 
ATOM     22  C   UNL     1       2.152   7.245  19.534  0.00  0.00    +0.000 A 
ATOM     23  C   UNL     1       1.487   7.964  20.532  0.00  0.00    +0.000 A 
ATOM     24  C   UNL     1       1.013   9.258  20.278  0.00  0.00    +0.000 A 
ATOM     25  C   UNL     1       0.315  10.016  21.373  0.00  0.00    +0.000 C 
ENDBRANCH  15  22
ENDBRANCH   1  15
TORSDOF 5
ENDMDL
