MODEL 1
REMARK VINA RESULT:      -7.8      0.000      0.000
REMARK  Name = 
REMARK  6 active torsions:
REMARK  status: ('A' for Active; 'I' for Inactive)
REMARK    1  A    between atoms: C_2  and  C_3
REMARK    2  A    between atoms: C_2  and  C_16
REMARK    3  A    between atoms: C_3  and  S_4
REMARK    4  A    between atoms: S_4  and  C_5
REMARK    5  A    between atoms: C_8  and  C_9
REMARK    6  A    between atoms: C_20  and  N_21
REMARK                            x       y       z     vdW  Elec       q    Type
REMARK                         _______ _______ _______ _____ _____    ______ ____
ROOT
ATOM      1  C   UNL     1       7.590   4.514  17.059  0.00  0.00    +0.000 C 
ENDROOT
BRANCH   1   3
ATOM      2  O   UNL     1       5.241   4.750  16.458  0.00  0.00    +0.000 OA
ATOM      3  C   UNL     1       6.409   4.606  16.094  0.00  0.00    +0.000 C 
BRANCH   3   4
ATOM      4  C   UNL     1       6.663   4.523  14.621  0.00  0.00    +0.000 A 
ATOM      5  C   UNL     1       7.644   5.293  13.982  0.00  0.00    +0.000 A 
ATOM      6  C   UNL     1       7.833   5.190  12.598  0.00  0.00    +0.000 A 
ATOM      7  C   UNL     1       7.048   4.320  11.840  0.00  0.00    +0.000 A 
ATOM      8  C   UNL     1       6.073   3.543  12.476  0.00  0.00    +0.000 A 
ATOM      9  C   UNL     1       5.880   3.636  13.860  0.00  0.00    +0.000 A 
BRANCH   8  10
ATOM     10  N   UNL     1       5.246   2.625  11.681  0.00  0.00    +0.000 N 
ATOM     11  O   UNL     1       4.091   2.981  11.407  0.00  0.00    +0.000 OA
ATOM     12  O   UNL     1       5.751   1.549  11.331  0.00  0.00    +0.000 OA
ENDBRANCH   8  10
ENDBRANCH   3   4
ENDBRANCH   1   3
BRANCH   1  13
ATOM     13  S   UNL     1       7.240   5.433  18.591  0.00  0.00    +0.000 S 
BRANCH  13  14
ATOM     14  C   UNL     1       7.616   7.063  18.137  0.00  0.00    +0.000 A 
ATOM     15  N   UNL     1       7.141   7.695  17.083  0.00  0.00    +0.000 NA
ATOM     16  N   UNL     1       7.672   8.973  17.122  0.00  0.00    +0.000 NA
ATOM     17  C   UNL     1       8.437   9.033  18.194  0.00  0.00    +0.000 A 
ATOM     18  O   UNL     1       8.457   7.849  18.882  0.00  0.00    +0.000 OA
BRANCH  17  19
ATOM     19  C   UNL     1       9.239  10.135  18.718  0.00  0.00    +0.000 A 
ATOM     20  C   UNL     1       9.285  10.360  20.104  0.00  0.00    +0.000 A 
ATOM     21  C   UNL     1      10.014  11.429  20.635  0.00  0.00    +0.000 A 
ATOM     22  C   UNL     1      10.709  12.289  19.787  0.00  0.00    +0.000 A 
ATOM     23  C   UNL     1      10.688  12.070  18.412  0.00  0.00    +0.000 A 
ATOM     24  C   UNL     1       9.962  10.998  17.880  0.00  0.00    +0.000 A 
ENDBRANCH  17  19
ENDBRANCH  13  14
ENDBRANCH   1  13
TORSDOF 6
ENDMDL
MODEL 2
REMARK VINA RESULT:      -7.8      4.521      8.347
REMARK  Name = 
REMARK  6 active torsions:
REMARK  status: ('A' for Active; 'I' for Inactive)
REMARK    1  A    between atoms: C_2  and  C_3
REMARK    2  A    between atoms: C_2  and  C_16
REMARK    3  A    between atoms: C_3  and  S_4
REMARK    4  A    between atoms: S_4  and  C_5
REMARK    5  A    between atoms: C_8  and  C_9
REMARK    6  A    between atoms: C_20  and  N_21
REMARK                            x       y       z     vdW  Elec       q    Type
REMARK                         _______ _______ _______ _____ _____    ______ ____
ROOT
ATOM      1  C   UNL     1       3.981   6.852  17.188  0.00  0.00    +0.000 C 
ENDROOT
BRANCH   1   3
ATOM      2  O   UNL     1       2.196   7.174  18.814  0.00  0.00    +0.000 OA
ATOM      3  C   UNL     1       2.926   6.398  18.195  0.00  0.00    +0.000 C 
BRANCH   3   4
ATOM      4  C   UNL     1       2.751   4.935  18.457  0.00  0.00    +0.000 A 
ATOM      5  C   UNL     1       2.483   4.014  17.436  0.00  0.00    +0.000 A 
ATOM      6  C   UNL     1       2.313   2.657  17.734  0.00  0.00    +0.000 A 
ATOM      7  C   UNL     1       2.408   2.205  19.051  0.00  0.00    +0.000 A 
ATOM      8  C   UNL     1       2.683   3.120  20.074  0.00  0.00    +0.000 A 
ATOM      9  C   UNL     1       2.859   4.479  19.784  0.00  0.00    +0.000 A 
BRANCH   8  10
ATOM     10  N   UNL     1       2.785   2.647  21.461  0.00  0.00    +0.000 N 
ATOM     11  O   UNL     1       1.932   3.043  22.268  0.00  0.00    +0.000 OA
ATOM     12  O   UNL     1       3.717   1.881  21.743  0.00  0.00    +0.000 OA
ENDBRANCH   8  10
ENDBRANCH   3   4
ENDBRANCH   1   3
BRANCH   1  13
ATOM     13  S   UNL     1       5.637   6.294  17.699  0.00  0.00    +0.000 S 
BRANCH  13  14
ATOM     14  C   UNL     1       6.316   5.737  16.206  0.00  0.00    +0.000 A 
ATOM     15  N   UNL     1       7.534   5.991  15.774  0.00  0.00    +0.000 NA
ATOM     16  N   UNL     1       7.668   5.331  14.565  0.00  0.00    +0.000 NA
ATOM     17  C   UNL     1       6.521   4.721  14.338  0.00  0.00    +0.000 A 
ATOM     18  O   UNL     1       5.610   4.944  15.337  0.00  0.00    +0.000 OA
BRANCH  17  19
ATOM     19  C   UNL     1       6.103   3.887  13.215  0.00  0.00    +0.000 A 
ATOM     20  C   UNL     1       7.060   3.133  12.518  0.00  0.00    +0.000 A 
ATOM     21  C   UNL     1       6.698   2.353  11.415  0.00  0.00    +0.000 A 
ATOM     22  C   UNL     1       5.370   2.317  10.993  0.00  0.00    +0.000 A 
ATOM     23  C   UNL     1       4.405   3.046  11.683  0.00  0.00    +0.000 A 
ATOM     24  C   UNL     1       4.767   3.822  12.790  0.00  0.00    +0.000 A 
ENDBRANCH  17  19
ENDBRANCH  13  14
ENDBRANCH   1  13
TORSDOF 6
ENDMDL
MODEL 3
REMARK VINA RESULT:      -7.6      5.256      9.059
REMARK  Name = 
REMARK  6 active torsions:
REMARK  status: ('A' for Active; 'I' for Inactive)
REMARK    1  A    between atoms: C_2  and  C_3
REMARK    2  A    between atoms: C_2  and  C_16
REMARK    3  A    between atoms: C_3  and  S_4
REMARK    4  A    between atoms: S_4  and  C_5
REMARK    5  A    between atoms: C_8  and  C_9
REMARK    6  A    between atoms: C_20  and  N_21
REMARK                            x       y       z     vdW  Elec       q    Type
REMARK                         _______ _______ _______ _____ _____    ______ ____
ROOT
ATOM      1  C   UNL     1       3.823   6.359  18.744  0.00  0.00    +0.000 C 
ENDROOT
BRANCH   1   3
ATOM      2  O   UNL     1       2.023   5.615  20.207  0.00  0.00    +0.000 OA
ATOM      3  C   UNL     1       2.544   6.526  19.563  0.00  0.00    +0.000 C 
BRANCH   3   4
ATOM      4  C   UNL     1       1.873   7.864  19.600  0.00  0.00    +0.000 A 
ATOM      5  C   UNL     1       1.748   8.676  18.465  0.00  0.00    +0.000 A 
ATOM      6  C   UNL     1       1.125   9.926  18.555  0.00  0.00    +0.000 A 
ATOM      7  C   UNL     1       0.621  10.379  19.775  0.00  0.00    +0.000 A 
ATOM      8  C   UNL     1       0.736   9.568  20.910  0.00  0.00    +0.000 A 
ATOM      9  C   UNL     1       1.354   8.314  20.828  0.00  0.00    +0.000 A 
BRANCH   8  10
ATOM     10  N   UNL     1       0.206  10.042  22.196  0.00  0.00    +0.000 N 
ATOM     11  O   UNL     1      -0.823  10.732  22.174  0.00  0.00    +0.000 OA
ATOM     12  O   UNL     1       0.817   9.723  23.225  0.00  0.00    +0.000 OA
ENDBRANCH   8  10
ENDBRANCH   3   4
ENDBRANCH   1   3
BRANCH   1  13
ATOM     13  S   UNL     1       4.743   4.884  19.285  0.00  0.00    +0.000 S 
BRANCH  13  14
ATOM     14  C   UNL     1       5.940   4.719  18.043  0.00  0.00    +0.000 A 
ATOM     15  N   UNL     1       7.232   4.556  18.240  0.00  0.00    +0.000 NA
ATOM     16  N   UNL     1       7.807   4.437  16.986  0.00  0.00    +0.000 NA
ATOM     17  C   UNL     1       6.827   4.540  16.109  0.00  0.00    +0.000 A 
ATOM     18  O   UNL     1       5.612   4.732  16.712  0.00  0.00    +0.000 OA
BRANCH  17  19
ATOM     19  C   UNL     1       6.859   4.491  14.651  0.00  0.00    +0.000 A 
ATOM     20  C   UNL     1       6.034   3.582  13.969  0.00  0.00    +0.000 A 
ATOM     21  C   UNL     1       6.068   3.485  12.574  0.00  0.00    +0.000 A 
ATOM     22  C   UNL     1       6.930   4.297  11.840  0.00  0.00    +0.000 A 
ATOM     23  C   UNL     1       7.743   5.217  12.498  0.00  0.00    +0.000 A 
ATOM     24  C   UNL     1       7.705   5.318  13.894  0.00  0.00    +0.000 A 
ENDBRANCH  17  19
ENDBRANCH  13  14
ENDBRANCH   1  13
TORSDOF 6
ENDMDL
MODEL 4
REMARK VINA RESULT:      -7.5      4.443      8.176
REMARK  Name = 
REMARK  6 active torsions:
REMARK  status: ('A' for Active; 'I' for Inactive)
REMARK    1  A    between atoms: C_2  and  C_3
REMARK    2  A    between atoms: C_2  and  C_16
REMARK    3  A    between atoms: C_3  and  S_4
REMARK    4  A    between atoms: S_4  and  C_5
REMARK    5  A    between atoms: C_8  and  C_9
REMARK    6  A    between atoms: C_20  and  N_21
REMARK                            x       y       z     vdW  Elec       q    Type
REMARK                         _______ _______ _______ _____ _____    ______ ____
ROOT
ATOM      1  C   UNL     1       5.273   5.933  19.121  0.00  0.00    +0.000 C 
ENDROOT
BRANCH   1   3
ATOM      2  O   UNL     1       3.867   6.382  17.183  0.00  0.00    +0.000 OA
ATOM      3  C   UNL     1       4.056   5.741  18.217  0.00  0.00    +0.000 C 
BRANCH   3   4
ATOM      4  C   UNL     1       3.027   4.719  18.589  0.00  0.00    +0.000 A 
ATOM      5  C   UNL     1       1.993   4.342  17.722  0.00  0.00    +0.000 A 
ATOM      6  C   UNL     1       1.045   3.393  18.122  0.00  0.00    +0.000 A 
ATOM      7  C   UNL     1       1.119   2.811  19.389  0.00  0.00    +0.000 A 
ATOM      8  C   UNL     1       2.155   3.179  20.255  0.00  0.00    +0.000 A 
ATOM      9  C   UNL     1       3.109   4.124  19.861  0.00  0.00    +0.000 A 
BRANCH   8  10
ATOM     10  N   UNL     1       2.235   2.567  21.588  0.00  0.00    +0.000 N 
ATOM     11  O   UNL     1       3.342   2.163  21.970  0.00  0.00    +0.000 OA
ATOM     12  O   UNL     1       1.192   2.490  22.253  0.00  0.00    +0.000 OA
ENDBRANCH   8  10
ENDBRANCH   3   4
ENDBRANCH   1   3
BRANCH   1  13
ATOM     13  S   UNL     1       6.550   4.690  18.750  0.00  0.00    +0.000 S 
BRANCH  13  14
ATOM     14  C   UNL     1       6.836   4.947  17.060  0.00  0.00    +0.000 A 
ATOM     15  N   UNL     1       7.629   5.864  16.546  0.00  0.00    +0.000 NA
ATOM     16  N   UNL     1       7.586   5.695  15.173  0.00  0.00    +0.000 NA
ATOM     17  C   UNL     1       6.766   4.688  14.942  0.00  0.00    +0.000 A 
ATOM     18  O   UNL     1       6.243   4.170  16.098  0.00  0.00    +0.000 OA
BRANCH  17  19
ATOM     19  C   UNL     1       6.349   4.084  13.680  0.00  0.00    +0.000 A 
ATOM     20  C   UNL     1       4.989   3.809  13.459  0.00  0.00    +0.000 A 
ATOM     21  C   UNL     1       4.562   3.197  12.276  0.00  0.00    +0.000 A 
ATOM     22  C   UNL     1       5.489   2.851  11.296  0.00  0.00    +0.000 A 
ATOM     23  C   UNL     1       6.840   3.131  11.492  0.00  0.00    +0.000 A 
ATOM     24  C   UNL     1       7.267   3.748  12.673  0.00  0.00    +0.000 A 
ENDBRANCH  17  19
ENDBRANCH  13  14
ENDBRANCH   1  13
TORSDOF 6
ENDMDL
MODEL 5
REMARK VINA RESULT:      -7.5      5.812      7.469
REMARK  Name = 
REMARK  6 active torsions:
REMARK  status: ('A' for Active; 'I' for Inactive)
REMARK    1  A    between atoms: C_2  and  C_3
REMARK    2  A    between atoms: C_2  and  C_16
REMARK    3  A    between atoms: C_3  and  S_4
REMARK    4  A    between atoms: S_4  and  C_5
REMARK    5  A    between atoms: C_8  and  C_9
REMARK    6  A    between atoms: C_20  and  N_21
REMARK                            x       y       z     vdW  Elec       q    Type
REMARK                         _______ _______ _______ _____ _____    ______ ____
ROOT
ATOM      1  C   UNL     1       2.417   4.403  18.238  0.00  0.00    +0.000 C 
ENDROOT
BRANCH   1   3
ATOM      2  O   UNL     1       3.517   2.254  17.908  0.00  0.00    +0.000 OA
ATOM      3  C   UNL     1       3.568   3.483  17.835  0.00  0.00    +0.000 C 
BRANCH   3   4
ATOM      4  C   UNL     1       4.836   4.086  17.317  0.00  0.00    +0.000 A 
ATOM      5  C   UNL     1       5.186   4.055  15.960  0.00  0.00    +0.000 A 
ATOM      6  C   UNL     1       6.391   4.621  15.527  0.00  0.00    +0.000 A 
ATOM      7  C   UNL     1       7.258   5.222  16.441  0.00  0.00    +0.000 A 
ATOM      8  C   UNL     1       6.910   5.263  17.795  0.00  0.00    +0.000 A 
ATOM      9  C   UNL     1       5.704   4.703  18.237  0.00  0.00    +0.000 A 
BRANCH   8  10
ATOM     10  N   UNL     1       7.820   5.896  18.759  0.00  0.00    +0.000 N 
ATOM     11  O   UNL     1       8.160   5.235  19.750  0.00  0.00    +0.000 OA
ATOM     12  O   UNL     1       8.194   7.054  18.525  0.00  0.00    +0.000 OA
ENDBRANCH   8  10
ENDBRANCH   3   4
ENDBRANCH   1   3
BRANCH   1  13
ATOM     13  S   UNL     1       2.622   4.970  19.957  0.00  0.00    +0.000 S 
BRANCH  13  14
ATOM     14  C   UNL     1       2.141   6.631  19.857  0.00  0.00    +0.000 A 
ATOM     15  N   UNL     1       2.399   7.446  18.855  0.00  0.00    +0.000 NA
ATOM     16  N   UNL     1       1.808   8.657  19.173  0.00  0.00    +0.000 NA
ATOM     17  C   UNL     1       1.233   8.501  20.349  0.00  0.00    +0.000 A 
ATOM     18  O   UNL     1       1.414   7.238  20.850  0.00  0.00    +0.000 OA
BRANCH  17  19
ATOM     19  C   UNL     1       0.475   9.447  21.161  0.00  0.00    +0.000 A 
ATOM     20  C   UNL     1       0.192  10.725  20.652  0.00  0.00    +0.000 A 
ATOM     21  C   UNL     1      -0.501  11.668  21.419  0.00  0.00    +0.000 A 
ATOM     22  C   UNL     1      -0.921  11.346  22.708  0.00  0.00    +0.000 A 
ATOM     23  C   UNL     1      -0.663  10.077  23.222  0.00  0.00    +0.000 A 
ATOM     24  C   UNL     1       0.025   9.132  22.453  0.00  0.00    +0.000 A 
ENDBRANCH  17  19
ENDBRANCH  13  14
ENDBRANCH   1  13
TORSDOF 6
ENDMDL
MODEL 6
REMARK VINA RESULT:      -7.5      3.030      4.714
REMARK  Name = 
REMARK  6 active torsions:
REMARK  status: ('A' for Active; 'I' for Inactive)
REMARK    1  A    between atoms: C_2  and  C_3
REMARK    2  A    between atoms: C_2  and  C_16
REMARK    3  A    between atoms: C_3  and  S_4
REMARK    4  A    between atoms: S_4  and  C_5
REMARK    5  A    between atoms: C_8  and  C_9
REMARK    6  A    between atoms: C_20  and  N_21
REMARK                            x       y       z     vdW  Elec       q    Type
REMARK                         _______ _______ _______ _____ _____    ______ ____
ROOT
ATOM      1  C   UNL     1       6.740   5.588  16.428  0.00  0.00    +0.000 C 
ENDROOT
BRANCH   1   3
ATOM      2  O   UNL     1       5.775   3.400  15.964  0.00  0.00    +0.000 OA
ATOM      3  C   UNL     1       5.689   4.485  16.540  0.00  0.00    +0.000 C 
BRANCH   3   4
ATOM      4  C   UNL     1       4.481   4.714  17.395  0.00  0.00    +0.000 A 
ATOM      5  C   UNL     1       3.795   5.935  17.416  0.00  0.00    +0.000 A 
ATOM      6  C   UNL     1       2.679   6.105  18.244  0.00  0.00    +0.000 A 
ATOM      7  C   UNL     1       2.237   5.060  19.058  0.00  0.00    +0.000 A 
ATOM      8  C   UNL     1       2.915   3.836  19.034  0.00  0.00    +0.000 A 
ATOM      9  C   UNL     1       4.030   3.657  18.205  0.00  0.00    +0.000 A 
BRANCH   8  10
ATOM     10  N   UNL     1       2.452   2.735  19.889  0.00  0.00    +0.000 N 
ATOM     11  O   UNL     1       1.626   1.945  19.412  0.00  0.00    +0.000 OA
ATOM     12  O   UNL     1       2.914   2.661  21.037  0.00  0.00    +0.000 OA
ENDBRANCH   8  10
ENDBRANCH   3   4
ENDBRANCH   1   3
BRANCH   1  13
ATOM     13  S   UNL     1       7.491   5.924  18.052  0.00  0.00    +0.000 S 
BRANCH  13  14
ATOM     14  C   UNL     1       7.790   7.629  17.975  0.00  0.00    +0.000 A 
ATOM     15  N   UNL     1       7.142   8.489  17.217  0.00  0.00    +0.000 NA
ATOM     16  N   UNL     1       7.677   9.736  17.491  0.00  0.00    +0.000 NA
ATOM     17  C   UNL     1       8.620   9.552  18.395  0.00  0.00    +0.000 A 
ATOM     18  O   UNL     1       8.754   8.233  18.742  0.00  0.00    +0.000 OA
BRANCH  17  19
ATOM     19  C   UNL     1       9.507  10.515  19.040  0.00  0.00    +0.000 A 
ATOM     20  C   UNL     1      10.562  11.084  18.308  0.00  0.00    +0.000 A 
ATOM     21  C   UNL     1      11.452  11.981  18.907  0.00  0.00    +0.000 A 
ATOM     22  C   UNL     1      11.300  12.323  20.249  0.00  0.00    +0.000 A 
ATOM     23  C   UNL     1      10.249  11.781  20.986  0.00  0.00    +0.000 A 
ATOM     24  C   UNL     1       9.355  10.887  20.385  0.00  0.00    +0.000 A 
ENDBRANCH  17  19
ENDBRANCH  13  14
ENDBRANCH   1  13
TORSDOF 6
ENDMDL
MODEL 7
REMARK VINA RESULT:      -7.4      4.843      5.341
REMARK  Name = 
REMARK  6 active torsions:
REMARK  status: ('A' for Active; 'I' for Inactive)
REMARK    1  A    between atoms: C_2  and  C_3
REMARK    2  A    between atoms: C_2  and  C_16
REMARK    3  A    between atoms: C_3  and  S_4
REMARK    4  A    between atoms: S_4  and  C_5
REMARK    5  A    between atoms: C_8  and  C_9
REMARK    6  A    between atoms: C_20  and  N_21
REMARK                            x       y       z     vdW  Elec       q    Type
REMARK                         _______ _______ _______ _____ _____    ______ ____
ROOT
ATOM      1  C   UNL     1       4.653   4.494  16.456  0.00  0.00    +0.000 C 
ENDROOT
BRANCH   1   3
ATOM      2  O   UNL     1       6.988   5.092  16.815  0.00  0.00    +0.000 OA
ATOM      3  C   UNL     1       6.098   4.754  16.033  0.00  0.00    +0.000 C 
BRANCH   3   4
ATOM      4  C   UNL     1       6.475   4.592  14.593  0.00  0.00    +0.000 A 
ATOM      5  C   UNL     1       7.530   5.304  14.006  0.00  0.00    +0.000 A 
ATOM      6  C   UNL     1       7.835   5.128  12.651  0.00  0.00    +0.000 A 
ATOM      7  C   UNL     1       7.091   4.243  11.869  0.00  0.00    +0.000 A 
ATOM      8  C   UNL     1       6.042   3.524  12.452  0.00  0.00    +0.000 A 
ATOM      9  C   UNL     1       5.734   3.690  13.808  0.00  0.00    +0.000 A 
BRANCH   8  10
ATOM     10  N   UNL     1       5.259   2.591  11.631  0.00  0.00    +0.000 N 
ATOM     11  O   UNL     1       4.133   2.953  11.264  0.00  0.00    +0.000 OA
ATOM     12  O   UNL     1       5.770   1.496  11.355  0.00  0.00    +0.000 OA
ENDBRANCH   8  10
ENDBRANCH   3   4
ENDBRANCH   1   3
BRANCH   1  13
ATOM     13  S   UNL     1       4.600   3.669  18.078  0.00  0.00    +0.000 S 
BRANCH  13  14
ATOM     14  C   UNL     1       3.553   4.708  18.987  0.00  0.00    +0.000 A 
ATOM     15  N   UNL     1       2.964   4.400  20.124  0.00  0.00    +0.000 NA
ATOM     16  N   UNL     1       2.253   5.522  20.514  0.00  0.00    +0.000 NA
ATOM     17  C   UNL     1       2.453   6.438  19.586  0.00  0.00    +0.000 A 
ATOM     18  O   UNL     1       3.263   5.984  18.578  0.00  0.00    +0.000 OA
BRANCH  17  19
ATOM     19  C   UNL     1       1.945   7.802  19.484  0.00  0.00    +0.000 A 
ATOM     20  C   UNL     1       1.326   8.396  20.596  0.00  0.00    +0.000 A 
ATOM     21  C   UNL     1       0.796   9.689  20.520  0.00  0.00    +0.000 A 
ATOM     22  C   UNL     1       0.877  10.406  19.328  0.00  0.00    +0.000 A 
ATOM     23  C   UNL     1       1.503   9.838  18.220  0.00  0.00    +0.000 A 
ATOM     24  C   UNL     1       2.037   8.547  18.298  0.00  0.00    +0.000 A 
ENDBRANCH  17  19
ENDBRANCH  13  14
ENDBRANCH   1  13
TORSDOF 6
ENDMDL
MODEL 8
REMARK VINA RESULT:      -7.4      5.950      7.568
REMARK  Name = 
REMARK  6 active torsions:
REMARK  status: ('A' for Active; 'I' for Inactive)
REMARK    1  A    between atoms: C_2  and  C_3
REMARK    2  A    between atoms: C_2  and  C_16
REMARK    3  A    between atoms: C_3  and  S_4
REMARK    4  A    between atoms: S_4  and  C_5
REMARK    5  A    between atoms: C_8  and  C_9
REMARK    6  A    between atoms: C_20  and  N_21
REMARK                            x       y       z     vdW  Elec       q    Type
REMARK                         _______ _______ _______ _____ _____    ______ ____
ROOT
ATOM      1  C   UNL     1       2.456   5.901  18.472  0.00  0.00    +0.000 C 
ENDROOT
BRANCH   1   3
ATOM      2  O   UNL     1       2.518   3.521  17.954  0.00  0.00    +0.000 OA
ATOM      3  C   UNL     1       3.108   4.601  18.002  0.00  0.00    +0.000 C 
BRANCH   3   4
ATOM      4  C   UNL     1       4.541   4.620  17.570  0.00  0.00    +0.000 A 
ATOM      5  C   UNL     1       4.966   4.076  16.350  0.00  0.00    +0.000 A 
ATOM      6  C   UNL     1       6.321   4.105  15.997  0.00  0.00    +0.000 A 
ATOM      7  C   UNL     1       7.263   4.674  16.855  0.00  0.00    +0.000 A 
ATOM      8  C   UNL     1       6.842   5.225  18.071  0.00  0.00    +0.000 A 
ATOM      9  C   UNL     1       5.488   5.204  18.429  0.00  0.00    +0.000 A 
BRANCH   8  10
ATOM     10  N   UNL     1       7.831   5.826  18.975  0.00  0.00    +0.000 N 
ATOM     11  O   UNL     1       8.240   6.964  18.706  0.00  0.00    +0.000 OA
ATOM     12  O   UNL     1       8.199   5.159  19.953  0.00  0.00    +0.000 OA
ENDBRANCH   8  10
ENDBRANCH   3   4
ENDBRANCH   1   3
BRANCH   1  13
ATOM     13  S   UNL     1       3.061   7.311  17.492  0.00  0.00    +0.000 S 
BRANCH  13  14
ATOM     14  C   UNL     1       2.193   8.641  18.185  0.00  0.00    +0.000 A 
ATOM     15  N   UNL     1       1.958   9.795  17.595  0.00  0.00    +0.000 NA
ATOM     16  N   UNL     1       1.211  10.546  18.486  0.00  0.00    +0.000 NA
ATOM     17  C   UNL     1       1.044   9.801  19.561  0.00  0.00    +0.000 A 
ATOM     18  O   UNL     1       1.652   8.578  19.443  0.00  0.00    +0.000 OA
BRANCH  17  19
ATOM     19  C   UNL     1       0.342  10.090  20.808  0.00  0.00    +0.000 A 
ATOM     20  C   UNL     1       0.528   9.252  21.919  0.00  0.00    +0.000 A 
ATOM     21  C   UNL     1      -0.158   9.480  23.116  0.00  0.00    +0.000 A 
ATOM     22  C   UNL     1      -1.042  10.552  23.219  0.00  0.00    +0.000 A 
ATOM     23  C   UNL     1      -1.226  11.404  22.132  0.00  0.00    +0.000 A 
ATOM     24  C   UNL     1      -0.536  11.178  20.936  0.00  0.00    +0.000 A 
ENDBRANCH  17  19
ENDBRANCH  13  14
ENDBRANCH   1  13
TORSDOF 6
ENDMDL
MODEL 9
REMARK VINA RESULT:      -7.4      4.437      8.146
REMARK  Name = 
REMARK  6 active torsions:
REMARK  status: ('A' for Active; 'I' for Inactive)
REMARK    1  A    between atoms: C_2  and  C_3
REMARK    2  A    between atoms: C_2  and  C_16
REMARK    3  A    between atoms: C_3  and  S_4
REMARK    4  A    between atoms: S_4  and  C_5
REMARK    5  A    between atoms: C_8  and  C_9
REMARK    6  A    between atoms: C_20  and  N_21
REMARK                            x       y       z     vdW  Elec       q    Type
REMARK                         _______ _______ _______ _____ _____    ______ ____
ROOT
ATOM      1  C   UNL     1       4.376   4.127  19.121  0.00  0.00    +0.000 C 
ENDROOT
BRANCH   1   3
ATOM      2  O   UNL     1       2.597   4.361  20.768  0.00  0.00    +0.000 OA
ATOM      3  C   UNL     1       3.211   4.834  19.811  0.00  0.00    +0.000 C 
BRANCH   3   4
ATOM      4  C   UNL     1       2.776   6.177  19.313  0.00  0.00    +0.000 A 
ATOM      5  C   UNL     1       3.066   6.630  18.018  0.00  0.00    +0.000 A 
ATOM      6  C   UNL     1       2.650   7.901  17.605  0.00  0.00    +0.000 A 
ATOM      7  C   UNL     1       1.943   8.732  18.475  0.00  0.00    +0.000 A 
ATOM      8  C   UNL     1       1.645   8.281  19.766  0.00  0.00    +0.000 A 
ATOM      9  C   UNL     1       2.053   7.009  20.187  0.00  0.00    +0.000 A 
BRANCH   8  10
ATOM     10  N   UNL     1       0.901   9.153  20.685  0.00  0.00    +0.000 N 
ATOM     11  O   UNL     1       0.362   8.626  21.668  0.00  0.00    +0.000 OA
ATOM     12  O   UNL     1       0.855  10.363  20.422  0.00  0.00    +0.000 OA
ENDBRANCH   8  10
ENDBRANCH   3   4
ENDBRANCH   1   3
BRANCH   1  13
ATOM     13  S   UNL     1       5.947   4.967  19.496  0.00  0.00    +0.000 S 
BRANCH  13  14
ATOM     14  C   UNL     1       6.521   5.399  17.919  0.00  0.00    +0.000 A 
ATOM     15  N   UNL     1       7.304   6.421  17.640  0.00  0.00    +0.000 NA
ATOM     16  N   UNL     1       7.538   6.375  16.276  0.00  0.00    +0.000 NA
ATOM     17  C   UNL     1       6.878   5.330  15.814  0.00  0.00    +0.000 A 
ATOM     18  O   UNL     1       6.199   4.668  16.804  0.00  0.00    +0.000 OA
BRANCH  17  19
ATOM     19  C   UNL     1       6.768   4.812  14.454  0.00  0.00    +0.000 A 
ATOM     20  C   UNL     1       5.764   3.879  14.147  0.00  0.00    +0.000 A 
ATOM     21  C   UNL     1       5.655   3.336  12.863  0.00  0.00    +0.000 A 
ATOM     22  C   UNL     1       6.550   3.718  11.866  0.00  0.00    +0.000 A 
ATOM     23  C   UNL     1       7.542   4.655  12.149  0.00  0.00    +0.000 A 
ATOM     24  C   UNL     1       7.648   5.202  13.432  0.00  0.00    +0.000 A 
ENDBRANCH  17  19
ENDBRANCH  13  14
ENDBRANCH   1  13
TORSDOF 6
ENDMDL
