MODEL 1
REMARK VINA RESULT:      -8.4      0.000      0.000
REMARK  Name = 
REMARK  8 active torsions:
REMARK  status: ('A' for Active; 'I' for Inactive)
REMARK    1  A    between atoms: C_1  and  O_2
REMARK    2  A    between atoms: O_2  and  C_3
REMARK    3  A    between atoms: C_6  and  N_7
REMARK    4  A    between atoms: N_7  and  C_8
REMARK    5  A    between atoms: N_12  and  C_13
REMARK    6  A    between atoms: C_19  and  C_20
REMARK    7  A    between atoms: C_24  and  S_25
REMARK    8  A    between atoms: S_25  and  N_28
REMARK                            x       y       z     vdW  Elec       q    Type
REMARK                         _______ _______ _______ _____ _____    ______ ____
ROOT
ATOM      1  C   UNL     1       2.449   3.890  19.808  0.00  0.00    +0.000 A 
ATOM      2  C   UNL     1       1.350   4.319  20.548  0.00  0.00    +0.000 A 
ATOM      3  C   UNL     1       1.138   5.698  20.768  0.00  0.00    +0.000 A 
ATOM      4  C   UNL     1       2.043   6.674  20.310  0.00  0.00    +0.000 A 
ATOM      5  C   UNL     1       3.134   6.227  19.535  0.00  0.00    +0.000 A 
ATOM      6  C   UNL     1       3.321   4.852  19.278  0.00  0.00    +0.000 A 
ENDROOT
BRANCH   6   7
ATOM      7  S   UNL     1       4.698   4.205  18.353  0.00  0.00    +0.000 S 
ATOM      8  O   UNL     1       5.520   3.503  19.326  0.00  0.00    +0.000 OA
ATOM      9  O   UNL     1       4.195   3.531  17.161  0.00  0.00    +0.000 OA
BRANCH   7  10
ATOM     10  N   UNL     1       5.624   5.503  17.776  0.00  0.00    +0.000 NA
ATOM     11  C   UNL     1       5.157   6.135  16.499  0.00  0.00    +0.000 C 
ATOM     12  C   UNL     1       5.773   5.532  15.232  0.00  0.00    +0.000 C 
ATOM     13  O   UNL     1       7.198   5.438  15.317  0.00  0.00    +0.000 OA
ATOM     14  C   UNL     1       7.559   4.588  16.410  0.00  0.00    +0.000 C 
ATOM     15  C   UNL     1       7.100   5.192  17.739  0.00  0.00    +0.000 C 
ENDBRANCH   7  10
ENDBRANCH   6   7
BRANCH   1  17
ATOM     16  C   UNL     1       1.662   1.779  18.887  0.00  0.00    +0.000 C 
ATOM     17  O   UNL     1       2.675   2.607  19.423  0.00  0.00    +0.000 OA
ENDBRANCH   1  17
BRANCH   4  18
ATOM     18  N   UNL     1       1.854   8.046  20.517  0.00  0.00    +0.000 N 
ATOM     19  H   UNL     1       2.666   8.538  20.884  0.00  0.00    +0.000 HD
BRANCH  18  20
ATOM     20  C   UNL     1       0.557   8.625  20.937  0.00  0.00    +0.000 C 
ATOM     21  C   UNL     1       0.552   9.019  22.404  0.00  0.00    +0.000 C 
ATOM     22  C   UNL     1      -0.080  10.375  22.437  0.00  0.00    +0.000 C 
ATOM     23  O   UNL     1      -0.495  10.888  23.469  0.00  0.00    +0.000 OA
ATOM     24  N   UNL     1      -0.124  10.884  21.166  0.00  0.00    +0.000 N 
ATOM     25  C   UNL     1       0.223   9.945  20.221  0.00  0.00    +0.000 C 
ATOM     26  O   UNL     1       0.278  10.103  19.008  0.00  0.00    +0.000 OA
BRANCH  24  27
ATOM     27  C   UNL     1      -0.616  12.183  20.865  0.00  0.00    +0.000 A 
ATOM     28  C   UNL     1      -2.007  12.383  20.805  0.00  0.00    +0.000 A 
ATOM     29  C   UNL     1      -2.542  13.650  20.558  0.00  0.00    +0.000 A 
ATOM     30  C   UNL     1      -1.693  14.728  20.339  0.00  0.00    +0.000 A 
ATOM     31  C   UNL     1      -0.308  14.547  20.373  0.00  0.00    +0.000 A 
ATOM     32 CL   UNL     1       0.657  15.950  20.052  0.00  0.00    +0.000 Cl
ATOM     33  C   UNL     1       0.257  13.280  20.635  0.00  0.00    +0.000 A 
ATOM     34  C   UNL     1       1.753  13.084  20.639  0.00  0.00    +0.000 C 
ENDBRANCH  24  27
ENDBRANCH  18  20
ENDBRANCH   4  18
TORSDOF 6
ENDMDL
MODEL 2
REMARK VINA RESULT:      -8.1      1.163      1.252
REMARK  Name = 
REMARK  8 active torsions:
REMARK  status: ('A' for Active; 'I' for Inactive)
REMARK    1  A    between atoms: C_1  and  O_2
REMARK    2  A    between atoms: O_2  and  C_3
REMARK    3  A    between atoms: C_6  and  N_7
REMARK    4  A    between atoms: N_7  and  C_8
REMARK    5  A    between atoms: N_12  and  C_13
REMARK    6  A    between atoms: C_19  and  C_20
REMARK    7  A    between atoms: C_24  and  S_25
REMARK    8  A    between atoms: S_25  and  N_28
REMARK                            x       y       z     vdW  Elec       q    Type
REMARK                         _______ _______ _______ _____ _____    ______ ____
ROOT
ATOM      1  C   UNL     1       2.086   4.019  19.705  0.00  0.00    +0.000 A 
ATOM      2  C   UNL     1       1.102   4.579  20.518  0.00  0.00    +0.000 A 
ATOM      3  C   UNL     1       1.105   5.965  20.783  0.00  0.00    +0.000 A 
ATOM      4  C   UNL     1       2.116   6.815  20.297  0.00  0.00    +0.000 A 
ATOM      5  C   UNL     1       3.087   6.241  19.450  0.00  0.00    +0.000 A 
ATOM      6  C   UNL     1       3.058   4.863  19.150  0.00  0.00    +0.000 A 
ENDROOT
BRANCH   6   7
ATOM      7  S   UNL     1       4.276   4.055  18.131  0.00  0.00    +0.000 S 
ATOM      8  O   UNL     1       5.125   3.320  19.056  0.00  0.00    +0.000 OA
ATOM      9  O   UNL     1       3.601   3.383  17.027  0.00  0.00    +0.000 OA
BRANCH   7  10
ATOM     10  N   UNL     1       5.252   5.237  17.408  0.00  0.00    +0.000 NA
ATOM     11  C   UNL     1       5.414   5.143  15.919  0.00  0.00    +0.000 C 
ATOM     12  C   UNL     1       6.618   4.310  15.466  0.00  0.00    +0.000 C 
ATOM     13  O   UNL     1       7.823   4.696  16.134  0.00  0.00    +0.000 OA
ATOM     14  C   UNL     1       7.677   4.497  17.543  0.00  0.00    +0.000 C 
ATOM     15  C   UNL     1       6.579   5.403  18.105  0.00  0.00    +0.000 C 
ENDBRANCH   7  10
ENDBRANCH   6   7
BRANCH   1  17
ATOM     16  C   UNL     1       0.945   2.064  18.812  0.00  0.00    +0.000 C 
ATOM     17  O   UNL     1       2.102   2.730  19.277  0.00  0.00    +0.000 OA
ENDBRANCH   1  17
BRANCH   4  18
ATOM     18  N   UNL     1       2.139   8.193  20.547  0.00  0.00    +0.000 N 
ATOM     19  H   UNL     1       2.826   8.489  21.238  0.00  0.00    +0.000 HD
BRANCH  18  20
ATOM     20  C   UNL     1       0.925   9.040  20.502  0.00  0.00    +0.000 C 
ATOM     21  C   UNL     1       0.561   9.594  21.869  0.00  0.00    +0.000 C 
ATOM     22  C   UNL     1       0.241  11.036  21.628  0.00  0.00    +0.000 C 
ATOM     23  O   UNL     1      -0.349  11.730  22.447  0.00  0.00    +0.000 OA
ATOM     24  N   UNL     1       0.688  11.396  20.384  0.00  0.00    +0.000 N 
ATOM     25  C   UNL     1       1.102  10.307  19.649  0.00  0.00    +0.000 C 
ATOM     26  O   UNL     1       1.550  10.313  18.509  0.00  0.00    +0.000 OA
BRANCH  24  27
ATOM     27  C   UNL     1       0.588  12.718  19.874  0.00  0.00    +0.000 A 
ATOM     28  C   UNL     1      -0.525  13.058  19.083  0.00  0.00    +0.000 A 
ATOM     29  C   UNL     1      -0.693  14.356  18.597  0.00  0.00    +0.000 A 
ATOM     30  C   UNL     1       0.264  15.326  18.869  0.00  0.00    +0.000 A 
ATOM     31  C   UNL     1       1.389  15.004  19.634  0.00  0.00    +0.000 A 
ATOM     32 CL   UNL     1       2.536  16.278  19.883  0.00  0.00    +0.000 Cl
ATOM     33  C   UNL     1       1.574  13.703  20.149  0.00  0.00    +0.000 A 
ATOM     34  C   UNL     1       2.805  13.354  20.948  0.00  0.00    +0.000 C 
ENDBRANCH  24  27
ENDBRANCH  18  20
ENDBRANCH   4  18
TORSDOF 6
ENDMDL
MODEL 3
REMARK VINA RESULT:      -7.9      1.039      1.567
REMARK  Name = 
REMARK  8 active torsions:
REMARK  status: ('A' for Active; 'I' for Inactive)
REMARK    1  A    between atoms: C_1  and  O_2
REMARK    2  A    between atoms: O_2  and  C_3
REMARK    3  A    between atoms: C_6  and  N_7
REMARK    4  A    between atoms: N_7  and  C_8
REMARK    5  A    between atoms: N_12  and  C_13
REMARK    6  A    between atoms: C_19  and  C_20
REMARK    7  A    between atoms: C_24  and  S_25
REMARK    8  A    between atoms: S_25  and  N_28
REMARK                            x       y       z     vdW  Elec       q    Type
REMARK                         _______ _______ _______ _____ _____    ______ ____
ROOT
ATOM      1  C   UNL     1       2.452   4.323  20.055  0.00  0.00    +0.000 A 
ATOM      2  C   UNL     1       1.471   4.946  20.823  0.00  0.00    +0.000 A 
ATOM      3  C   UNL     1       1.259   6.337  20.711  0.00  0.00    +0.000 A 
ATOM      4  C   UNL     1       2.056   7.149  19.881  0.00  0.00    +0.000 A 
ATOM      5  C   UNL     1       3.024   6.500  19.086  0.00  0.00    +0.000 A 
ATOM      6  C   UNL     1       3.205   5.104  19.166  0.00  0.00    +0.000 A 
ENDROOT
BRANCH   6   7
ATOM      7  S   UNL     1       4.439   4.219  18.234  0.00  0.00    +0.000 S 
ATOM      8  O   UNL     1       5.321   3.627  19.228  0.00  0.00    +0.000 OA
ATOM      9  O   UNL     1       3.776   3.399  17.226  0.00  0.00    +0.000 OA
BRANCH   7  10
ATOM     10  N   UNL     1       5.368   5.338  17.362  0.00  0.00    +0.000 NA
ATOM     11  C   UNL     1       5.396   5.159  15.873  0.00  0.00    +0.000 C 
ATOM     12  C   UNL     1       6.538   4.275  15.362  0.00  0.00    +0.000 C 
ATOM     13  O   UNL     1       7.805   4.669  15.899  0.00  0.00    +0.000 OA
ATOM     14  C   UNL     1       7.781   4.549  17.325  0.00  0.00    +0.000 C 
ATOM     15  C   UNL     1       6.755   5.510  17.930  0.00  0.00    +0.000 C 
ENDBRANCH   7  10
ENDBRANCH   6   7
BRANCH   1  17
ATOM     16  C   UNL     1       1.655   2.085  19.531  0.00  0.00    +0.000 C 
ATOM     17  O   UNL     1       2.650   2.982  19.983  0.00  0.00    +0.000 OA
ENDBRANCH   1  17
BRANCH   4  18
ATOM     18  N   UNL     1       1.864   8.530  19.754  0.00  0.00    +0.000 N 
ATOM     19  H   UNL     1       2.711   9.088  19.847  0.00  0.00    +0.000 HD
BRANCH  18  20
ATOM     20  C   UNL     1       0.635   9.217  20.213  0.00  0.00    +0.000 C 
ATOM     21  C   UNL     1       0.497   9.197  21.726  0.00  0.00    +0.000 C 
ATOM     22  C   UNL     1       0.097  10.590  22.096  0.00  0.00    +0.000 C 
ATOM     23  O   UNL     1      -0.364  10.879  23.194  0.00  0.00    +0.000 OA
ATOM     24  N   UNL     1       0.309  11.420  21.027  0.00  0.00    +0.000 N 
ATOM     25  C   UNL     1       0.622  10.720  19.884  0.00  0.00    +0.000 C 
ATOM     26  O   UNL     1       0.866  11.184  18.776  0.00  0.00    +0.000 OA
BRANCH  24  27
ATOM     27  C   UNL     1       0.082  12.822  21.073  0.00  0.00    +0.000 A 
ATOM     28  C   UNL     1       1.173  13.677  21.314  0.00  0.00    +0.000 A 
ATOM     29  C   UNL     1       1.012  15.064  21.324  0.00  0.00    +0.000 A 
ATOM     30  C   UNL     1      -0.247  15.616  21.123  0.00  0.00    +0.000 A 
ATOM     31  C   UNL     1      -1.349  14.784  20.904  0.00  0.00    +0.000 A 
ATOM     32 CL   UNL     1      -2.878  15.574  20.701  0.00  0.00    +0.000 Cl
ATOM     33  C   UNL     1      -1.209  13.380  20.875  0.00  0.00    +0.000 A 
ATOM     34  C   UNL     1      -2.407  12.486  20.670  0.00  0.00    +0.000 C 
ENDBRANCH  24  27
ENDBRANCH  18  20
ENDBRANCH   4  18
TORSDOF 6
ENDMDL
MODEL 4
REMARK VINA RESULT:      -7.8      2.350      3.116
REMARK  Name = 
REMARK  8 active torsions:
REMARK  status: ('A' for Active; 'I' for Inactive)
REMARK    1  A    between atoms: C_1  and  O_2
REMARK    2  A    between atoms: O_2  and  C_3
REMARK    3  A    between atoms: C_6  and  N_7
REMARK    4  A    between atoms: N_7  and  C_8
REMARK    5  A    between atoms: N_12  and  C_13
REMARK    6  A    between atoms: C_19  and  C_20
REMARK    7  A    between atoms: C_24  and  S_25
REMARK    8  A    between atoms: S_25  and  N_28
REMARK                            x       y       z     vdW  Elec       q    Type
REMARK                         _______ _______ _______ _____ _____    ______ ____
ROOT
ATOM      1  C   UNL     1       2.608   5.612  20.109  0.00  0.00    +0.000 A 
ATOM      2  C   UNL     1       1.804   6.504  20.815  0.00  0.00    +0.000 A 
ATOM      3  C   UNL     1       1.496   7.768  20.266  0.00  0.00    +0.000 A 
ATOM      4  C   UNL     1       2.026   8.196  19.034  0.00  0.00    +0.000 A 
ATOM      5  C   UNL     1       2.812   7.270  18.316  0.00  0.00    +0.000 A 
ATOM      6  C   UNL     1       3.084   5.991  18.846  0.00  0.00    +0.000 A 
ENDROOT
BRANCH   6   7
ATOM      7  S   UNL     1       4.107   4.786  18.026  0.00  0.00    +0.000 S 
ATOM      8  O   UNL     1       4.922   4.194  19.076  0.00  0.00    +0.000 OA
ATOM      9  O   UNL     1       3.272   3.962  17.160  0.00  0.00    +0.000 OA
BRANCH   7  10
ATOM     10  N   UNL     1       5.171   5.595  16.982  0.00  0.00    +0.000 NA
ATOM     11  C   UNL     1       5.342   4.999  15.616  0.00  0.00    +0.000 C 
ATOM     12  C   UNL     1       6.489   3.989  15.505  0.00  0.00    +0.000 C 
ATOM     13  O   UNL     1       7.711   4.500  16.046  0.00  0.00    +0.000 OA
ATOM     14  C   UNL     1       7.537   4.793  17.436  0.00  0.00    +0.000 C 
ATOM     15  C   UNL     1       6.499   5.901  17.629  0.00  0.00    +0.000 C 
ENDBRANCH   7  10
ENDBRANCH   6   7
BRANCH   1  17
ATOM     16  C   UNL     1       1.834   3.434  20.871  0.00  0.00    +0.000 C 
ATOM     17  O   UNL     1       2.855   4.329  20.478  0.00  0.00    +0.000 OA
ENDBRANCH   1  17
BRANCH   4  18
ATOM     18  N   UNL     1       1.735   9.444  18.470  0.00  0.00    +0.000 N 
ATOM     19  H   UNL     1       2.356   9.726  17.715  0.00  0.00    +0.000 HD
BRANCH  18  20
ATOM     20  C   UNL     1       1.190  10.575  19.258  0.00  0.00    +0.000 C 
ATOM     21  C   UNL     1       1.346  11.903  18.537  0.00  0.00    +0.000 C 
ATOM     22  C   UNL     1       0.025  12.587  18.698  0.00  0.00    +0.000 C 
ATOM     23  O   UNL     1      -0.134  13.782  18.482  0.00  0.00    +0.000 OA
ATOM     24  N   UNL     1      -0.905  11.678  19.129  0.00  0.00    +0.000 N 
ATOM     25  C   UNL     1      -0.329  10.478  19.483  0.00  0.00    +0.000 C 
ATOM     26  O   UNL     1      -0.900   9.479  19.901  0.00  0.00    +0.000 OA
BRANCH  24  27
ATOM     27  C   UNL     1      -2.275  11.999  19.323  0.00  0.00    +0.000 A 
ATOM     28  C   UNL     1      -2.651  12.685  20.493  0.00  0.00    +0.000 A 
ATOM     29  C   UNL     1      -3.977  13.065  20.710  0.00  0.00    +0.000 A 
ATOM     30  C   UNL     1      -4.952  12.738  19.775  0.00  0.00    +0.000 A 
ATOM     31  C   UNL     1      -4.604  12.037  18.617  0.00  0.00    +0.000 A 
ATOM     32 CL   UNL     1      -5.902  11.650  17.536  0.00  0.00    +0.000 Cl
ATOM     33  C   UNL     1      -3.268  11.655  18.368  0.00  0.00    +0.000 A 
ATOM     34  C   UNL     1      -2.904  10.871  17.131  0.00  0.00    +0.000 C 
ENDBRANCH  24  27
ENDBRANCH  18  20
ENDBRANCH   4  18
TORSDOF 6
ENDMDL
MODEL 5
REMARK VINA RESULT:      -7.8      1.988      2.528
REMARK  Name = 
REMARK  8 active torsions:
REMARK  status: ('A' for Active; 'I' for Inactive)
REMARK    1  A    between atoms: C_1  and  O_2
REMARK    2  A    between atoms: O_2  and  C_3
REMARK    3  A    between atoms: C_6  and  N_7
REMARK    4  A    between atoms: N_7  and  C_8
REMARK    5  A    between atoms: N_12  and  C_13
REMARK    6  A    between atoms: C_19  and  C_20
REMARK    7  A    between atoms: C_24  and  S_25
REMARK    8  A    between atoms: S_25  and  N_28
REMARK                            x       y       z     vdW  Elec       q    Type
REMARK                         _______ _______ _______ _____ _____    ______ ____
ROOT
ATOM      1  C   UNL     1       2.863   5.130  19.983  0.00  0.00    +0.000 A 
ATOM      2  C   UNL     1       2.050   5.849  20.856  0.00  0.00    +0.000 A 
ATOM      3  C   UNL     1       1.567   7.124  20.488  0.00  0.00    +0.000 A 
ATOM      4  C   UNL     1       1.929   7.737  19.274  0.00  0.00    +0.000 A 
ATOM      5  C   UNL     1       2.726   6.984  18.386  0.00  0.00    +0.000 A 
ATOM      6  C   UNL     1       3.172   5.693  18.736  0.00  0.00    +0.000 A 
ENDROOT
BRANCH   6   7
ATOM      7  S   UNL     1       4.222   4.701  17.693  0.00  0.00    +0.000 S 
ATOM      8  O   UNL     1       5.367   4.351  18.521  0.00  0.00    +0.000 OA
ATOM      9  O   UNL     1       3.415   3.673  17.045  0.00  0.00    +0.000 OA
BRANCH   7  10
ATOM     10  N   UNL     1       4.810   5.670  16.433  0.00  0.00    +0.000 NA
ATOM     11  C   UNL     1       5.408   4.947  15.263  0.00  0.00    +0.000 C 
ATOM     12  C   UNL     1       6.917   4.707  15.371  0.00  0.00    +0.000 C 
ATOM     13  O   UNL     1       7.629   5.901  15.709  0.00  0.00    +0.000 OA
ATOM     14  C   UNL     1       7.185   6.382  16.981  0.00  0.00    +0.000 C 
ATOM     15  C   UNL     1       5.708   6.779  16.922  0.00  0.00    +0.000 C 
ENDBRANCH   7  10
ENDBRANCH   6   7
BRANCH   1  17
ATOM     16  C   UNL     1       2.401   2.830  20.627  0.00  0.00    +0.000 C 
ATOM     17  O   UNL     1       3.270   3.849  20.175  0.00  0.00    +0.000 OA
ENDBRANCH   1  17
BRANCH   4  18
ATOM     18  N   UNL     1       1.463   9.000  18.888  0.00  0.00    +0.000 N 
ATOM     19  H   UNL     1       1.798   9.320  17.982  0.00  0.00    +0.000 HD
BRANCH  18  20
ATOM     20  C   UNL     1       1.205  10.092  19.856  0.00  0.00    +0.000 C 
ATOM     21  C   UNL     1       1.486  11.462  19.263  0.00  0.00    +0.000 C 
ATOM     22  C   UNL     1       0.321  12.306  19.673  0.00  0.00    +0.000 C 
ATOM     23  O   UNL     1       0.332  13.530  19.607  0.00  0.00    +0.000 OA
ATOM     24  N   UNL     1      -0.686  11.497  20.130  0.00  0.00    +0.000 N 
ATOM     25  C   UNL     1      -0.272  10.191  20.275  0.00  0.00    +0.000 C 
ATOM     26  O   UNL     1      -0.944   9.242  20.661  0.00  0.00    +0.000 OA
BRANCH  24  27
ATOM     27  C   UNL     1      -1.953  11.989  20.542  0.00  0.00    +0.000 A 
ATOM     28  C   UNL     1      -2.944  12.206  19.567  0.00  0.00    +0.000 A 
ATOM     29  C   UNL     1      -4.221  12.645  19.925  0.00  0.00    +0.000 A 
ATOM     30  C   UNL     1      -4.517  12.901  21.258  0.00  0.00    +0.000 A 
ATOM     31  C   UNL     1      -3.540  12.712  22.240  0.00  0.00    +0.000 A 
ATOM     32 CL   UNL     1      -4.002  13.094  23.865  0.00  0.00    +0.000 Cl
ATOM     33  C   UNL     1      -2.247  12.256  21.905  0.00  0.00    +0.000 A 
ATOM     34  C   UNL     1      -1.187  12.084  22.966  0.00  0.00    +0.000 C 
ENDBRANCH  24  27
ENDBRANCH  18  20
ENDBRANCH   4  18
TORSDOF 6
ENDMDL
MODEL 6
REMARK VINA RESULT:      -7.8      1.336      1.921
REMARK  Name = 
REMARK  8 active torsions:
REMARK  status: ('A' for Active; 'I' for Inactive)
REMARK    1  A    between atoms: C_1  and  O_2
REMARK    2  A    between atoms: O_2  and  C_3
REMARK    3  A    between atoms: C_6  and  N_7
REMARK    4  A    between atoms: N_7  and  C_8
REMARK    5  A    between atoms: N_12  and  C_13
REMARK    6  A    between atoms: C_19  and  C_20
REMARK    7  A    between atoms: C_24  and  S_25
REMARK    8  A    between atoms: S_25  and  N_28
REMARK                            x       y       z     vdW  Elec       q    Type
REMARK                         _______ _______ _______ _____ _____    ______ ____
ROOT
ATOM      1  C   UNL     1       2.707   3.651  19.401  0.00  0.00    +0.000 A 
ATOM      2  C   UNL     1       1.399   3.683  19.879  0.00  0.00    +0.000 A 
ATOM      3  C   UNL     1       0.900   4.848  20.501  0.00  0.00    +0.000 A 
ATOM      4  C   UNL     1       1.705   5.983  20.715  0.00  0.00    +0.000 A 
ATOM      5  C   UNL     1       3.017   5.948  20.196  0.00  0.00    +0.000 A 
ATOM      6  C   UNL     1       3.501   4.799  19.536  0.00  0.00    +0.000 A 
ENDROOT
BRANCH   6   7
ATOM      7  S   UNL     1       5.158   4.658  18.900  0.00  0.00    +0.000 S 
ATOM      8  O   UNL     1       5.932   5.661  19.615  0.00  0.00    +0.000 OA
ATOM      9  O   UNL     1       5.552   3.254  18.904  0.00  0.00    +0.000 OA
BRANCH   7  10
ATOM     10  N   UNL     1       5.155   5.117  17.267  0.00  0.00    +0.000 NA
ATOM     11  C   UNL     1       5.811   4.166  16.310  0.00  0.00    +0.000 C 
ATOM     12  C   UNL     1       7.299   4.440  16.066  0.00  0.00    +0.000 C 
ATOM     13  O   UNL     1       7.550   5.812  15.748  0.00  0.00    +0.000 OA
ATOM     14  C   UNL     1       7.139   6.642  16.838  0.00  0.00    +0.000 C 
ATOM     15  C   UNL     1       5.629   6.534  17.060  0.00  0.00    +0.000 C 
ENDBRANCH   7  10
ENDBRANCH   6   7
BRANCH   1  17
ATOM     16  C   UNL     1       2.630   2.125  17.507  0.00  0.00    +0.000 C 
ATOM     17  O   UNL     1       3.244   2.639  18.671  0.00  0.00    +0.000 OA
ENDBRANCH   1  17
BRANCH   4  18
ATOM     18  N   UNL     1       1.232   7.149  21.329  0.00  0.00    +0.000 N 
ATOM     19  H   UNL     1       0.342   7.045  21.813  0.00  0.00    +0.000 HD
BRANCH  18  20
ATOM     20  C   UNL     1       1.460   8.502  20.771  0.00  0.00    +0.000 C 
ATOM     21  C   UNL     1       0.565   8.790  19.578  0.00  0.00    +0.000 C 
ATOM     22  C   UNL     1       0.042  10.172  19.813  0.00  0.00    +0.000 C 
ATOM     23  O   UNL     1      -0.493  10.837  18.934  0.00  0.00    +0.000 OA
ATOM     24  N   UNL     1       0.285  10.533  21.112  0.00  0.00    +0.000 N 
ATOM     25  C   UNL     1       1.103   9.630  21.754  0.00  0.00    +0.000 C 
ATOM     26  O   UNL     1       1.493   9.682  22.914  0.00  0.00    +0.000 OA
BRANCH  24  27
ATOM     27  C   UNL     1      -0.142  11.768  21.670  0.00  0.00    +0.000 A 
ATOM     28  C   UNL     1      -1.292  11.785  22.479  0.00  0.00    +0.000 A 
ATOM     29  C   UNL     1      -1.727  12.964  23.088  0.00  0.00    +0.000 A 
ATOM     30  C   UNL     1      -1.035  14.150  22.872  0.00  0.00    +0.000 A 
ATOM     31  C   UNL     1       0.098  14.160  22.053  0.00  0.00    +0.000 A 
ATOM     32 CL   UNL     1       0.864  15.697  21.823  0.00  0.00    +0.000 Cl
ATOM     33  C   UNL     1       0.565  12.978  21.439  0.00  0.00    +0.000 A 
ATOM     34  C   UNL     1       1.770  13.001  20.531  0.00  0.00    +0.000 C 
ENDBRANCH  24  27
ENDBRANCH  18  20
ENDBRANCH   4  18
TORSDOF 6
ENDMDL
MODEL 7
REMARK VINA RESULT:      -7.7      2.348      3.109
REMARK  Name = 
REMARK  8 active torsions:
REMARK  status: ('A' for Active; 'I' for Inactive)
REMARK    1  A    between atoms: C_1  and  O_2
REMARK    2  A    between atoms: O_2  and  C_3
REMARK    3  A    between atoms: C_6  and  N_7
REMARK    4  A    between atoms: N_7  and  C_8
REMARK    5  A    between atoms: N_12  and  C_13
REMARK    6  A    between atoms: C_19  and  C_20
REMARK    7  A    between atoms: C_24  and  S_25
REMARK    8  A    between atoms: S_25  and  N_28
REMARK                            x       y       z     vdW  Elec       q    Type
REMARK                         _______ _______ _______ _____ _____    ______ ____
ROOT
ATOM      1  C   UNL     1       2.592   5.631  20.101  0.00  0.00    +0.000 A 
ATOM      2  C   UNL     1       1.790   6.526  20.807  0.00  0.00    +0.000 A 
ATOM      3  C   UNL     1       1.493   7.794  20.261  0.00  0.00    +0.000 A 
ATOM      4  C   UNL     1       2.033   8.223  19.033  0.00  0.00    +0.000 A 
ATOM      5  C   UNL     1       2.816   7.294  18.316  0.00  0.00    +0.000 A 
ATOM      6  C   UNL     1       3.076   6.012  18.842  0.00  0.00    +0.000 A 
ENDROOT
BRANCH   6   7
ATOM      7  S   UNL     1       4.096   4.803  18.022  0.00  0.00    +0.000 S 
ATOM      8  O   UNL     1       4.904   4.204  19.073  0.00  0.00    +0.000 OA
ATOM      9  O   UNL     1       3.258   3.985  17.152  0.00  0.00    +0.000 OA
BRANCH   7  10
ATOM     10  N   UNL     1       5.167   5.609  16.984  0.00  0.00    +0.000 NA
ATOM     11  C   UNL     1       5.332   5.020  15.614  0.00  0.00    +0.000 C 
ATOM     12  C   UNL     1       6.469   4.000  15.496  0.00  0.00    +0.000 C 
ATOM     13  O   UNL     1       7.696   4.496  16.040  0.00  0.00    +0.000 OA
ATOM     14  C   UNL     1       7.525   4.781  17.431  0.00  0.00    +0.000 C 
ATOM     15  C   UNL     1       6.498   5.898  17.632  0.00  0.00    +0.000 C 
ENDBRANCH   7  10
ENDBRANCH   6   7
BRANCH   1  17
ATOM     16  C   UNL     1       1.848   3.528  21.073  0.00  0.00    +0.000 C 
ATOM     17  O   UNL     1       2.829   4.345  20.467  0.00  0.00    +0.000 OA
ENDBRANCH   1  17
BRANCH   4  18
ATOM     18  N   UNL     1       1.752   9.475  18.473  0.00  0.00    +0.000 N 
ATOM     19  H   UNL     1       2.478   9.839  17.859  0.00  0.00    +0.000 HD
BRANCH  18  20
ATOM     20  C   UNL     1       0.983  10.521  19.186  0.00  0.00    +0.000 C 
ATOM     21  C   UNL     1       1.207  11.902  18.593  0.00  0.00    +0.000 C 
ATOM     22  C   UNL     1      -0.158  12.508  18.502  0.00  0.00    +0.000 C 
ATOM     23  O   UNL     1      -0.341  13.707  18.325  0.00  0.00    +0.000 OA
ATOM     24  N   UNL     1      -1.100  11.528  18.670  0.00  0.00    +0.000 N 
ATOM     25  C   UNL     1      -0.540  10.336  19.072  0.00  0.00    +0.000 C 
ATOM     26  O   UNL     1      -1.124   9.284  19.300  0.00  0.00    +0.000 OA
BRANCH  24  27
ATOM     27  C   UNL     1      -2.498  11.769  18.581  0.00  0.00    +0.000 A 
ATOM     28  C   UNL     1      -3.160  11.477  17.375  0.00  0.00    +0.000 A 
ATOM     29  C   UNL     1      -4.540  11.652  17.251  0.00  0.00    +0.000 A 
ATOM     30  C   UNL     1      -5.273  12.150  18.321  0.00  0.00    +0.000 A 
ATOM     31  C   UNL     1      -4.632  12.467  19.522  0.00  0.00    +0.000 A 
ATOM     32 CL   UNL     1      -5.633  13.113  20.779  0.00  0.00    +0.000 Cl
ATOM     33  C   UNL     1      -3.241  12.285  19.677  0.00  0.00    +0.000 A 
ATOM     34  C   UNL     1      -2.549  12.659  20.964  0.00  0.00    +0.000 C 
ENDBRANCH  24  27
ENDBRANCH  18  20
ENDBRANCH   4  18
TORSDOF 6
ENDMDL
MODEL 8
REMARK VINA RESULT:      -7.7      2.058      2.730
REMARK  Name = 
REMARK  8 active torsions:
REMARK  status: ('A' for Active; 'I' for Inactive)
REMARK    1  A    between atoms: C_1  and  O_2
REMARK    2  A    between atoms: O_2  and  C_3
REMARK    3  A    between atoms: C_6  and  N_7
REMARK    4  A    between atoms: N_7  and  C_8
REMARK    5  A    between atoms: N_12  and  C_13
REMARK    6  A    between atoms: C_19  and  C_20
REMARK    7  A    between atoms: C_24  and  S_25
REMARK    8  A    between atoms: S_25  and  N_28
REMARK                            x       y       z     vdW  Elec       q    Type
REMARK                         _______ _______ _______ _____ _____    ______ ____
ROOT
ATOM      1  C   UNL     1       2.777   5.209  19.968  0.00  0.00    +0.000 A 
ATOM      2  C   UNL     1       1.922   5.965  20.767  0.00  0.00    +0.000 A 
ATOM      3  C   UNL     1       1.495   7.241  20.338  0.00  0.00    +0.000 A 
ATOM      4  C   UNL     1       1.954   7.817  19.139  0.00  0.00    +0.000 A 
ATOM      5  C   UNL     1       2.792   7.027  18.325  0.00  0.00    +0.000 A 
ATOM      6  C   UNL     1       3.183   5.735  18.733  0.00  0.00    +0.000 A 
ENDROOT
BRANCH   6   7
ATOM      7  S   UNL     1       4.279   4.696  17.788  0.00  0.00    +0.000 S 
ATOM      8  O   UNL     1       5.431   4.469  18.647  0.00  0.00    +0.000 OA
ATOM      9  O   UNL     1       3.518   3.583  17.232  0.00  0.00    +0.000 OA
BRANCH   7  10
ATOM     10  N   UNL     1       4.836   5.572  16.447  0.00  0.00    +0.000 NA
ATOM     11  C   UNL     1       5.414   4.765  15.322  0.00  0.00    +0.000 C 
ATOM     12  C   UNL     1       6.927   4.540  15.417  0.00  0.00    +0.000 C 
ATOM     13  O   UNL     1       7.640   5.758  15.651  0.00  0.00    +0.000 OA
ATOM     14  C   UNL     1       7.218   6.331  16.892  0.00  0.00    +0.000 C 
ATOM     15  C   UNL     1       5.738   6.717  16.834  0.00  0.00    +0.000 C 
ENDBRANCH   7  10
ENDBRANCH   6   7
BRANCH   1  17
ATOM     16  C   UNL     1       2.565   3.153  21.252  0.00  0.00    +0.000 C 
ATOM     17  O   UNL     1       3.140   3.924  20.216  0.00  0.00    +0.000 OA
ENDBRANCH   1  17
BRANCH   4  18
ATOM     18  N   UNL     1       1.544   9.081  18.694  0.00  0.00    +0.000 N 
ATOM     19  H   UNL     1       1.887   9.340  17.772  0.00  0.00    +0.000 HD
BRANCH  18  20
ATOM     20  C   UNL     1       1.345  10.229  19.609  0.00  0.00    +0.000 C 
ATOM     21  C   UNL     1       1.594  11.560  18.920  0.00  0.00    +0.000 C 
ATOM     22  C   UNL     1       0.456  12.434  19.346  0.00  0.00    +0.000 C 
ATOM     23  O   UNL     1       0.465  13.651  19.206  0.00  0.00    +0.000 OA
ATOM     24  N   UNL     1      -0.524  11.658  19.908  0.00  0.00    +0.000 N 
ATOM     25  C   UNL     1      -0.105  10.361  20.106  0.00  0.00    +0.000 C 
ATOM     26  O   UNL     1      -0.754   9.440  20.586  0.00  0.00    +0.000 OA
BRANCH  24  27
ATOM     27  C   UNL     1      -1.765  12.180  20.363  0.00  0.00    +0.000 A 
ATOM     28  C   UNL     1      -1.831  12.743  21.650  0.00  0.00    +0.000 A 
ATOM     29  C   UNL     1      -3.015  13.311  22.127  0.00  0.00    +0.000 A 
ATOM     30  C   UNL     1      -4.157  13.297  21.335  0.00  0.00    +0.000 A 
ATOM     31  C   UNL     1      -4.118  12.722  20.061  0.00  0.00    +0.000 A 
ATOM     32 CL   UNL     1      -5.606  12.727  19.173  0.00  0.00    +0.000 Cl
ATOM     33  C   UNL     1      -2.930  12.156  19.551  0.00  0.00    +0.000 A 
ATOM     34  C   UNL     1      -2.903  11.509  18.189  0.00  0.00    +0.000 C 
ENDBRANCH  24  27
ENDBRANCH  18  20
ENDBRANCH   4  18
TORSDOF 6
ENDMDL
MODEL 9
REMARK VINA RESULT:      -7.6      2.538      4.077
REMARK  Name = 
REMARK  8 active torsions:
REMARK  status: ('A' for Active; 'I' for Inactive)
REMARK    1  A    between atoms: C_1  and  O_2
REMARK    2  A    between atoms: O_2  and  C_3
REMARK    3  A    between atoms: C_6  and  N_7
REMARK    4  A    between atoms: N_7  and  C_8
REMARK    5  A    between atoms: N_12  and  C_13
REMARK    6  A    between atoms: C_19  and  C_20
REMARK    7  A    between atoms: C_24  and  S_25
REMARK    8  A    between atoms: S_25  and  N_28
REMARK                            x       y       z     vdW  Elec       q    Type
REMARK                         _______ _______ _______ _____ _____    ______ ____
ROOT
ATOM      1  C   UNL     1       3.041   7.315  18.111  0.00  0.00    +0.000 A 
ATOM      2  C   UNL     1       2.525   8.558  17.749  0.00  0.00    +0.000 A 
ATOM      3  C   UNL     1       1.609   9.219  18.595  0.00  0.00    +0.000 A 
ATOM      4  C   UNL     1       1.139   8.635  19.787  0.00  0.00    +0.000 A 
ATOM      5  C   UNL     1       1.694   7.392  20.156  0.00  0.00    +0.000 A 
ATOM      6  C   UNL     1       2.643   6.752  19.332  0.00  0.00    +0.000 A 
ENDROOT
BRANCH   6   7
ATOM      7  S   UNL     1       3.351   5.160  19.702  0.00  0.00    +0.000 S 
ATOM      8  O   UNL     1       4.788   5.381  19.754  0.00  0.00    +0.000 OA
ATOM      9  O   UNL     1       2.635   4.571  20.828  0.00  0.00    +0.000 OA
BRANCH   7  10
ATOM     10  N   UNL     1       3.064   4.120  18.394  0.00  0.00    +0.000 NA
ATOM     11  C   UNL     1       1.683   3.544  18.296  0.00  0.00    +0.000 C 
ATOM     12  C   UNL     1       1.506   2.198  19.009  0.00  0.00    +0.000 C 
ATOM     13  O   UNL     1       2.527   1.261  18.652  0.00  0.00    +0.000 OA
ATOM     14  C   UNL     1       3.807   1.776  19.030  0.00  0.00    +0.000 C 
ATOM     15  C   UNL     1       4.125   3.056  18.254  0.00  0.00    +0.000 C 
ENDBRANCH   7  10
ENDBRANCH   6   7
BRANCH   1  17
ATOM     16  C   UNL     1       4.749   7.239  16.380  0.00  0.00    +0.000 C 
ATOM     17  O   UNL     1       4.024   6.656  17.443  0.00  0.00    +0.000 OA
ENDBRANCH   1  17
BRANCH   4  18
ATOM     18  N   UNL     1       0.230   9.272  20.641  0.00  0.00    +0.000 N 
ATOM     19  H   UNL     1      -0.663   8.794  20.745  0.00  0.00    +0.000 HD
BRANCH  18  20
ATOM     20  C   UNL     1       0.147  10.745  20.774  0.00  0.00    +0.000 C 
ATOM     21  C   UNL     1      -0.809  11.358  19.765  0.00  0.00    +0.000 C 
ATOM     22  C   UNL     1      -1.619  12.341  20.549  0.00  0.00    +0.000 C 
ATOM     23  O   UNL     1      -2.301  13.211  20.021  0.00  0.00    +0.000 OA
ATOM     24  N   UNL     1      -1.441  12.108  21.888  0.00  0.00    +0.000 N 
ATOM     25  C   UNL     1      -0.434  11.199  22.124  0.00  0.00    +0.000 C 
ATOM     26  O   UNL     1      -0.047  10.791  23.212  0.00  0.00    +0.000 OA
BRANCH  24  27
ATOM     27  C   UNL     1      -2.120  12.836  22.902  0.00  0.00    +0.000 A 
ATOM     28  C   UNL     1      -3.306  12.303  23.440  0.00  0.00    +0.000 A 
ATOM     29  C   UNL     1      -3.986  12.956  24.470  0.00  0.00    +0.000 A 
ATOM     30  C   UNL     1      -3.507  14.167  24.956  0.00  0.00    +0.000 A 
ATOM     31  C   UNL     1      -2.344  14.725  24.420  0.00  0.00    +0.000 A 
ATOM     32 CL   UNL     1      -1.855  16.254  25.074  0.00  0.00    +0.000 Cl
ATOM     33  C   UNL     1      -1.630  14.077  23.389  0.00  0.00    +0.000 A 
ATOM     34  C   UNL     1      -0.393  14.701  22.792  0.00  0.00    +0.000 C 
ENDBRANCH  24  27
ENDBRANCH  18  20
ENDBRANCH   4  18
TORSDOF 6
ENDMDL
