MODEL 1
REMARK VINA RESULT:      -8.3      0.000      0.000
REMARK  Name = 
REMARK  7 active torsions:
REMARK  status: ('A' for Active; 'I' for Inactive)
REMARK    1  A    between atoms: C_1  and  C_2
REMARK    2  A    between atoms: C_6  and  N_7
REMARK    3  A    between atoms: C_8  and  C_10
REMARK    4  A    between atoms: C_10  and  N_11
REMARK    5  A    between atoms: C_15  and  C_17
REMARK    6  A    between atoms: C_21  and  N_22
REMARK    7  A    between atoms: C_30  and  C_31
REMARK                            x       y       z     vdW  Elec       q    Type
REMARK                         _______ _______ _______ _____ _____    ______ ____
ROOT
ATOM      1  N   UNL     1      -0.634   9.816  21.169  0.00  0.00    +0.000 NA
ATOM      2  C   UNL     1      -0.497  10.274  19.756  0.00  0.00    +0.000 C 
ATOM      3  C   UNL     1       0.891  10.100  19.083  0.00  0.00    +0.000 C 
ATOM      4  N   UNL     1       1.505   8.790  19.370  0.00  0.00    +0.000 N 
ATOM      5  C   UNL     1       2.220   8.141  18.359  0.00  0.00    +0.000 C 
ATOM      6  O   UNL     1       2.331   8.610  17.225  0.00  0.00    +0.000 OA
ATOM      7  C   UNL     1       1.452   8.437  20.787  0.00  0.00    +0.000 C 
ATOM      8  C   UNL     1      -0.022   8.459  21.253  0.00  0.00    +0.000 C 
ENDROOT
BRANCH   5   9
ATOM      9  C   UNL     1       2.930   6.854  18.637  0.00  0.00    +0.000 A 
ATOM     10  C   UNL     1       2.273   5.889  19.407  0.00  0.00    +0.000 A 
ATOM     11  C   UNL     1       2.853   4.635  19.614  0.00  0.00    +0.000 A 
ATOM     12  C   UNL     1       4.073   4.314  19.013  0.00  0.00    +0.000 A 
ATOM     13  C   UNL     1       4.752   5.282  18.266  0.00  0.00    +0.000 A 
ATOM     14  C   UNL     1       4.215   6.576  18.161  0.00  0.00    +0.000 A 
BRANCH  13  15
ATOM     15  N   UNL     1       5.942   4.972  17.565  0.00  0.00    +0.000 N 
ATOM     16  C   UNL     1       6.267   5.179  16.249  0.00  0.00    +0.000 A 
ATOM     17  N   UNL     1       7.501   4.784  16.037  0.00  0.00    +0.000 NA
ATOM     18  N   UNL     1       7.961   4.338  17.246  0.00  0.00    +0.000 NA
ATOM     19  N   UNL     1       7.031   4.455  18.182  0.00  0.00    +0.000 NA
ENDBRANCH  13  15
ENDBRANCH   5   9
BRANCH   1  20
ATOM     20  C   UNL     1       0.072  10.675  22.150  0.00  0.00    +0.000 C 
BRANCH  20  22
ATOM     21  N   UNL     1      -1.624  12.205  23.052  0.00  0.00    +0.000 N 
ATOM     22  C   UNL     1      -0.456  12.084  22.328  0.00  0.00    +0.000 C 
ATOM     23  O   UNL     1       0.225  13.011  21.889  0.00  0.00    +0.000 OA
ATOM     24  H   UNL     1      -1.946  11.349  23.486  0.00  0.00    +0.000 HD
BRANCH  21  30
ATOM     25  C   UNL     1      -5.552  15.270  22.355  0.00  0.00    +0.000 C 
ATOM     26  C   UNL     1      -4.216  14.920  22.957  0.00  0.00    +0.000 A 
ATOM     27  C   UNL     1      -3.648  15.833  23.857  0.00  0.00    +0.000 A 
ATOM     28  C   UNL     1      -2.429  15.564  24.453  0.00  0.00    +0.000 A 
ATOM     29  C   UNL     1      -1.776  14.372  24.168  0.00  0.00    +0.000 A 
ATOM     30  C   UNL     1      -2.317  13.418  23.288  0.00  0.00    +0.000 A 
ATOM     31  C   UNL     1      -3.542  13.704  22.644  0.00  0.00    +0.000 A 
ATOM     32  C   UNL     1      -4.193  12.767  21.657  0.00  0.00    +0.000 C 
ENDBRANCH  21  30
ENDBRANCH  20  22
ENDBRANCH   1  20
TORSDOF 5
ENDMDL
MODEL 2
REMARK VINA RESULT:      -8.2      3.011     11.308
REMARK  Name = 
REMARK  7 active torsions:
REMARK  status: ('A' for Active; 'I' for Inactive)
REMARK    1  A    between atoms: C_1  and  C_2
REMARK    2  A    between atoms: C_6  and  N_7
REMARK    3  A    between atoms: C_8  and  C_10
REMARK    4  A    between atoms: C_10  and  N_11
REMARK    5  A    between atoms: C_15  and  C_17
REMARK    6  A    between atoms: C_21  and  N_22
REMARK    7  A    between atoms: C_30  and  C_31
REMARK                            x       y       z     vdW  Elec       q    Type
REMARK                         _______ _______ _______ _____ _____    ______ ____
ROOT
ATOM      1  N   UNL     1       0.978   9.808  20.590  0.00  0.00    +0.000 NA
ATOM      2  C   UNL     1       1.286  11.261  20.721  0.00  0.00    +0.000 C 
ATOM      3  C   UNL     1       0.410  12.251  19.907  0.00  0.00    +0.000 C 
ATOM      4  N   UNL     1      -1.026  11.916  19.955  0.00  0.00    +0.000 N 
ATOM      5  C   UNL     1      -1.961  12.953  20.028  0.00  0.00    +0.000 C 
ATOM      6  O   UNL     1      -1.628  14.138  20.084  0.00  0.00    +0.000 OA
ATOM      7  C   UNL     1      -1.287  10.501  19.702  0.00  0.00    +0.000 C 
ATOM      8  C   UNL     1      -0.499   9.656  20.729  0.00  0.00    +0.000 C 
ENDROOT
BRANCH   5   9
ATOM      9  C   UNL     1      -3.427  12.658  19.989  0.00  0.00    +0.000 A 
ATOM     10  C   UNL     1      -3.977  12.197  18.789  0.00  0.00    +0.000 A 
ATOM     11  C   UNL     1      -5.320  11.816  18.727  0.00  0.00    +0.000 A 
ATOM     12  C   UNL     1      -6.115  11.844  19.876  0.00  0.00    +0.000 A 
ATOM     13  C   UNL     1      -5.582  12.331  21.074  0.00  0.00    +0.000 A 
ATOM     14  C   UNL     1      -4.266  12.820  21.097  0.00  0.00    +0.000 A 
BRANCH  13  15
ATOM     15  N   UNL     1      -6.321  12.291  22.280  0.00  0.00    +0.000 N 
ATOM     16  C   UNL     1      -7.668  12.121  22.481  0.00  0.00    +0.000 A 
ATOM     17  N   UNL     1      -7.916  12.096  23.770  0.00  0.00    +0.000 NA
ATOM     18  N   UNL     1      -6.702  12.235  24.386  0.00  0.00    +0.000 NA
ATOM     19  N   UNL     1      -5.726  12.344  23.495  0.00  0.00    +0.000 NA
ENDBRANCH  13  15
ENDBRANCH   5   9
BRANCH   1  20
ATOM     20  C   UNL     1       1.354   9.231  19.276  0.00  0.00    +0.000 C 
BRANCH  20  22
ATOM     21  N   UNL     1       2.384   7.353  18.074  0.00  0.00    +0.000 N 
ATOM     22  C   UNL     1       1.915   7.823  19.284  0.00  0.00    +0.000 C 
ATOM     23  O   UNL     1       1.982   7.239  20.365  0.00  0.00    +0.000 OA
ATOM     24  H   UNL     1       2.408   8.041  17.332  0.00  0.00    +0.000 HD
BRANCH  21  30
ATOM     25  C   UNL     1       6.128   4.206  16.901  0.00  0.00    +0.000 C 
ATOM     26  C   UNL     1       4.701   4.509  17.274  0.00  0.00    +0.000 A 
ATOM     27  C   UNL     1       3.833   3.425  17.464  0.00  0.00    +0.000 A 
ATOM     28  C   UNL     1       2.513   3.637  17.819  0.00  0.00    +0.000 A 
ATOM     29  C   UNL     1       2.055   4.935  18.005  0.00  0.00    +0.000 A 
ATOM     30  C   UNL     1       2.894   6.052  17.846  0.00  0.00    +0.000 A 
ATOM     31  C   UNL     1       4.233   5.844  17.443  0.00  0.00    +0.000 A 
ATOM     32  C   UNL     1       5.208   6.972  17.210  0.00  0.00    +0.000 C 
ENDBRANCH  21  30
ENDBRANCH  20  22
ENDBRANCH   1  20
TORSDOF 5
ENDMDL
MODEL 3
REMARK VINA RESULT:      -8.1      2.026      2.778
REMARK  Name = 
REMARK  7 active torsions:
REMARK  status: ('A' for Active; 'I' for Inactive)
REMARK    1  A    between atoms: C_1  and  C_2
REMARK    2  A    between atoms: C_6  and  N_7
REMARK    3  A    between atoms: C_8  and  C_10
REMARK    4  A    between atoms: C_10  and  N_11
REMARK    5  A    between atoms: C_15  and  C_17
REMARK    6  A    between atoms: C_21  and  N_22
REMARK    7  A    between atoms: C_30  and  C_31
REMARK                            x       y       z     vdW  Elec       q    Type
REMARK                         _______ _______ _______ _____ _____    ______ ____
ROOT
ATOM      1  N   UNL     1       1.387  10.546  18.716  0.00  0.00    +0.000 NA
ATOM      2  C   UNL     1       1.384  10.109  20.142  0.00  0.00    +0.000 C 
ATOM      3  C   UNL     1       1.009   8.631  20.433  0.00  0.00    +0.000 C 
ATOM      4  N   UNL     1       1.647   7.685  19.497  0.00  0.00    +0.000 N 
ATOM      5  C   UNL     1       2.104   6.457  19.983  0.00  0.00    +0.000 C 
ATOM      6  O   UNL     1       2.020   6.146  21.173  0.00  0.00    +0.000 OA
ATOM      7  C   UNL     1       1.521   8.096  18.101  0.00  0.00    +0.000 C 
ATOM      8  C   UNL     1       2.126   9.509  17.939  0.00  0.00    +0.000 C 
ENDROOT
BRANCH   5   9
ATOM      9  C   UNL     1       2.676   5.436  19.051  0.00  0.00    +0.000 A 
ATOM     10  C   UNL     1       1.789   4.649  18.309  0.00  0.00    +0.000 A 
ATOM     11  C   UNL     1       2.272   3.749  17.354  0.00  0.00    +0.000 A 
ATOM     12  C   UNL     1       3.642   3.662  17.097  0.00  0.00    +0.000 A 
ATOM     13  C   UNL     1       4.538   4.423  17.855  0.00  0.00    +0.000 A 
ATOM     14  C   UNL     1       4.051   5.237  18.890  0.00  0.00    +0.000 A 
BRANCH  13  15
ATOM     15  N   UNL     1       5.924   4.435  17.566  0.00  0.00    +0.000 N 
ATOM     16  C   UNL     1       6.570   4.484  16.357  0.00  0.00    +0.000 A 
ATOM     17  N   UNL     1       7.867   4.529  16.557  0.00  0.00    +0.000 NA
ATOM     18  N   UNL     1       8.034   4.526  17.916  0.00  0.00    +0.000 NA
ATOM     19  N   UNL     1       6.865   4.479  18.539  0.00  0.00    +0.000 NA
ENDBRANCH  13  15
ENDBRANCH   5   9
BRANCH   1  20
ATOM     20  C   UNL     1       0.034  10.658  18.119  0.00  0.00    +0.000 C 
BRANCH  20  22
ATOM     21  N   UNL     1      -1.810  11.475  19.521  0.00  0.00    +0.000 N 
ATOM     22  C   UNL     1      -0.833  11.803  18.603  0.00  0.00    +0.000 C 
ATOM     23  O   UNL     1      -0.557  12.936  18.209  0.00  0.00    +0.000 OA
ATOM     24  H   UNL     1      -1.772  10.522  19.860  0.00  0.00    +0.000 HD
BRANCH  21  30
ATOM     25  C   UNL     1      -6.425  13.469  19.672  0.00  0.00    +0.000 C 
ATOM     26  C   UNL     1      -4.998  13.358  20.141  0.00  0.00    +0.000 A 
ATOM     27  C   UNL     1      -4.603  14.162  21.220  0.00  0.00    +0.000 A 
ATOM     28  C   UNL     1      -3.309  14.097  21.705  0.00  0.00    +0.000 A 
ATOM     29  C   UNL     1      -2.405  13.216  21.126  0.00  0.00    +0.000 A 
ATOM     30  C   UNL     1      -2.762  12.376  20.057  0.00  0.00    +0.000 A 
ATOM     31  C   UNL     1      -4.070  12.466  19.530  0.00  0.00    +0.000 A 
ATOM     32  C   UNL     1      -4.548  11.637  18.362  0.00  0.00    +0.000 C 
ENDBRANCH  21  30
ENDBRANCH  20  22
ENDBRANCH   1  20
TORSDOF 5
ENDMDL
MODEL 4
REMARK VINA RESULT:      -8.1      2.461      3.285
REMARK  Name = 
REMARK  7 active torsions:
REMARK  status: ('A' for Active; 'I' for Inactive)
REMARK    1  A    between atoms: C_1  and  C_2
REMARK    2  A    between atoms: C_6  and  N_7
REMARK    3  A    between atoms: C_8  and  C_10
REMARK    4  A    between atoms: C_10  and  N_11
REMARK    5  A    between atoms: C_15  and  C_17
REMARK    6  A    between atoms: C_21  and  N_22
REMARK    7  A    between atoms: C_30  and  C_31
REMARK                            x       y       z     vdW  Elec       q    Type
REMARK                         _______ _______ _______ _____ _____    ______ ____
ROOT
ATOM      1  N   UNL     1       1.105  10.663  18.610  0.00  0.00    +0.000 NA
ATOM      2  C   UNL     1       1.036  10.190  20.023  0.00  0.00    +0.000 C 
ATOM      3  C   UNL     1       0.784   8.676  20.256  0.00  0.00    +0.000 C 
ATOM      4  N   UNL     1       1.579   7.820  19.355  0.00  0.00    +0.000 N 
ATOM      5  C   UNL     1       2.113   6.628  19.851  0.00  0.00    +0.000 C 
ATOM      6  O   UNL     1       1.970   6.280  21.025  0.00  0.00    +0.000 OA
ATOM      7  C   UNL     1       1.519   8.254  17.961  0.00  0.00    +0.000 C 
ATOM      8  C   UNL     1       1.996   9.721  17.873  0.00  0.00    +0.000 C 
ENDROOT
BRANCH   5   9
ATOM      9  C   UNL     1       2.849   5.690  18.947  0.00  0.00    +0.000 A 
ATOM     10  C   UNL     1       2.208   4.510  18.556  0.00  0.00    +0.000 A 
ATOM     11  C   UNL     1       2.813   3.648  17.637  0.00  0.00    +0.000 A 
ATOM     12  C   UNL     1       4.042   3.981  17.061  0.00  0.00    +0.000 A 
ATOM     13  C   UNL     1       4.704   5.144  17.469  0.00  0.00    +0.000 A 
ATOM     14  C   UNL     1       4.142   5.942  18.477  0.00  0.00    +0.000 A 
BRANCH  13  15
ATOM     15  N   UNL     1       5.903   5.565  16.846  0.00  0.00    +0.000 N 
ATOM     16  C   UNL     1       6.749   6.595  17.172  0.00  0.00    +0.000 A 
ATOM     17  N   UNL     1       7.775   6.593  16.353  0.00  0.00    +0.000 NA
ATOM     18  N   UNL     1       7.576   5.533  15.510  0.00  0.00    +0.000 NA
ATOM     19  N   UNL     1       6.451   4.896  15.804  0.00  0.00    +0.000 NA
ENDBRANCH  13  15
ENDBRANCH   5   9
BRANCH   1  20
ATOM     20  C   UNL     1      -0.203  10.662  17.913  0.00  0.00    +0.000 C 
BRANCH  20  22
ATOM     21  N   UNL     1      -2.382  11.232  18.893  0.00  0.00    +0.000 N 
ATOM     22  C   UNL     1      -1.209  11.710  18.346  0.00  0.00    +0.000 C 
ATOM     23  O   UNL     1      -0.880  12.892  18.255  0.00  0.00    +0.000 OA
ATOM     24  H   UNL     1      -2.401  10.232  19.050  0.00  0.00    +0.000 HD
BRANCH  21  30
ATOM     25  C   UNL     1      -7.091  12.920  18.361  0.00  0.00    +0.000 C 
ATOM     26  C   UNL     1      -5.759  12.864  19.063  0.00  0.00    +0.000 A 
ATOM     27  C   UNL     1      -5.612  13.611  20.240  0.00  0.00    +0.000 A 
ATOM     28  C   UNL     1      -4.417  13.591  20.938  0.00  0.00    +0.000 A 
ATOM     29  C   UNL     1      -3.366  12.812  20.473  0.00  0.00    +0.000 A 
ATOM     30  C   UNL     1      -3.475  12.031  19.309  0.00  0.00    +0.000 A 
ATOM     31  C   UNL     1      -4.678  12.078  18.569  0.00  0.00    +0.000 A 
ATOM     32  C   UNL     1      -4.889  11.308  17.288  0.00  0.00    +0.000 C 
ENDBRANCH  21  30
ENDBRANCH  20  22
ENDBRANCH   1  20
TORSDOF 5
ENDMDL
MODEL 5
REMARK VINA RESULT:      -8.1      2.224      2.944
REMARK  Name = 
REMARK  7 active torsions:
REMARK  status: ('A' for Active; 'I' for Inactive)
REMARK    1  A    between atoms: C_1  and  C_2
REMARK    2  A    between atoms: C_6  and  N_7
REMARK    3  A    between atoms: C_8  and  C_10
REMARK    4  A    between atoms: C_10  and  N_11
REMARK    5  A    between atoms: C_15  and  C_17
REMARK    6  A    between atoms: C_21  and  N_22
REMARK    7  A    between atoms: C_30  and  C_31
REMARK                            x       y       z     vdW  Elec       q    Type
REMARK                         _______ _______ _______ _____ _____    ______ ____
ROOT
ATOM      1  N   UNL     1      -0.550   9.831  20.696  0.00  0.00    +0.000 NA
ATOM      2  C   UNL     1      -0.374  10.229  19.269  0.00  0.00    +0.000 C 
ATOM      3  C   UNL     1       1.035  10.042  18.646  0.00  0.00    +0.000 C 
ATOM      4  N   UNL     1       1.653   8.752  19.009  0.00  0.00    +0.000 N 
ATOM      5  C   UNL     1       2.405   8.069  18.049  0.00  0.00    +0.000 C 
ATOM      6  O   UNL     1       2.546   8.489  16.899  0.00  0.00    +0.000 OA
ATOM      7  C   UNL     1       1.560   8.461  20.437  0.00  0.00    +0.000 C 
ATOM      8  C   UNL     1       0.073   8.486  20.857  0.00  0.00    +0.000 C 
ENDROOT
BRANCH   5   9
ATOM      9  C   UNL     1       3.120   6.803  18.404  0.00  0.00    +0.000 A 
ATOM     10  C   UNL     1       4.433   6.638  17.953  0.00  0.00    +0.000 A 
ATOM     11  C   UNL     1       5.177   5.519  18.338  0.00  0.00    +0.000 A 
ATOM     12  C   UNL     1       4.633   4.578  19.216  0.00  0.00    +0.000 A 
ATOM     13  C   UNL     1       3.310   4.720  19.648  0.00  0.00    +0.000 A 
ATOM     14  C   UNL     1       2.535   5.786  19.164  0.00  0.00    +0.000 A 
BRANCH  13  15
ATOM     15  N   UNL     1       2.750   3.843  20.608  0.00  0.00    +0.000 N 
ATOM     16  C   UNL     1       1.461   3.750  21.068  0.00  0.00    +0.000 A 
ATOM     17  N   UNL     1       1.374   2.756  21.923  0.00  0.00    +0.000 NA
ATOM     18  N   UNL     1       2.627   2.208  21.985  0.00  0.00    +0.000 NA
ATOM     19  N   UNL     1       3.468   2.851  21.187  0.00  0.00    +0.000 NA
ENDBRANCH  13  15
ENDBRANCH   5   9
BRANCH   1  20
ATOM     20  C   UNL     1       0.117  10.739  21.659  0.00  0.00    +0.000 C 
BRANCH  20  22
ATOM     21  N   UNL     1      -1.080  12.781  22.315  0.00  0.00    +0.000 N 
ATOM     22  C   UNL     1      -0.779  11.474  22.637  0.00  0.00    +0.000 C 
ATOM     23  O   UNL     1      -1.229  10.839  23.590  0.00  0.00    +0.000 OA
ATOM     24  H   UNL     1      -0.763  13.078  21.401  0.00  0.00    +0.000 HD
BRANCH  21  30
ATOM     25  C   UNL     1      -5.481  14.705  23.811  0.00  0.00    +0.000 C 
ATOM     26  C   UNL     1      -3.978  14.610  23.849  0.00  0.00    +0.000 A 
ATOM     27  C   UNL     1      -3.300  15.409  24.781  0.00  0.00    +0.000 A 
ATOM     28  C   UNL     1      -1.920  15.359  24.873  0.00  0.00    +0.000 A 
ATOM     29  C   UNL     1      -1.210  14.497  24.048  0.00  0.00    +0.000 A 
ATOM     30  C   UNL     1      -1.849  13.663  23.114  0.00  0.00    +0.000 A 
ATOM     31  C   UNL     1      -3.255  13.739  22.985  0.00  0.00    +0.000 A 
ATOM     32  C   UNL     1      -4.037  12.915  21.992  0.00  0.00    +0.000 C 
ENDBRANCH  21  30
ENDBRANCH  20  22
ENDBRANCH   1  20
TORSDOF 5
ENDMDL
MODEL 6
REMARK VINA RESULT:      -8.1      2.435      3.341
REMARK  Name = 
REMARK  7 active torsions:
REMARK  status: ('A' for Active; 'I' for Inactive)
REMARK    1  A    between atoms: C_1  and  C_2
REMARK    2  A    between atoms: C_6  and  N_7
REMARK    3  A    between atoms: C_8  and  C_10
REMARK    4  A    between atoms: C_10  and  N_11
REMARK    5  A    between atoms: C_15  and  C_17
REMARK    6  A    between atoms: C_21  and  N_22
REMARK    7  A    between atoms: C_30  and  C_31
REMARK                            x       y       z     vdW  Elec       q    Type
REMARK                         _______ _______ _______ _____ _____    ______ ____
ROOT
ATOM      1  N   UNL     1      -0.219   9.774  20.256  0.00  0.00    +0.000 NA
ATOM      2  C   UNL     1       0.048  10.096  18.824  0.00  0.00    +0.000 C 
ATOM      3  C   UNL     1       1.476   9.811  18.285  0.00  0.00    +0.000 C 
ATOM      4  N   UNL     1       2.008   8.511  18.737  0.00  0.00    +0.000 N 
ATOM      5  C   UNL     1       2.771   7.747  17.850  0.00  0.00    +0.000 C 
ATOM      6  O   UNL     1       2.991   8.105  16.691  0.00  0.00    +0.000 OA
ATOM      7  C   UNL     1       1.829   8.293  20.170  0.00  0.00    +0.000 C 
ATOM      8  C   UNL     1       0.326   8.410  20.510  0.00  0.00    +0.000 C 
ENDROOT
BRANCH   5   9
ATOM      9  C   UNL     1       3.402   6.467  18.298  0.00  0.00    +0.000 A 
ATOM     10  C   UNL     1       4.723   6.212  17.916  0.00  0.00    +0.000 A 
ATOM     11  C   UNL     1       5.388   5.077  18.389  0.00  0.00    +0.000 A 
ATOM     12  C   UNL     1       4.758   4.212  19.287  0.00  0.00    +0.000 A 
ATOM     13  C   UNL     1       3.428   4.443  19.651  0.00  0.00    +0.000 A 
ATOM     14  C   UNL     1       2.732   5.521  19.080  0.00  0.00    +0.000 A 
BRANCH  13  15
ATOM     15  N   UNL     1       2.782   3.647  20.627  0.00  0.00    +0.000 N 
ATOM     16  C   UNL     1       1.465   3.622  21.012  0.00  0.00    +0.000 A 
ATOM     17  N   UNL     1       1.293   2.688  21.918  0.00  0.00    +0.000 NA
ATOM     18  N   UNL     1       2.521   2.107  22.091  0.00  0.00    +0.000 NA
ATOM     19  N   UNL     1       3.429   2.672  21.308  0.00  0.00    +0.000 NA
ENDBRANCH  13  15
ENDBRANCH   5   9
BRANCH   1  20
ATOM     20  C   UNL     1       0.444  10.694  21.211  0.00  0.00    +0.000 C 
BRANCH  20  22
ATOM     21  N   UNL     1      -1.246  12.219  22.135  0.00  0.00    +0.000 N 
ATOM     22  C   UNL     1      -0.385  11.171  22.388  0.00  0.00    +0.000 C 
ATOM     23  O   UNL     1      -0.289  10.549  23.445  0.00  0.00    +0.000 OA
ATOM     24  H   UNL     1      -1.316  12.486  21.161  0.00  0.00    +0.000 HD
BRANCH  21  30
ATOM     25  C   UNL     1      -2.378  16.109  25.115  0.00  0.00    +0.000 C 
ATOM     26  C   UNL     1      -2.628  14.733  24.556  0.00  0.00    +0.000 A 
ATOM     27  C   UNL     1      -3.782  14.058  24.979  0.00  0.00    +0.000 A 
ATOM     28  C   UNL     1      -4.074  12.796  24.493  0.00  0.00    +0.000 A 
ATOM     29  C   UNL     1      -3.224  12.206  23.568  0.00  0.00    +0.000 A 
ATOM     30  C   UNL     1      -2.066  12.853  23.100  0.00  0.00    +0.000 A 
ATOM     31  C   UNL     1      -1.740  14.125  23.623  0.00  0.00    +0.000 A 
ATOM     32  C   UNL     1      -0.505  14.892  23.217  0.00  0.00    +0.000 C 
ENDBRANCH  21  30
ENDBRANCH  20  22
ENDBRANCH   1  20
TORSDOF 5
ENDMDL
MODEL 7
REMARK VINA RESULT:      -8.1      1.798      2.753
REMARK  Name = 
REMARK  7 active torsions:
REMARK  status: ('A' for Active; 'I' for Inactive)
REMARK    1  A    between atoms: C_1  and  C_2
REMARK    2  A    between atoms: C_6  and  N_7
REMARK    3  A    between atoms: C_8  and  C_10
REMARK    4  A    between atoms: C_10  and  N_11
REMARK    5  A    between atoms: C_15  and  C_17
REMARK    6  A    between atoms: C_21  and  N_22
REMARK    7  A    between atoms: C_30  and  C_31
REMARK                            x       y       z     vdW  Elec       q    Type
REMARK                         _______ _______ _______ _____ _____    ______ ____
ROOT
ATOM      1  N   UNL     1       1.355  10.781  19.077  0.00  0.00    +0.000 NA
ATOM      2  C   UNL     1       1.315  10.197  20.449  0.00  0.00    +0.000 C 
ATOM      3  C   UNL     1       0.953   8.692  20.572  0.00  0.00    +0.000 C 
ATOM      4  N   UNL     1       1.633   7.857  19.564  0.00  0.00    +0.000 N 
ATOM      5  C   UNL     1       2.093   6.590  19.933  0.00  0.00    +0.000 C 
ATOM      6  O   UNL     1       1.978   6.155  21.081  0.00  0.00    +0.000 OA
ATOM      7  C   UNL     1       1.543   8.411  18.215  0.00  0.00    +0.000 C 
ATOM      8  C   UNL     1       2.132   9.840  18.221  0.00  0.00    +0.000 C 
ENDROOT
BRANCH   5   9
ATOM      9  C   UNL     1       2.707   5.679  18.918  0.00  0.00    +0.000 A 
ATOM     10  C   UNL     1       1.940   4.613  18.437  0.00  0.00    +0.000 A 
ATOM     11  C   UNL     1       2.432   3.791  17.419  0.00  0.00    +0.000 A 
ATOM     12  C   UNL     1       3.674   4.056  16.836  0.00  0.00    +0.000 A 
ATOM     13  C   UNL     1       4.460   5.102  17.331  0.00  0.00    +0.000 A 
ATOM     14  C   UNL     1       4.007   5.848  18.431  0.00  0.00    +0.000 A 
BRANCH  13  15
ATOM     15  N   UNL     1       5.681   5.463  16.711  0.00  0.00    +0.000 N 
ATOM     16  C   UNL     1       6.566   6.462  17.028  0.00  0.00    +0.000 A 
ATOM     17  N   UNL     1       7.597   6.404  16.216  0.00  0.00    +0.000 NA
ATOM     18  N   UNL     1       7.360   5.339  15.389  0.00  0.00    +0.000 NA
ATOM     19  N   UNL     1       6.208   4.755  15.684  0.00  0.00    +0.000 NA
ENDBRANCH  13  15
ENDBRANCH   5   9
BRANCH   1  20
ATOM     20  C   UNL     1       0.019  10.939  18.454  0.00  0.00    +0.000 C 
BRANCH  20  22
ATOM     21  N   UNL     1      -1.748  11.546  20.047  0.00  0.00    +0.000 N 
ATOM     22  C   UNL     1      -0.896  11.986  19.056  0.00  0.00    +0.000 C 
ATOM     23  O   UNL     1      -0.761  13.150  18.679  0.00  0.00    +0.000 OA
ATOM     24  H   UNL     1      -1.594  10.591  20.348  0.00  0.00    +0.000 HD
BRANCH  21  30
ATOM     25  C   UNL     1      -3.420  14.106  24.042  0.00  0.00    +0.000 C 
ATOM     26  C   UNL     1      -3.549  13.586  22.634  0.00  0.00    +0.000 A 
ATOM     27  C   UNL     1      -4.685  13.963  21.903  0.00  0.00    +0.000 A 
ATOM     28  C   UNL     1      -4.856  13.528  20.601  0.00  0.00    +0.000 A 
ATOM     29  C   UNL     1      -3.886  12.727  20.014  0.00  0.00    +0.000 A 
ATOM     30  C   UNL     1      -2.721  12.341  20.701  0.00  0.00    +0.000 A 
ATOM     31  C   UNL     1      -2.559  12.747  22.045  0.00  0.00    +0.000 A 
ATOM     32  C   UNL     1      -1.367  12.362  22.886  0.00  0.00    +0.000 C 
ENDBRANCH  21  30
ENDBRANCH  20  22
ENDBRANCH   1  20
TORSDOF 5
ENDMDL
MODEL 8
REMARK VINA RESULT:      -8.1      1.049      1.174
REMARK  Name = 
REMARK  7 active torsions:
REMARK  status: ('A' for Active; 'I' for Inactive)
REMARK    1  A    between atoms: C_1  and  C_2
REMARK    2  A    between atoms: C_6  and  N_7
REMARK    3  A    between atoms: C_8  and  C_10
REMARK    4  A    between atoms: C_10  and  N_11
REMARK    5  A    between atoms: C_15  and  C_17
REMARK    6  A    between atoms: C_21  and  N_22
REMARK    7  A    between atoms: C_30  and  C_31
REMARK                            x       y       z     vdW  Elec       q    Type
REMARK                         _______ _______ _______ _____ _____    ______ ____
ROOT
ATOM      1  N   UNL     1      -0.900  10.114  20.990  0.00  0.00    +0.000 NA
ATOM      2  C   UNL     1      -0.861  10.505  19.551  0.00  0.00    +0.000 C 
ATOM      3  C   UNL     1       0.517  10.458  18.838  0.00  0.00    +0.000 C 
ATOM      4  N   UNL     1       1.292   9.247  19.171  0.00  0.00    +0.000 N 
ATOM      5  C   UNL     1       2.048   8.631  18.171  0.00  0.00    +0.000 C 
ATOM      6  O   UNL     1       2.069   9.045  17.010  0.00  0.00    +0.000 OA
ATOM      7  C   UNL     1       1.323   8.971  20.606  0.00  0.00    +0.000 C 
ATOM      8  C   UNL     1      -0.128   8.846  21.123  0.00  0.00    +0.000 C 
ENDROOT
BRANCH   5   9
ATOM      9  C   UNL     1       2.916   7.454  18.490  0.00  0.00    +0.000 A 
ATOM     10  C   UNL     1       2.479   6.559  19.472  0.00  0.00    +0.000 A 
ATOM     11  C   UNL     1       3.205   5.395  19.739  0.00  0.00    +0.000 A 
ATOM     12  C   UNL     1       4.346   5.088  18.994  0.00  0.00    +0.000 A 
ATOM     13  C   UNL     1       4.806   5.991  18.030  0.00  0.00    +0.000 A 
ATOM     14  C   UNL     1       4.136   7.212  17.851  0.00  0.00    +0.000 A 
BRANCH  13  15
ATOM     15  N   UNL     1       5.902   5.679  17.191  0.00  0.00    +0.000 N 
ATOM     16  C   UNL     1       6.410   4.458  16.825  0.00  0.00    +0.000 A 
ATOM     17  N   UNL     1       7.404   4.634  15.985  0.00  0.00    +0.000 NA
ATOM     18  N   UNL     1       7.509   5.987  15.810  0.00  0.00    +0.000 NA
ATOM     19  N   UNL     1       6.599   6.632  16.527  0.00  0.00    +0.000 NA
ENDBRANCH  13  15
ENDBRANCH   5   9
BRANCH   1  20
ATOM     20  C   UNL     1      -0.274  11.105  21.898  0.00  0.00    +0.000 C 
BRANCH  20  22
ATOM     21  N   UNL     1      -1.196  13.247  22.668  0.00  0.00    +0.000 N 
ATOM     22  C   UNL     1      -1.203  11.875  22.815  0.00  0.00    +0.000 C 
ATOM     23  O   UNL     1      -1.942  11.227  23.556  0.00  0.00    +0.000 OA
ATOM     24  H   UNL     1      -0.653  13.588  21.885  0.00  0.00    +0.000 HD
BRANCH  21  30
ATOM     25  C   UNL     1      -5.461  15.657  23.811  0.00  0.00    +0.000 C 
ATOM     26  C   UNL     1      -4.004  15.338  24.024  0.00  0.00    +0.000 A 
ATOM     27  C   UNL     1      -3.358  15.939  25.114  0.00  0.00    +0.000 A 
ATOM     28  C   UNL     1      -2.025  15.677  25.370  0.00  0.00    +0.000 A 
ATOM     29  C   UNL     1      -1.330  14.799  24.549  0.00  0.00    +0.000 A 
ATOM     30  C   UNL     1      -1.941  14.156  23.458  0.00  0.00    +0.000 A 
ATOM     31  C   UNL     1      -3.293  14.451  23.165  0.00  0.00    +0.000 A 
ATOM     32  C   UNL     1      -4.035  13.845  21.999  0.00  0.00    +0.000 C 
ENDBRANCH  21  30
ENDBRANCH  20  22
ENDBRANCH   1  20
TORSDOF 5
ENDMDL
MODEL 9
REMARK VINA RESULT:      -8.1      0.862      1.171
REMARK  Name = 
REMARK  7 active torsions:
REMARK  status: ('A' for Active; 'I' for Inactive)
REMARK    1  A    between atoms: C_1  and  C_2
REMARK    2  A    between atoms: C_6  and  N_7
REMARK    3  A    between atoms: C_8  and  C_10
REMARK    4  A    between atoms: C_10  and  N_11
REMARK    5  A    between atoms: C_15  and  C_17
REMARK    6  A    between atoms: C_21  and  N_22
REMARK    7  A    between atoms: C_30  and  C_31
REMARK                            x       y       z     vdW  Elec       q    Type
REMARK                         _______ _______ _______ _____ _____    ______ ____
ROOT
ATOM      1  N   UNL     1      -0.666   9.609  21.108  0.00  0.00    +0.000 NA
ATOM      2  C   UNL     1      -0.498  10.007  19.681  0.00  0.00    +0.000 C 
ATOM      3  C   UNL     1       0.915   9.848  19.059  0.00  0.00    +0.000 C 
ATOM      4  N   UNL     1       1.560   8.573  19.426  0.00  0.00    +0.000 N 
ATOM      5  C   UNL     1       2.327   7.902  18.469  0.00  0.00    +0.000 C 
ATOM      6  O   UNL     1       2.460   8.322  17.318  0.00  0.00    +0.000 OA
ATOM      7  C   UNL     1       1.473   8.283  20.855  0.00  0.00    +0.000 C 
ATOM      8  C   UNL     1      -0.015   8.278  21.274  0.00  0.00    +0.000 C 
ENDROOT
BRANCH   5   9
ATOM      9  C   UNL     1       3.069   6.653  18.828  0.00  0.00    +0.000 A 
ATOM     10  C   UNL     1       2.433   5.723  19.657  0.00  0.00    +0.000 A 
ATOM     11  C   UNL     1       3.044   4.499  19.943  0.00  0.00    +0.000 A 
ATOM     12  C   UNL     1       4.273   4.171  19.365  0.00  0.00    +0.000 A 
ATOM     13  C   UNL     1       4.929   5.107  18.558  0.00  0.00    +0.000 A 
ATOM     14  C   UNL     1       4.361   6.377  18.371  0.00  0.00    +0.000 A 
BRANCH  13  15
ATOM     15  N   UNL     1       6.128   4.782  17.879  0.00  0.00    +0.000 N 
ATOM     16  C   UNL     1       6.393   4.741  16.534  0.00  0.00    +0.000 A 
ATOM     17  N   UNL     1       7.658   4.441  16.348  0.00  0.00    +0.000 NA
ATOM     18  N   UNL     1       8.197   4.310  17.599  0.00  0.00    +0.000 NA
ATOM     19  N   UNL     1       7.283   4.523  18.536  0.00  0.00    +0.000 NA
ENDBRANCH  13  15
ENDBRANCH   5   9
BRANCH   1  20
ATOM     20  C   UNL     1      -0.020  10.534  22.069  0.00  0.00    +0.000 C 
BRANCH  20  22
ATOM     21  N   UNL     1      -1.885  12.131  22.131  0.00  0.00    +0.000 N 
ATOM     22  C   UNL     1      -0.516  11.967  22.078  0.00  0.00    +0.000 C 
ATOM     23  O   UNL     1       0.325  12.864  22.116  0.00  0.00    +0.000 OA
ATOM     24  H   UNL     1      -2.411  11.278  22.272  0.00  0.00    +0.000 HD
BRANCH  21  30
ATOM     25  C   UNL     1      -5.003  15.545  24.114  0.00  0.00    +0.000 C 
ATOM     26  C   UNL     1      -4.075  15.043  23.038  0.00  0.00    +0.000 A 
ATOM     27  C   UNL     1      -3.819  15.891  21.952  0.00  0.00    +0.000 A 
ATOM     28  C   UNL     1      -2.966  15.493  20.938  0.00  0.00    +0.000 A 
ATOM     29  C   UNL     1      -2.349  14.251  21.010  0.00  0.00    +0.000 A 
ATOM     30  C   UNL     1      -2.560  13.376  22.091  0.00  0.00    +0.000 A 
ATOM     31  C   UNL     1      -3.462  13.759  23.110  0.00  0.00    +0.000 A 
ATOM     32  C   UNL     1      -3.788  12.883  24.295  0.00  0.00    +0.000 C 
ENDBRANCH  21  30
ENDBRANCH  20  22
ENDBRANCH   1  20
TORSDOF 5
ENDMDL
