MODEL 1
REMARK VINA RESULT:      -8.4      0.000      0.000
REMARK  Name = 
REMARK  7 active torsions:
REMARK  status: ('A' for Active; 'I' for Inactive)
REMARK    1  A    between atoms: C_1  and  C_2
REMARK    2  A    between atoms: C_2  and  O_3
REMARK    3  A    between atoms: C_2  and  C_17
REMARK    4  A    between atoms: O_3  and  C_4
REMARK    5  A    between atoms: C_8  and  C_9
REMARK    6  A    between atoms: C_15  and  N_16
REMARK    7  A    between atoms: C_24  and  N_25
REMARK                            x       y       z     vdW  Elec       q    Type
REMARK                         _______ _______ _______ _____ _____    ______ ____
ROOT
ATOM      1  O   UNL     1       3.992   6.030  17.101  0.00  0.00    +0.000 OA
ENDROOT
BRANCH   1   2
ATOM      2  C   UNL     1       3.254   6.411  18.183  0.00  0.00    +0.000 A 
ATOM      3  C   UNL     1       2.566   7.610  17.952  0.00  0.00    +0.000 A 
ATOM      4  C   UNL     1       1.848   8.233  18.973  0.00  0.00    +0.000 A 
ATOM      5  C   UNL     1       1.250   9.496  18.805  0.00  0.00    +0.000 A 
ATOM      6  C   UNL     1       0.612  10.119  19.879  0.00  0.00    +0.000 A 
ATOM      7  C   UNL     1       0.531   9.455  21.104  0.00  0.00    +0.000 A 
ATOM      8  C   UNL     1       1.095   8.185  21.248  0.00  0.00    +0.000 A 
ATOM      9  C   UNL     1       1.779   7.570  20.209  0.00  0.00    +0.000 A 
ATOM     10  N   UNL     1       2.388   6.396  20.432  0.00  0.00    +0.000 NA
ATOM     11  C   UNL     1       3.144   5.845  19.455  0.00  0.00    +0.000 A 
BRANCH  11  12
ATOM     12  N   UNL     1       3.863   4.750  19.911  0.00  0.00    +0.000 N 
ATOM     13  H   UNL     1       4.724   5.109  20.313  0.00  0.00    +0.000 HD
ATOM     14  H   UNL     1       3.373   4.158  20.567  0.00  0.00    +0.000 HD
ENDBRANCH  11  12
BRANCH   6  15
ATOM     15  C   UNL     1       0.093  11.450  19.745  0.00  0.00    +0.000 C 
ATOM     16  N   UNL     1      -0.343  12.518  19.630  0.00  0.00    +0.000 NA
ENDBRANCH   6  15
ENDBRANCH   1   2
BRANCH   1  18
ATOM     17  C   UNL     1       3.183   3.807  16.654  0.00  0.00    +0.000 C 
ATOM     18  C   UNL     1       4.422   4.671  16.919  0.00  0.00    +0.000 C 
BRANCH  18  19
ATOM     19  C   UNL     1       5.368   4.604  15.710  0.00  0.00    +0.000 A 
ATOM     20  C   UNL     1       4.915   3.912  14.558  0.00  0.00    +0.000 A 
ATOM     21  C   UNL     1       5.694   3.821  13.413  0.00  0.00    +0.000 A 
ATOM     22  F   UNL     1       5.234   3.147  12.351  0.00  0.00    +0.000 F 
ATOM     23  C   UNL     1       6.937   4.422  13.377  0.00  0.00    +0.000 A 
ATOM     24  F   UNL     1       7.697   4.338  12.277  0.00  0.00    +0.000 F 
ATOM     25  C   UNL     1       7.425   5.103  14.488  0.00  0.00    +0.000 A 
ATOM     26  C   UNL     1       6.670   5.189  15.680  0.00  0.00    +0.000 A 
BRANCH  26  27
ATOM     27  N   UNL     1       7.290   5.811  16.821  0.00  0.00    +0.000 N 
ATOM     28  C   UNL     1       7.589   5.230  18.042  0.00  0.00    +0.000 A 
ATOM     29  C   UNL     1       7.972   6.233  18.899  0.00  0.00    +0.000 A 
ATOM     30  C   UNL     1       7.959   7.385  18.109  0.00  0.00    +0.000 A 
ATOM     31  N   UNL     1       7.585   7.136  16.855  0.00  0.00    +0.000 NA
ENDBRANCH  26  27
ENDBRANCH  18  19
ENDBRANCH   1  18
TORSDOF 6
ENDMDL
MODEL 2
REMARK VINA RESULT:      -8.3      0.972      1.154
REMARK  Name = 
REMARK  7 active torsions:
REMARK  status: ('A' for Active; 'I' for Inactive)
REMARK    1  A    between atoms: C_1  and  C_2
REMARK    2  A    between atoms: C_2  and  O_3
REMARK    3  A    between atoms: C_2  and  C_17
REMARK    4  A    between atoms: O_3  and  C_4
REMARK    5  A    between atoms: C_8  and  C_9
REMARK    6  A    between atoms: C_15  and  N_16
REMARK    7  A    between atoms: C_24  and  N_25
REMARK                            x       y       z     vdW  Elec       q    Type
REMARK                         _______ _______ _______ _____ _____    ______ ____
ROOT
ATOM      1  O   UNL     1       3.192   4.953  17.335  0.00  0.00    +0.000 OA
ENDROOT
BRANCH   1   2
ATOM      2  C   UNL     1       2.648   5.746  18.303  0.00  0.00    +0.000 A 
ATOM      3  C   UNL     1       2.353   7.030  17.824  0.00  0.00    +0.000 A 
ATOM      4  C   UNL     1       1.900   8.029  18.686  0.00  0.00    +0.000 A 
ATOM      5  C   UNL     1       1.712   9.357  18.257  0.00  0.00    +0.000 A 
ATOM      6  C   UNL     1       1.338  10.343  19.172  0.00  0.00    +0.000 A 
ATOM      7  C   UNL     1       1.105   9.988  20.502  0.00  0.00    +0.000 A 
ATOM      8  C   UNL     1       1.257   8.659  20.907  0.00  0.00    +0.000 A 
ATOM      9  C   UNL     1       1.680   7.674  20.026  0.00  0.00    +0.000 A 
ATOM     10  N   UNL     1       1.907   6.436  20.490  0.00  0.00    +0.000 NA
ATOM     11  C   UNL     1       2.420   5.500  19.659  0.00  0.00    +0.000 A 
BRANCH  11  12
ATOM     12  N   UNL     1       2.785   4.348  20.338  0.00  0.00    +0.000 N 
ATOM     13  H   UNL     1       3.376   4.636  21.113  0.00  0.00    +0.000 HD
ATOM     14  H   UNL     1       2.016   3.776  20.659  0.00  0.00    +0.000 HD
ENDBRANCH  11  12
BRANCH   6  15
ATOM     15  C   UNL     1       1.248  11.716  18.768  0.00  0.00    +0.000 C 
ATOM     16  N   UNL     1       1.166  12.830  18.458  0.00  0.00    +0.000 NA
ENDBRANCH   6  15
ENDBRANCH   1   2
BRANCH   1  18
ATOM     17  C   UNL     1       4.101   2.756  17.711  0.00  0.00    +0.000 C 
ATOM     18  C   UNL     1       4.425   4.245  17.541  0.00  0.00    +0.000 C 
BRANCH  18  19
ATOM     19  C   UNL     1       5.326   4.443  16.312  0.00  0.00    +0.000 A 
ATOM     20  C   UNL     1       4.901   3.869  15.086  0.00  0.00    +0.000 A 
ATOM     21  C   UNL     1       5.642   4.016  13.922  0.00  0.00    +0.000 A 
ATOM     22  F   UNL     1       5.212   3.448  12.788  0.00  0.00    +0.000 F 
ATOM     23  C   UNL     1       6.815   4.745  13.940  0.00  0.00    +0.000 A 
ATOM     24  F   UNL     1       7.537   4.891  12.821  0.00  0.00    +0.000 F 
ATOM     25  C   UNL     1       7.274   5.316  15.123  0.00  0.00    +0.000 A 
ATOM     26  C   UNL     1       6.561   5.160  16.332  0.00  0.00    +0.000 A 
BRANCH  26  27
ATOM     27  N   UNL     1       7.157   5.684  17.533  0.00  0.00    +0.000 N 
ATOM     28  C   UNL     1       7.517   6.996  17.795  0.00  0.00    +0.000 A 
ATOM     29  C   UNL     1       8.238   7.005  18.965  0.00  0.00    +0.000 A 
ATOM     30  C   UNL     1       8.208   5.677  19.399  0.00  0.00    +0.000 A 
ATOM     31  N   UNL     1       7.534   4.886  18.565  0.00  0.00    +0.000 NA
ENDBRANCH  26  27
ENDBRANCH  18  19
ENDBRANCH   1  18
TORSDOF 6
ENDMDL
MODEL 3
REMARK VINA RESULT:      -8.1      5.398      9.830
REMARK  Name = 
REMARK  7 active torsions:
REMARK  status: ('A' for Active; 'I' for Inactive)
REMARK    1  A    between atoms: C_1  and  C_2
REMARK    2  A    between atoms: C_2  and  O_3
REMARK    3  A    between atoms: C_2  and  C_17
REMARK    4  A    between atoms: O_3  and  C_4
REMARK    5  A    between atoms: C_8  and  C_9
REMARK    6  A    between atoms: C_15  and  N_16
REMARK    7  A    between atoms: C_24  and  N_25
REMARK                            x       y       z     vdW  Elec       q    Type
REMARK                         _______ _______ _______ _____ _____    ______ ____
ROOT
ATOM      1  O   UNL     1       1.050   9.705  20.622  0.00  0.00    +0.000 OA
ENDROOT
BRANCH   1   2
ATOM      2  C   UNL     1       1.614   8.913  19.664  0.00  0.00    +0.000 A 
ATOM      3  C   UNL     1       1.916   7.635  20.153  0.00  0.00    +0.000 A 
ATOM      4  C   UNL     1       2.606   6.712  19.367  0.00  0.00    +0.000 A 
ATOM      5  C   UNL     1       3.030   5.468  19.872  0.00  0.00    +0.000 A 
ATOM      6  C   UNL     1       3.790   4.610  19.076  0.00  0.00    +0.000 A 
ATOM      7  C   UNL     1       4.080   4.976  17.761  0.00  0.00    +0.000 A 
ATOM      8  C   UNL     1       3.621   6.196  17.258  0.00  0.00    +0.000 A 
ATOM      9  C   UNL     1       2.910   7.088  18.049  0.00  0.00    +0.000 A 
ATOM     10  N   UNL     1       2.581   8.287  17.548  0.00  0.00    +0.000 NA
ATOM     11  C   UNL     1       1.982   9.199  18.348  0.00  0.00    +0.000 A 
BRANCH  11  12
ATOM     12  N   UNL     1       1.898  10.444  17.743  0.00  0.00    +0.000 N 
ATOM     13  H   UNL     1       2.025  11.137  18.474  0.00  0.00    +0.000 HD
ATOM     14  H   UNL     1       2.544  10.595  16.981  0.00  0.00    +0.000 HD
ENDBRANCH  11  12
BRANCH   6  15
ATOM     15  C   UNL     1       4.315   3.389  19.616  0.00  0.00    +0.000 C 
ATOM     16  N   UNL     1       4.735   2.393  20.035  0.00  0.00    +0.000 NA
ENDBRANCH   6  15
ENDBRANCH   1   2
BRANCH   1  18
ATOM     17  C   UNL     1      -0.563   8.932  22.233  0.00  0.00    +0.000 C 
ATOM     18  C   UNL     1      -0.358   9.666  20.903  0.00  0.00    +0.000 C 
BRANCH  18  19
ATOM     19  C   UNL     1      -0.884  11.106  21.019  0.00  0.00    +0.000 A 
ATOM     20  C   UNL     1      -0.637  11.800  22.232  0.00  0.00    +0.000 A 
ATOM     21  C   UNL     1      -1.056  13.110  22.415  0.00  0.00    +0.000 A 
ATOM     22  F   UNL     1      -0.814  13.726  23.580  0.00  0.00    +0.000 F 
ATOM     23  C   UNL     1      -1.721  13.769  21.399  0.00  0.00    +0.000 A 
ATOM     24  F   UNL     1      -2.131  15.033  21.568  0.00  0.00    +0.000 F 
ATOM     25  C   UNL     1      -1.993  13.122  20.197  0.00  0.00    +0.000 A 
ATOM     26  C   UNL     1      -1.607  11.779  19.989  0.00  0.00    +0.000 A 
BRANCH  26  27
ATOM     27  N   UNL     1      -2.024  11.146  18.765  0.00  0.00    +0.000 N 
ATOM     28  C   UNL     1      -3.320  10.912  18.333  0.00  0.00    +0.000 A 
ATOM     29  C   UNL     1      -3.251  10.101  17.226  0.00  0.00    +0.000 A 
ATOM     30  C   UNL     1      -1.881   9.950  16.995  0.00  0.00    +0.000 A 
ATOM     31  N   UNL     1      -1.140  10.600  17.892  0.00  0.00    +0.000 NA
ENDBRANCH  26  27
ENDBRANCH  18  19
ENDBRANCH   1  18
TORSDOF 6
ENDMDL
MODEL 4
REMARK VINA RESULT:      -8.1      4.909      9.287
REMARK  Name = 
REMARK  7 active torsions:
REMARK  status: ('A' for Active; 'I' for Inactive)
REMARK    1  A    between atoms: C_1  and  C_2
REMARK    2  A    between atoms: C_2  and  O_3
REMARK    3  A    between atoms: C_2  and  C_17
REMARK    4  A    between atoms: O_3  and  C_4
REMARK    5  A    between atoms: C_8  and  C_9
REMARK    6  A    between atoms: C_15  and  N_16
REMARK    7  A    between atoms: C_24  and  N_25
REMARK                            x       y       z     vdW  Elec       q    Type
REMARK                         _______ _______ _______ _____ _____    ______ ____
ROOT
ATOM      1  O   UNL     1       1.200   9.483  20.710  0.00  0.00    +0.000 OA
ENDROOT
BRANCH   1   2
ATOM      2  C   UNL     1       1.706   8.644  19.760  0.00  0.00    +0.000 A 
ATOM      3  C   UNL     1       2.001   7.378  20.282  0.00  0.00    +0.000 A 
ATOM      4  C   UNL     1       2.636   6.411  19.503  0.00  0.00    +0.000 A 
ATOM      5  C   UNL     1       3.054   5.176  20.036  0.00  0.00    +0.000 A 
ATOM      6  C   UNL     1       3.761   4.273  19.241  0.00  0.00    +0.000 A 
ATOM      7  C   UNL     1       4.005   4.585  17.903  0.00  0.00    +0.000 A 
ATOM      8  C   UNL     1       3.552   5.797  17.375  0.00  0.00    +0.000 A 
ATOM      9  C   UNL     1       2.894   6.733  18.160  0.00  0.00    +0.000 A 
ATOM     10  N   UNL     1       2.571   7.921  17.630  0.00  0.00    +0.000 NA
ATOM     11  C   UNL     1       2.026   8.874  18.420  0.00  0.00    +0.000 A 
BRANCH  11  12
ATOM     12  N   UNL     1       1.944  10.099  17.774  0.00  0.00    +0.000 N 
ATOM     13  H   UNL     1       2.690  10.119  17.084  0.00  0.00    +0.000 HD
ATOM     14  H   UNL     1       1.050  10.302  17.350  0.00  0.00    +0.000 HD
ENDBRANCH  11  12
BRANCH   6  15
ATOM     15  C   UNL     1       4.281   3.060  19.803  0.00  0.00    +0.000 C 
ATOM     16  N   UNL     1       4.693   2.070  20.243  0.00  0.00    +0.000 NA
ENDBRANCH   6  15
ENDBRANCH   1   2
BRANCH   1  18
ATOM     17  C   UNL     1      -0.725  10.121  22.008  0.00  0.00    +0.000 C 
ATOM     18  C   UNL     1      -0.119  10.041  20.601  0.00  0.00    +0.000 C 
BRANCH  18  19
ATOM     19  C   UNL     1      -0.017  11.451  19.999  0.00  0.00    +0.000 A 
ATOM     20  C   UNL     1       0.919  12.347  20.579  0.00  0.00    +0.000 A 
ATOM     21  C   UNL     1       1.093  13.632  20.086  0.00  0.00    +0.000 A 
ATOM     22  F   UNL     1       1.978  14.451  20.670  0.00  0.00    +0.000 F 
ATOM     23  C   UNL     1       0.354  14.059  19.000  0.00  0.00    +0.000 A 
ATOM     24  F   UNL     1       0.515  15.298  18.518  0.00  0.00    +0.000 F 
ATOM     25  C   UNL     1      -0.582  13.217  18.407  0.00  0.00    +0.000 A 
ATOM     26  C   UNL     1      -0.806  11.913  18.903  0.00  0.00    +0.000 A 
BRANCH  26  27
ATOM     27  N   UNL     1      -1.869  11.145  18.308  0.00  0.00    +0.000 N 
ATOM     28  C   UNL     1      -1.753  10.105  17.400  0.00  0.00    +0.000 A 
ATOM     29  C   UNL     1      -3.015   9.809  16.943  0.00  0.00    +0.000 A 
ATOM     30  C   UNL     1      -3.854  10.652  17.675  0.00  0.00    +0.000 A 
ATOM     31  N   UNL     1      -3.179  11.432  18.519  0.00  0.00    +0.000 NA
ENDBRANCH  26  27
ENDBRANCH  18  19
ENDBRANCH   1  18
TORSDOF 6
ENDMDL
MODEL 5
REMARK VINA RESULT:      -7.9      3.936      8.615
REMARK  Name = 
REMARK  7 active torsions:
REMARK  status: ('A' for Active; 'I' for Inactive)
REMARK    1  A    between atoms: C_1  and  C_2
REMARK    2  A    between atoms: C_2  and  O_3
REMARK    3  A    between atoms: C_2  and  C_17
REMARK    4  A    between atoms: O_3  and  C_4
REMARK    5  A    between atoms: C_8  and  C_9
REMARK    6  A    between atoms: C_15  and  N_16
REMARK    7  A    between atoms: C_24  and  N_25
REMARK                            x       y       z     vdW  Elec       q    Type
REMARK                         _______ _______ _______ _____ _____    ______ ____
ROOT
ATOM      1  O   UNL     1       1.325   8.535  18.346  0.00  0.00    +0.000 OA
ENDROOT
BRANCH   1   2
ATOM      2  C   UNL     1       2.329   7.642  18.586  0.00  0.00    +0.000 A 
ATOM      3  C   UNL     1       3.240   7.580  17.524  0.00  0.00    +0.000 A 
ATOM      4  C   UNL     1       4.274   6.643  17.520  0.00  0.00    +0.000 A 
ATOM      5  C   UNL     1       5.129   6.476  16.413  0.00  0.00    +0.000 A 
ATOM      6  C   UNL     1       6.095   5.470  16.419  0.00  0.00    +0.000 A 
ATOM      7  C   UNL     1       6.238   4.665  17.551  0.00  0.00    +0.000 A 
ATOM      8  C   UNL     1       5.409   4.866  18.659  0.00  0.00    +0.000 A 
ATOM      9  C   UNL     1       4.406   5.825  18.653  0.00  0.00    +0.000 A 
ATOM     10  N   UNL     1       3.574   5.907  19.701  0.00  0.00    +0.000 NA
ATOM     11  C   UNL     1       2.532   6.767  19.656  0.00  0.00    +0.000 A 
BRANCH  11  12
ATOM     12  N   UNL     1       1.659   6.582  20.718  0.00  0.00    +0.000 N 
ATOM     13  H   UNL     1       1.896   7.278  21.420  0.00  0.00    +0.000 HD
ATOM     14  H   UNL     1       0.678   6.623  20.480  0.00  0.00    +0.000 HD
ENDBRANCH  11  12
BRANCH   6  15
ATOM     15  C   UNL     1       6.899   5.224  15.257  0.00  0.00    +0.000 C 
ATOM     16  N   UNL     1       7.548   5.046  14.313  0.00  0.00    +0.000 NA
ENDBRANCH   6  15
ENDBRANCH   1   2
BRANCH   1  18
ATOM     17  C   UNL     1       2.359  10.654  17.858  0.00  0.00    +0.000 C 
ATOM     18  C   UNL     1       1.405   9.899  18.791  0.00  0.00    +0.000 C 
BRANCH  18  19
ATOM     19  C   UNL     1       0.005  10.529  18.721  0.00  0.00    +0.000 A 
ATOM     20  C   UNL     1      -1.027   9.773  18.107  0.00  0.00    +0.000 A 
ATOM     21  C   UNL     1      -2.325  10.255  18.020  0.00  0.00    +0.000 A 
ATOM     22  F   UNL     1      -3.267   9.515  17.422  0.00  0.00    +0.000 F 
ATOM     23  C   UNL     1      -2.636  11.494  18.548  0.00  0.00    +0.000 A 
ATOM     24  F   UNL     1      -3.886  11.968  18.467  0.00  0.00    +0.000 F 
ATOM     25  C   UNL     1      -1.653  12.273  19.150  0.00  0.00    +0.000 A 
ATOM     26  C   UNL     1      -0.315  11.825  19.228  0.00  0.00    +0.000 A 
BRANCH  26  27
ATOM     27  N   UNL     1       0.665  12.735  19.762  0.00  0.00    +0.000 N 
ATOM     28  C   UNL     1       1.180  13.871  19.159  0.00  0.00    +0.000 A 
ATOM     29  C   UNL     1       2.232  14.310  19.928  0.00  0.00    +0.000 A 
ATOM     30  C   UNL     1       2.246  13.441  21.022  0.00  0.00    +0.000 A 
ATOM     31  N   UNL     1       1.290  12.516  20.947  0.00  0.00    +0.000 NA
ENDBRANCH  26  27
ENDBRANCH  18  19
ENDBRANCH   1  18
TORSDOF 6
ENDMDL
MODEL 6
REMARK VINA RESULT:      -7.9      1.977      3.135
REMARK  Name = 
REMARK  7 active torsions:
REMARK  status: ('A' for Active; 'I' for Inactive)
REMARK    1  A    between atoms: C_1  and  C_2
REMARK    2  A    between atoms: C_2  and  O_3
REMARK    3  A    between atoms: C_2  and  C_17
REMARK    4  A    between atoms: O_3  and  C_4
REMARK    5  A    between atoms: C_8  and  C_9
REMARK    6  A    between atoms: C_15  and  N_16
REMARK    7  A    between atoms: C_24  and  N_25
REMARK                            x       y       z     vdW  Elec       q    Type
REMARK                         _______ _______ _______ _____ _____    ______ ____
ROOT
ATOM      1  O   UNL     1       3.222   5.993  18.073  0.00  0.00    +0.000 OA
ENDROOT
BRANCH   1   2
ATOM      2  C   UNL     1       2.497   6.801  18.900  0.00  0.00    +0.000 A 
ATOM      3  C   UNL     1       2.246   8.052  18.322  0.00  0.00    +0.000 A 
ATOM      4  C   UNL     1       1.622   9.065  19.050  0.00  0.00    +0.000 A 
ATOM      5  C   UNL     1       1.466  10.368  18.538  0.00  0.00    +0.000 A 
ATOM      6  C   UNL     1       0.911  11.372  19.332  0.00  0.00    +0.000 A 
ATOM      7  C   UNL     1       0.468  11.060  20.618  0.00  0.00    +0.000 A 
ATOM      8  C   UNL     1       0.593   9.754  21.102  0.00  0.00    +0.000 A 
ATOM      9  C   UNL     1       1.190   8.753  20.349  0.00  0.00    +0.000 A 
ATOM     10  N   UNL     1       1.376   7.544  20.899  0.00  0.00    +0.000 NA
ATOM     11  C   UNL     1       2.051   6.598  20.208  0.00  0.00    +0.000 A 
BRANCH  11  12
ATOM     12  N   UNL     1       2.334   5.488  20.990  0.00  0.00    +0.000 N 
ATOM     13  H   UNL     1       1.455   4.999  21.138  0.00  0.00    +0.000 HD
ATOM     14  H   UNL     1       3.037   4.867  20.615  0.00  0.00    +0.000 HD
ENDBRANCH  11  12
BRANCH   6  15
ATOM     15  C   UNL     1       0.846  12.724  18.857  0.00  0.00    +0.000 C 
ATOM     16  N   UNL     1       0.781  13.811  18.459  0.00  0.00    +0.000 NA
ENDBRANCH   6  15
ENDBRANCH   1   2
BRANCH   1  18
ATOM     17  C   UNL     1       5.310   5.664  19.225  0.00  0.00    +0.000 C 
ATOM     18  C   UNL     1       4.644   6.139  17.929  0.00  0.00    +0.000 C 
BRANCH  18  19
ATOM     19  C   UNL     1       5.119   5.270  16.753  0.00  0.00    +0.000 A 
ATOM     20  C   UNL     1       5.983   5.868  15.800  0.00  0.00    +0.000 A 
ATOM     21  C   UNL     1       6.477   5.151  14.720  0.00  0.00    +0.000 A 
ATOM     22  F   UNL     1       7.280   5.757  13.835  0.00  0.00    +0.000 F 
ATOM     23  C   UNL     1       6.137   3.821  14.562  0.00  0.00    +0.000 A 
ATOM     24  F   UNL     1       6.609   3.122  13.522  0.00  0.00    +0.000 F 
ATOM     25  C   UNL     1       5.285   3.198  15.468  0.00  0.00    +0.000 A 
ATOM     26  C   UNL     1       4.740   3.907  16.562  0.00  0.00    +0.000 A 
BRANCH  26  27
ATOM     27  N   UNL     1       3.778   3.225  17.389  0.00  0.00    +0.000 N 
ATOM     28  C   UNL     1       2.406   3.158  17.210  0.00  0.00    +0.000 A 
ATOM     29  C   UNL     1       1.865   2.591  18.339  0.00  0.00    +0.000 A 
ATOM     30  C   UNL     1       2.973   2.266  19.126  0.00  0.00    +0.000 A 
ATOM     31  N   UNL     1       4.124   2.611  18.550  0.00  0.00    +0.000 NA
ENDBRANCH  26  27
ENDBRANCH  18  19
ENDBRANCH   1  18
TORSDOF 6
ENDMDL
MODEL 7
REMARK VINA RESULT:      -7.9      1.043      1.149
REMARK  Name = 
REMARK  7 active torsions:
REMARK  status: ('A' for Active; 'I' for Inactive)
REMARK    1  A    between atoms: C_1  and  C_2
REMARK    2  A    between atoms: C_2  and  O_3
REMARK    3  A    between atoms: C_2  and  C_17
REMARK    4  A    between atoms: O_3  and  C_4
REMARK    5  A    between atoms: C_8  and  C_9
REMARK    6  A    between atoms: C_15  and  N_16
REMARK    7  A    between atoms: C_24  and  N_25
REMARK                            x       y       z     vdW  Elec       q    Type
REMARK                         _______ _______ _______ _____ _____    ______ ____
ROOT
ATOM      1  O   UNL     1       3.409   5.361  17.720  0.00  0.00    +0.000 OA
ENDROOT
BRANCH   1   2
ATOM      2  C   UNL     1       2.729   6.188  18.565  0.00  0.00    +0.000 A 
ATOM      3  C   UNL     1       2.504   7.448  17.995  0.00  0.00    +0.000 A 
ATOM      4  C   UNL     1       1.929   8.479  18.740  0.00  0.00    +0.000 A 
ATOM      5  C   UNL     1       1.802   9.787  18.234  0.00  0.00    +0.000 A 
ATOM      6  C   UNL     1       1.297  10.806  19.043  0.00  0.00    +0.000 A 
ATOM      7  C   UNL     1       0.875  10.504  20.339  0.00  0.00    +0.000 A 
ATOM      8  C   UNL     1       0.969   9.194  20.816  0.00  0.00    +0.000 A 
ATOM      9  C   UNL     1       1.517   8.177  20.048  0.00  0.00    +0.000 A 
ATOM     10  N   UNL     1       1.678   6.961  20.591  0.00  0.00    +0.000 NA
ATOM     11  C   UNL     1       2.307   5.996  19.882  0.00  0.00    +0.000 A 
BRANCH  11  12
ATOM     12  N   UNL     1       2.573   4.875  20.655  0.00  0.00    +0.000 N 
ATOM     13  H   UNL     1       3.517   4.982  21.016  0.00  0.00    +0.000 HD
ATOM     14  H   UNL     1       1.915   4.703  21.402  0.00  0.00    +0.000 HD
ENDBRANCH  11  12
BRANCH   6  15
ATOM     15  C   UNL     1       1.263  12.160  18.573  0.00  0.00    +0.000 C 
ATOM     16  N   UNL     1       1.227  13.249  18.175  0.00  0.00    +0.000 NA
ENDBRANCH   6  15
ENDBRANCH   1   2
BRANCH   1  18
ATOM     17  C   UNL     1       4.858   3.655  18.608  0.00  0.00    +0.000 C 
ATOM     18  C   UNL     1       4.791   5.031  17.933  0.00  0.00    +0.000 C 
BRANCH  18  19
ATOM     19  C   UNL     1       5.507   4.977  16.574  0.00  0.00    +0.000 A 
ATOM     20  C   UNL     1       4.945   4.152  15.567  0.00  0.00    +0.000 A 
ATOM     21  C   UNL     1       5.513   4.061  14.304  0.00  0.00    +0.000 A 
ATOM     22  F   UNL     1       4.958   3.260  13.385  0.00  0.00    +0.000 F 
ATOM     23  C   UNL     1       6.646   4.792  14.004  0.00  0.00    +0.000 A 
ATOM     24  F   UNL     1       7.202   4.709  12.788  0.00  0.00    +0.000 F 
ATOM     25  C   UNL     1       7.236   5.607  14.966  0.00  0.00    +0.000 A 
ATOM     26  C   UNL     1       6.701   5.699  16.270  0.00  0.00    +0.000 A 
BRANCH  26  27
ATOM     27  N   UNL     1       7.433   6.473  17.240  0.00  0.00    +0.000 N 
ATOM     28  C   UNL     1       7.900   6.055  18.475  0.00  0.00    +0.000 A 
ATOM     29  C   UNL     1       8.348   7.166  19.149  0.00  0.00    +0.000 A 
ATOM     30  C   UNL     1       8.197   8.209  18.232  0.00  0.00    +0.000 A 
ATOM     31  N   UNL     1       7.681   7.797  17.075  0.00  0.00    +0.000 NA
ENDBRANCH  26  27
ENDBRANCH  18  19
ENDBRANCH   1  18
TORSDOF 6
ENDMDL
MODEL 8
REMARK VINA RESULT:      -7.8      3.916      8.891
REMARK  Name = 
REMARK  7 active torsions:
REMARK  status: ('A' for Active; 'I' for Inactive)
REMARK    1  A    between atoms: C_1  and  C_2
REMARK    2  A    between atoms: C_2  and  O_3
REMARK    3  A    between atoms: C_2  and  C_17
REMARK    4  A    between atoms: O_3  and  C_4
REMARK    5  A    between atoms: C_8  and  C_9
REMARK    6  A    between atoms: C_15  and  N_16
REMARK    7  A    between atoms: C_24  and  N_25
REMARK                            x       y       z     vdW  Elec       q    Type
REMARK                         _______ _______ _______ _____ _____    ______ ____
ROOT
ATOM      1  O   UNL     1       1.072   8.931  18.051  0.00  0.00    +0.000 OA
ENDROOT
BRANCH   1   2
ATOM      2  C   UNL     1       2.042   8.051  18.436  0.00  0.00    +0.000 A 
ATOM      3  C   UNL     1       3.017   7.880  17.444  0.00  0.00    +0.000 A 
ATOM      4  C   UNL     1       4.032   6.933  17.592  0.00  0.00    +0.000 A 
ATOM      5  C   UNL     1       4.951   6.654  16.563  0.00  0.00    +0.000 A 
ATOM      6  C   UNL     1       5.897   5.641  16.724  0.00  0.00    +0.000 A 
ATOM      7  C   UNL     1       5.954   4.944  17.932  0.00  0.00    +0.000 A 
ATOM      8  C   UNL     1       5.061   5.256  18.961  0.00  0.00    +0.000 A 
ATOM      9  C   UNL     1       4.078   6.223  18.803  0.00  0.00    +0.000 A 
ATOM     10  N   UNL     1       3.184   6.412  19.784  0.00  0.00    +0.000 NA
ATOM     11  C   UNL     1       2.162   7.278  19.592  0.00  0.00    +0.000 A 
BRANCH  11  12
ATOM     12  N   UNL     1       1.222   7.203  20.609  0.00  0.00    +0.000 N 
ATOM     13  H   UNL     1       1.425   6.360  21.138  0.00  0.00    +0.000 HD
ATOM     14  H   UNL     1       1.179   8.011  21.214  0.00  0.00    +0.000 HD
ENDBRANCH  11  12
BRANCH   6  15
ATOM     15  C   UNL     1       6.767   5.279  15.643  0.00  0.00    +0.000 C 
ATOM     16  N   UNL     1       7.483   5.001  14.774  0.00  0.00    +0.000 NA
ENDBRANCH   6  15
ENDBRANCH   1   2
BRANCH   1  18
ATOM     17  C   UNL     1       1.626  11.194  18.655  0.00  0.00    +0.000 C 
ATOM     18  C   UNL     1       0.665  10.023  18.891  0.00  0.00    +0.000 C 
BRANCH  18  19
ATOM     19  C   UNL     1      -0.764  10.439  18.510  0.00  0.00    +0.000 A 
ATOM     20  C   UNL     1      -1.308   9.906  17.313  0.00  0.00    +0.000 A 
ATOM     21  C   UNL     1      -2.598  10.211  16.904  0.00  0.00    +0.000 A 
ATOM     22  F   UNL     1      -3.069   9.696  15.761  0.00  0.00    +0.000 F 
ATOM     23  C   UNL     1      -3.386  11.043  17.675  0.00  0.00    +0.000 A 
ATOM     24  F   UNL     1      -4.632  11.344  17.287  0.00  0.00    +0.000 F 
ATOM     25  C   UNL     1      -2.889  11.597  18.851  0.00  0.00    +0.000 A 
ATOM     26  C   UNL     1      -1.570  11.331  19.280  0.00  0.00    +0.000 A 
BRANCH  26  27
ATOM     27  N   UNL     1      -1.092  12.030  20.445  0.00  0.00    +0.000 N 
ATOM     28  C   UNL     1      -1.120  11.597  21.761  0.00  0.00    +0.000 A 
ATOM     29  C   UNL     1      -0.762  12.659  22.557  0.00  0.00    +0.000 A 
ATOM     30  C   UNL     1      -0.452  13.678  21.653  0.00  0.00    +0.000 A 
ATOM     31  N   UNL     1      -0.615  13.300  20.386  0.00  0.00    +0.000 NA
ENDBRANCH  26  27
ENDBRANCH  18  19
ENDBRANCH   1  18
TORSDOF 6
ENDMDL
MODEL 9
REMARK VINA RESULT:      -7.8      3.004      3.843
REMARK  Name = 
REMARK  7 active torsions:
REMARK  status: ('A' for Active; 'I' for Inactive)
REMARK    1  A    between atoms: C_1  and  C_2
REMARK    2  A    between atoms: C_2  and  O_3
REMARK    3  A    between atoms: C_2  and  C_17
REMARK    4  A    between atoms: O_3  and  C_4
REMARK    5  A    between atoms: C_8  and  C_9
REMARK    6  A    between atoms: C_15  and  N_16
REMARK    7  A    between atoms: C_24  and  N_25
REMARK                            x       y       z     vdW  Elec       q    Type
REMARK                         _______ _______ _______ _____ _____    ______ ____
ROOT
ATOM      1  O   UNL     1       3.429   7.307  18.551  0.00  0.00    +0.000 OA
ENDROOT
BRANCH   1   2
ATOM      2  C   UNL     1       2.390   7.918  19.190  0.00  0.00    +0.000 A 
ATOM      3  C   UNL     1       2.074   9.155  18.611  0.00  0.00    +0.000 A 
ATOM      4  C   UNL     1       1.119   9.993  19.188  0.00  0.00    +0.000 A 
ATOM      5  C   UNL     1       0.869  11.290  18.700  0.00  0.00    +0.000 A 
ATOM      6  C   UNL     1      -0.034  12.125  19.359  0.00  0.00    +0.000 A 
ATOM      7  C   UNL     1      -0.722  11.644  20.474  0.00  0.00    +0.000 A 
ATOM      8  C   UNL     1      -0.494  10.341  20.926  0.00  0.00    +0.000 A 
ATOM      9  C   UNL     1       0.439   9.513  20.319  0.00  0.00    +0.000 A 
ATOM     10  N   UNL     1       0.692   8.310  20.854  0.00  0.00    +0.000 NA
ATOM     11  C   UNL     1       1.674   7.543  20.329  0.00  0.00    +0.000 A 
BRANCH  11  12
ATOM     12  N   UNL     1       1.944   6.434  21.117  0.00  0.00    +0.000 N 
ATOM     13  H   UNL     1       1.654   6.666  22.063  0.00  0.00    +0.000 HD
ATOM     14  H   UNL     1       1.518   5.572  20.807  0.00  0.00    +0.000 HD
ENDBRANCH  11  12
BRANCH   6  15
ATOM     15  C   UNL     1      -0.216  13.482  18.932  0.00  0.00    +0.000 C 
ATOM     16  N   UNL     1      -0.366  14.584  18.605  0.00  0.00    +0.000 NA
ENDBRANCH   6  15
ENDBRANCH   1   2
BRANCH   1  18
ATOM     17  C   UNL     1       4.421   6.611  16.470  0.00  0.00    +0.000 C 
ATOM     18  C   UNL     1       3.220   6.456  17.412  0.00  0.00    +0.000 C 
BRANCH  18  19
ATOM     19  C   UNL     1       3.121   4.998  17.889  0.00  0.00    +0.000 A 
ATOM     20  C   UNL     1       1.832   4.405  17.925  0.00  0.00    +0.000 A 
ATOM     21  C   UNL     1       1.652   3.087  18.321  0.00  0.00    +0.000 A 
ATOM     22  F   UNL     1       0.418   2.569  18.353  0.00  0.00    +0.000 F 
ATOM     23  C   UNL     1       2.744   2.322  18.682  0.00  0.00    +0.000 A 
ATOM     24  F   UNL     1       2.579   1.049  19.067  0.00  0.00    +0.000 F 
ATOM     25  C   UNL     1       4.024   2.867  18.671  0.00  0.00    +0.000 A 
ATOM     26  C   UNL     1       4.239   4.213  18.302  0.00  0.00    +0.000 A 
BRANCH  26  27
ATOM     27  N   UNL     1       5.576   4.735  18.425  0.00  0.00    +0.000 N 
ATOM     28  C   UNL     1       6.640   4.548  17.557  0.00  0.00    +0.000 A 
ATOM     29  C   UNL     1       7.768   5.041  18.167  0.00  0.00    +0.000 A 
ATOM     30  C   UNL     1       7.301   5.584  19.367  0.00  0.00    +0.000 A 
ATOM     31  N   UNL     1       5.985   5.436  19.514  0.00  0.00    +0.000 NA
ENDBRANCH  26  27
ENDBRANCH  18  19
ENDBRANCH   1  18
TORSDOF 6
ENDMDL
