MODEL 1
REMARK VINA RESULT:      -8.0      0.000      0.000
REMARK  Name = 
REMARK  5 active torsions:
REMARK  status: ('A' for Active; 'I' for Inactive)
REMARK    1  A    between atoms: C_1  and  C_2
REMARK    2  A    between atoms: C_2  and  C_3
REMARK    3  A    between atoms: C_3  and  C_4
REMARK    4  A    between atoms: C_4  and  S_5
REMARK    5  A    between atoms: S_5  and  N_8
REMARK                            x       y       z     vdW  Elec       q    Type
REMARK                         _______ _______ _______ _____ _____    ______ ____
ROOT
ATOM      1  N   UNL     1       5.748   5.443  17.182  0.00  0.00    +0.000 N 
ATOM      2  C   UNL     1       4.915   6.536  17.179  0.00  0.00    +0.000 A 
ATOM      3  C   UNL     1       3.879   6.219  18.023  0.00  0.00    +0.000 A 
ATOM      4  C   UNL     1       2.709   6.975  18.398  0.00  0.00    +0.000 A 
ATOM      5  O   UNL     1       2.478   8.106  17.989  0.00  0.00    +0.000 OA
ATOM      6  O   UNL     1       1.846   6.318  19.293  0.00  0.00    +0.000 OA
ATOM      7  C   UNL     1       2.098   5.004  19.782  0.00  0.00    +0.000 A 
ATOM      8  C   UNL     1       1.144   4.476  20.651  0.00  0.00    +0.000 A 
ATOM      9  C   UNL     1       1.333   3.190  21.155  0.00  0.00    +0.000 A 
ATOM     10  C   UNL     1       2.460   2.450  20.787  0.00  0.00    +0.000 A 
ATOM     11  C   UNL     1       3.415   2.987  19.914  0.00  0.00    +0.000 A 
ATOM     12  C   UNL     1       3.239   4.274  19.409  0.00  0.00    +0.000 A 
ATOM     13  C   UNL     1       4.160   4.927  18.502  0.00  0.00    +0.000 A 
ATOM     14  N   UNL     1       5.324   4.454  18.032  0.00  0.00    +0.000 NA
ENDROOT
BRANCH   1  15
ATOM     15  S   UNL     1       7.181   5.396  16.199  0.00  0.00    +0.000 S 
ATOM     16  O   UNL     1       7.851   4.161  16.569  0.00  0.00    +0.000 OA
ATOM     17  O   UNL     1       7.812   6.687  16.406  0.00  0.00    +0.000 OA
BRANCH  15  18
ATOM     18  C   UNL     1       6.666   5.260  14.497  0.00  0.00    +0.000 C 
BRANCH  18  19
ATOM     19  C   UNL     1       6.055   3.885  14.228  0.00  0.00    +0.000 C 
BRANCH  19  21
ATOM     20  C   UNL     1       4.867   3.382  12.064  0.00  0.00    +0.000 C 
ATOM     21  C   UNL     1       6.214   3.455  12.770  0.00  0.00    +0.000 C 
ENDBRANCH  19  21
ENDBRANCH  18  19
ENDBRANCH  15  18
ENDBRANCH   1  15
TORSDOF 4
ENDMDL
MODEL 2
REMARK VINA RESULT:      -7.8      2.416      6.352
REMARK  Name = 
REMARK  5 active torsions:
REMARK  status: ('A' for Active; 'I' for Inactive)
REMARK    1  A    between atoms: C_1  and  C_2
REMARK    2  A    between atoms: C_2  and  C_3
REMARK    3  A    between atoms: C_3  and  C_4
REMARK    4  A    between atoms: C_4  and  S_5
REMARK    5  A    between atoms: S_5  and  N_8
REMARK                            x       y       z     vdW  Elec       q    Type
REMARK                         _______ _______ _______ _____ _____    ______ ____
ROOT
ATOM      1  N   UNL     1       4.855   3.472  18.078  0.00  0.00    +0.000 N 
ATOM      2  C   UNL     1       5.694   4.506  18.416  0.00  0.00    +0.000 A 
ATOM      3  C   UNL     1       6.298   4.894  17.245  0.00  0.00    +0.000 A 
ATOM      4  C   UNL     1       7.279   5.922  16.991  0.00  0.00    +0.000 A 
ATOM      5  O   UNL     1       7.726   6.657  17.862  0.00  0.00    +0.000 OA
ATOM      6  O   UNL     1       7.682   6.030  15.647  0.00  0.00    +0.000 OA
ATOM      7  C   UNL     1       7.172   5.186  14.619  0.00  0.00    +0.000 A 
ATOM      8  C   UNL     1       7.677   5.402  13.338  0.00  0.00    +0.000 A 
ATOM      9  C   UNL     1       7.222   4.600  12.292  0.00  0.00    +0.000 A 
ATOM     10  C   UNL     1       6.279   3.597  12.536  0.00  0.00    +0.000 A 
ATOM     11  C   UNL     1       5.776   3.386  13.825  0.00  0.00    +0.000 A 
ATOM     12  C   UNL     1       6.219   4.186  14.878  0.00  0.00    +0.000 A 
ATOM     13  C   UNL     1       5.768   4.057  16.248  0.00  0.00    +0.000 A 
ATOM     14  N   UNL     1       4.849   3.209  16.733  0.00  0.00    +0.000 NA
ENDROOT
BRANCH   1  15
ATOM     15  S   UNL     1       3.916   2.641  19.283  0.00  0.00    +0.000 S 
ATOM     16  O   UNL     1       4.849   2.365  20.362  0.00  0.00    +0.000 OA
ATOM     17  O   UNL     1       3.259   1.566  18.561  0.00  0.00    +0.000 OA
BRANCH  15  18
ATOM     18  C   UNL     1       2.684   3.779  19.890  0.00  0.00    +0.000 C 
BRANCH  18  19
ATOM     19  C   UNL     1       1.432   3.733  19.015  0.00  0.00    +0.000 C 
BRANCH  19  21
ATOM     20  C   UNL     1       2.281   5.892  18.031  0.00  0.00    +0.000 C 
ATOM     21  C   UNL     1       1.581   4.570  17.745  0.00  0.00    +0.000 C 
ENDBRANCH  19  21
ENDBRANCH  18  19
ENDBRANCH  15  18
ENDBRANCH   1  15
TORSDOF 4
ENDMDL
MODEL 3
REMARK VINA RESULT:      -7.8      2.350      6.701
REMARK  Name = 
REMARK  5 active torsions:
REMARK  status: ('A' for Active; 'I' for Inactive)
REMARK    1  A    between atoms: C_1  and  C_2
REMARK    2  A    between atoms: C_2  and  C_3
REMARK    3  A    between atoms: C_3  and  C_4
REMARK    4  A    between atoms: C_4  and  S_5
REMARK    5  A    between atoms: S_5  and  N_8
REMARK                            x       y       z     vdW  Elec       q    Type
REMARK                         _______ _______ _______ _____ _____    ______ ____
ROOT
ATOM      1  N   UNL     1       4.309   3.675  17.676  0.00  0.00    +0.000 N 
ATOM      2  C   UNL     1       5.250   4.585  18.095  0.00  0.00    +0.000 A 
ATOM      3  C   UNL     1       5.998   4.887  16.983  0.00  0.00    +0.000 A 
ATOM      4  C   UNL     1       7.128   5.770  16.823  0.00  0.00    +0.000 A 
ATOM      5  O   UNL     1       7.596   6.437  17.737  0.00  0.00    +0.000 OA
ATOM      6  O   UNL     1       7.653   5.822  15.519  0.00  0.00    +0.000 OA
ATOM      7  C   UNL     1       7.122   5.055  14.443  0.00  0.00    +0.000 A 
ATOM      8  C   UNL     1       7.758   5.200  13.211  0.00  0.00    +0.000 A 
ATOM      9  C   UNL     1       7.288   4.467  12.122  0.00  0.00    +0.000 A 
ATOM     10  C   UNL     1       6.199   3.603  12.274  0.00  0.00    +0.000 A 
ATOM     11  C   UNL     1       5.565   3.464  13.514  0.00  0.00    +0.000 A 
ATOM     12  C   UNL     1       6.023   4.196  14.609  0.00  0.00    +0.000 A 
ATOM     13  C   UNL     1       5.445   4.130  15.935  0.00  0.00    +0.000 A 
ATOM     14  N   UNL     1       4.380   3.416  16.332  0.00  0.00    +0.000 NA
ENDROOT
BRANCH   1  15
ATOM     15  S   UNL     1       3.166   2.981  18.788  0.00  0.00    +0.000 S 
ATOM     16  O   UNL     1       3.831   3.016  20.080  0.00  0.00    +0.000 OA
ATOM     17  O   UNL     1       2.774   1.725  18.176  0.00  0.00    +0.000 OA
BRANCH  15  18
ATOM     18  C   UNL     1       1.753   4.067  18.861  0.00  0.00    +0.000 C 
BRANCH  18  19
ATOM     19  C   UNL     1       1.409   4.405  20.312  0.00  0.00    +0.000 C 
BRANCH  19  21
ATOM     20  C   UNL     1       2.413   6.568  19.497  0.00  0.00    +0.000 C 
ATOM     21  C   UNL     1       1.765   5.846  20.671  0.00  0.00    +0.000 C 
ENDBRANCH  19  21
ENDBRANCH  18  19
ENDBRANCH  15  18
ENDBRANCH   1  15
TORSDOF 4
ENDMDL
MODEL 4
REMARK VINA RESULT:      -7.7      2.302      6.852
REMARK  Name = 
REMARK  5 active torsions:
REMARK  status: ('A' for Active; 'I' for Inactive)
REMARK    1  A    between atoms: C_1  and  C_2
REMARK    2  A    between atoms: C_2  and  C_3
REMARK    3  A    between atoms: C_3  and  C_4
REMARK    4  A    between atoms: C_4  and  S_5
REMARK    5  A    between atoms: S_5  and  N_8
REMARK                            x       y       z     vdW  Elec       q    Type
REMARK                         _______ _______ _______ _____ _____    ______ ____
ROOT
ATOM      1  N   UNL     1       4.328   3.373  17.346  0.00  0.00    +0.000 N 
ATOM      2  C   UNL     1       5.202   4.295  17.868  0.00  0.00    +0.000 A 
ATOM      3  C   UNL     1       5.982   4.708  16.815  0.00  0.00    +0.000 A 
ATOM      4  C   UNL     1       7.072   5.653  16.768  0.00  0.00    +0.000 A 
ATOM      5  O   UNL     1       7.464   6.277  17.746  0.00  0.00    +0.000 OA
ATOM      6  O   UNL     1       7.651   5.819  15.497  0.00  0.00    +0.000 OA
ATOM      7  C   UNL     1       7.207   5.104  14.348  0.00  0.00    +0.000 A 
ATOM      8  C   UNL     1       7.888   5.363  13.159  0.00  0.00    +0.000 A 
ATOM      9  C   UNL     1       7.504   4.685  12.003  0.00  0.00    +0.000 A 
ATOM     10  C   UNL     1       6.455   3.762  12.047  0.00  0.00    +0.000 A 
ATOM     11  C   UNL     1       5.775   3.507  13.243  0.00  0.00    +0.000 A 
ATOM     12  C   UNL     1       6.147   4.183  14.405  0.00  0.00    +0.000 A 
ATOM     13  C   UNL     1       5.515   3.999  15.694  0.00  0.00    +0.000 A 
ATOM     14  N   UNL     1       4.471   3.210  15.992  0.00  0.00    +0.000 NA
ENDROOT
BRANCH   1  15
ATOM     15  S   UNL     1       3.174   2.550  18.354  0.00  0.00    +0.000 S 
ATOM     16  O   UNL     1       3.668   1.187  18.455  0.00  0.00    +0.000 OA
ATOM     17  O   UNL     1       1.886   2.843  17.754  0.00  0.00    +0.000 OA
BRANCH  15  18
ATOM     18  C   UNL     1       3.249   3.289  19.976  0.00  0.00    +0.000 C 
BRANCH  18  19
ATOM     19  C   UNL     1       1.927   3.092  20.718  0.00  0.00    +0.000 C 
BRANCH  19  21
ATOM     20  C   UNL     1       1.813   5.590  20.408  0.00  0.00    +0.000 C 
ATOM     21  C   UNL     1       1.012   4.310  20.607  0.00  0.00    +0.000 C 
ENDBRANCH  19  21
ENDBRANCH  18  19
ENDBRANCH  15  18
ENDBRANCH   1  15
TORSDOF 4
ENDMDL
MODEL 5
REMARK VINA RESULT:      -7.5      2.113      6.795
REMARK  Name = 
REMARK  5 active torsions:
REMARK  status: ('A' for Active; 'I' for Inactive)
REMARK    1  A    between atoms: C_1  and  C_2
REMARK    2  A    between atoms: C_2  and  C_3
REMARK    3  A    between atoms: C_3  and  C_4
REMARK    4  A    between atoms: C_4  and  S_5
REMARK    5  A    between atoms: S_5  and  N_8
REMARK                            x       y       z     vdW  Elec       q    Type
REMARK                         _______ _______ _______ _____ _____    ______ ____
ROOT
ATOM      1  N   UNL     1       4.512   4.246  17.693  0.00  0.00    +0.000 N 
ATOM      2  C   UNL     1       5.516   5.163  17.895  0.00  0.00    +0.000 A 
ATOM      3  C   UNL     1       6.178   5.261  16.695  0.00  0.00    +0.000 A 
ATOM      4  C   UNL     1       7.320   6.058  16.316  0.00  0.00    +0.000 A 
ATOM      5  O   UNL     1       7.885   6.830  17.079  0.00  0.00    +0.000 OA
ATOM      6  O   UNL     1       7.736   5.892  14.982  0.00  0.00    +0.000 OA
ATOM      7  C   UNL     1       7.090   5.000  14.079  0.00  0.00    +0.000 A 
ATOM      8  C   UNL     1       7.624   4.930  12.793  0.00  0.00    +0.000 A 
ATOM      9  C   UNL     1       7.039   4.067  11.868  0.00  0.00    +0.000 A 
ATOM     10  C   UNL     1       5.938   3.287  12.234  0.00  0.00    +0.000 A 
ATOM     11  C   UNL     1       5.406   3.362  13.527  0.00  0.00    +0.000 A 
ATOM     12  C   UNL     1       5.980   4.226  14.459  0.00  0.00    +0.000 A 
ATOM     13  C   UNL     1       5.513   4.384  15.820  0.00  0.00    +0.000 A 
ATOM     14  N   UNL     1       4.462   3.787  16.402  0.00  0.00    +0.000 NA
ENDROOT
BRANCH   1  15
ATOM     15  S   UNL     1       3.444   3.778  18.983  0.00  0.00    +0.000 S 
ATOM     16  O   UNL     1       3.413   4.922  19.879  0.00  0.00    +0.000 OA
ATOM     17  O   UNL     1       3.944   2.489  19.425  0.00  0.00    +0.000 OA
BRANCH  15  18
ATOM     18  C   UNL     1       1.814   3.571  18.289  0.00  0.00    +0.000 C 
BRANCH  18  19
ATOM     19  C   UNL     1       0.929   2.754  19.230  0.00  0.00    +0.000 C 
BRANCH  19  21
ATOM     20  C   UNL     1       1.395   2.562  21.699  0.00  0.00    +0.000 C 
ATOM     21  C   UNL     1       0.775   3.414  20.600  0.00  0.00    +0.000 C 
ENDBRANCH  19  21
ENDBRANCH  18  19
ENDBRANCH  15  18
ENDBRANCH   1  15
TORSDOF 4
ENDMDL
MODEL 6
REMARK VINA RESULT:      -7.5      1.032      1.157
REMARK  Name = 
REMARK  5 active torsions:
REMARK  status: ('A' for Active; 'I' for Inactive)
REMARK    1  A    between atoms: C_1  and  C_2
REMARK    2  A    between atoms: C_2  and  C_3
REMARK    3  A    between atoms: C_3  and  C_4
REMARK    4  A    between atoms: C_4  and  S_5
REMARK    5  A    between atoms: S_5  and  N_8
REMARK                            x       y       z     vdW  Elec       q    Type
REMARK                         _______ _______ _______ _____ _____    ______ ____
ROOT
ATOM      1  N   UNL     1       5.050   5.497  16.782  0.00  0.00    +0.000 N 
ATOM      2  C   UNL     1       4.281   6.561  17.190  0.00  0.00    +0.000 A 
ATOM      3  C   UNL     1       3.599   6.125  18.299  0.00  0.00    +0.000 A 
ATOM      4  C   UNL     1       2.640   6.803  19.139  0.00  0.00    +0.000 A 
ATOM      5  O   UNL     1       2.295   7.964  18.964  0.00  0.00    +0.000 OA
ATOM      6  O   UNL     1       2.134   6.027  20.197  0.00  0.00    +0.000 OA
ATOM      7  C   UNL     1       2.524   4.675  20.418  0.00  0.00    +0.000 A 
ATOM      8  C   UNL     1       1.925   4.029  21.499  0.00  0.00    +0.000 A 
ATOM      9  C   UNL     1       2.261   2.702  21.759  0.00  0.00    +0.000 A 
ATOM     10  C   UNL     1       3.182   2.038  20.942  0.00  0.00    +0.000 A 
ATOM     11  C   UNL     1       3.781   2.693  19.859  0.00  0.00    +0.000 A 
ATOM     12  C   UNL     1       3.456   4.023  19.593  0.00  0.00    +0.000 A 
ATOM     13  C   UNL     1       4.012   4.796  18.503  0.00  0.00    +0.000 A 
ATOM     14  N   UNL     1       4.936   4.410  17.610  0.00  0.00    +0.000 NA
ENDROOT
BRANCH   1  15
ATOM     15  S   UNL     1       6.052   5.598  15.365  0.00  0.00    +0.000 S 
ATOM     16  O   UNL     1       7.396   5.821  15.870  0.00  0.00    +0.000 OA
ATOM     17  O   UNL     1       5.393   6.576  14.518  0.00  0.00    +0.000 OA
BRANCH  15  18
ATOM     18  C   UNL     1       6.017   4.006  14.562  0.00  0.00    +0.000 C 
BRANCH  18  19
ATOM     19  C   UNL     1       6.534   4.115  13.128  0.00  0.00    +0.000 C 
BRANCH  19  21
ATOM     20  C   UNL     1       4.570   3.447  11.698  0.00  0.00    +0.000 C 
ATOM     21  C   UNL     1       5.943   3.042  12.215  0.00  0.00    +0.000 C 
ENDBRANCH  19  21
ENDBRANCH  18  19
ENDBRANCH  15  18
ENDBRANCH   1  15
TORSDOF 4
ENDMDL
MODEL 7
REMARK VINA RESULT:      -7.4      2.038      6.938
REMARK  Name = 
REMARK  5 active torsions:
REMARK  status: ('A' for Active; 'I' for Inactive)
REMARK    1  A    between atoms: C_1  and  C_2
REMARK    2  A    between atoms: C_2  and  C_3
REMARK    3  A    between atoms: C_3  and  C_4
REMARK    4  A    between atoms: C_4  and  S_5
REMARK    5  A    between atoms: S_5  and  N_8
REMARK                            x       y       z     vdW  Elec       q    Type
REMARK                         _______ _______ _______ _____ _____    ______ ____
ROOT
ATOM      1  N   UNL     1       4.135   4.264  17.345  0.00  0.00    +0.000 N 
ATOM      2  C   UNL     1       5.175   5.087  17.707  0.00  0.00    +0.000 A 
ATOM      3  C   UNL     1       5.972   5.191  16.593  0.00  0.00    +0.000 A 
ATOM      4  C   UNL     1       7.205   5.912  16.386  0.00  0.00    +0.000 A 
ATOM      5  O   UNL     1       7.737   6.599  17.249  0.00  0.00    +0.000 OA
ATOM      6  O   UNL     1       7.755   5.779  15.098  0.00  0.00    +0.000 OA
ATOM      7  C   UNL     1       7.151   4.986  14.080  0.00  0.00    +0.000 A 
ATOM      8  C   UNL     1       7.820   4.938  12.858  0.00  0.00    +0.000 A 
ATOM      9  C   UNL     1       7.281   4.171  11.827  0.00  0.00    +0.000 A 
ATOM     10  C   UNL     1       6.091   3.463  12.026  0.00  0.00    +0.000 A 
ATOM     11  C   UNL     1       5.424   3.517  13.256  0.00  0.00    +0.000 A 
ATOM     12  C   UNL     1       5.951   4.286  14.293  0.00  0.00    +0.000 A 
ATOM     13  C   UNL     1       5.348   4.413  15.602  0.00  0.00    +0.000 A 
ATOM     14  N   UNL     1       4.196   3.874  16.032  0.00  0.00    +0.000 NA
ENDROOT
BRANCH   1  15
ATOM     15  S   UNL     1       2.898   3.819  18.483  0.00  0.00    +0.000 S 
ATOM     16  O   UNL     1       3.248   2.476  18.913  0.00  0.00    +0.000 OA
ATOM     17  O   UNL     1       1.649   4.089  17.793  0.00  0.00    +0.000 OA
BRANCH  15  18
ATOM     18  C   UNL     1       3.039   4.907  19.889  0.00  0.00    +0.000 C 
BRANCH  18  19
ATOM     19  C   UNL     1       1.872   4.695  20.853  0.00  0.00    +0.000 C 
BRANCH  19  21
ATOM     20  C   UNL     1       1.315   2.385  21.690  0.00  0.00    +0.000 C 
ATOM     21  C   UNL     1       2.172   3.625  21.901  0.00  0.00    +0.000 C 
ENDBRANCH  19  21
ENDBRANCH  18  19
ENDBRANCH  15  18
ENDBRANCH   1  15
TORSDOF 4
ENDMDL
MODEL 8
REMARK VINA RESULT:      -7.4      2.665      6.623
REMARK  Name = 
REMARK  5 active torsions:
REMARK  status: ('A' for Active; 'I' for Inactive)
REMARK    1  A    between atoms: C_1  and  C_2
REMARK    2  A    between atoms: C_2  and  C_3
REMARK    3  A    between atoms: C_3  and  C_4
REMARK    4  A    between atoms: C_4  and  S_5
REMARK    5  A    between atoms: S_5  and  N_8
REMARK                            x       y       z     vdW  Elec       q    Type
REMARK                         _______ _______ _______ _____ _____    ______ ____
ROOT
ATOM      1  N   UNL     1       3.837   3.467  18.657  0.00  0.00    +0.000 N 
ATOM      2  C   UNL     1       4.973   4.014  19.205  0.00  0.00    +0.000 A 
ATOM      3  C   UNL     1       5.783   4.332  18.142  0.00  0.00    +0.000 A 
ATOM      4  C   UNL     1       7.100   4.919  18.109  0.00  0.00    +0.000 A 
ATOM      5  O   UNL     1       7.712   5.257  19.114  0.00  0.00    +0.000 OA
ATOM      6  O   UNL     1       7.635   5.093  16.819  0.00  0.00    +0.000 OA
ATOM      7  C   UNL     1       6.938   4.708  15.638  0.00  0.00    +0.000 A 
ATOM      8  C   UNL     1       7.601   4.928  14.432  0.00  0.00    +0.000 A 
ATOM      9  C   UNL     1       6.972   4.563  13.243  0.00  0.00    +0.000 A 
ATOM     10  C   UNL     1       5.700   3.984  13.271  0.00  0.00    +0.000 A 
ATOM     11  C   UNL     1       5.039   3.767  14.486  0.00  0.00    +0.000 A 
ATOM     12  C   UNL     1       5.656   4.133  15.681  0.00  0.00    +0.000 A 
ATOM     13  C   UNL     1       5.067   3.955  16.991  0.00  0.00    +0.000 A 
ATOM     14  N   UNL     1       3.853   3.466  17.286  0.00  0.00    +0.000 NA
ENDROOT
BRANCH   1  15
ATOM     15  S   UNL     1       2.546   2.875  19.661  0.00  0.00    +0.000 S 
ATOM     16  O   UNL     1       3.135   2.727  20.981  0.00  0.00    +0.000 OA
ATOM     17  O   UNL     1       2.013   1.733  18.941  0.00  0.00    +0.000 OA
BRANCH  15  18
ATOM     18  C   UNL     1       1.300   4.149  19.748  0.00  0.00    +0.000 C 
BRANCH  18  19
ATOM     19  C   UNL     1       1.740   5.268  20.691  0.00  0.00    +0.000 C 
BRANCH  19  21
ATOM     20  C   UNL     1       1.673   7.780  20.503  0.00  0.00    +0.000 C 
ATOM     21  C   UNL     1       2.256   6.493  19.937  0.00  0.00    +0.000 C 
ENDBRANCH  19  21
ENDBRANCH  18  19
ENDBRANCH  15  18
ENDBRANCH   1  15
TORSDOF 4
ENDMDL
MODEL 9
REMARK VINA RESULT:      -7.4      1.075      1.245
REMARK  Name = 
REMARK  5 active torsions:
REMARK  status: ('A' for Active; 'I' for Inactive)
REMARK    1  A    between atoms: C_1  and  C_2
REMARK    2  A    between atoms: C_2  and  C_3
REMARK    3  A    between atoms: C_3  and  C_4
REMARK    4  A    between atoms: C_4  and  S_5
REMARK    5  A    between atoms: S_5  and  N_8
REMARK                            x       y       z     vdW  Elec       q    Type
REMARK                         _______ _______ _______ _____ _____    ______ ____
ROOT
ATOM      1  N   UNL     1       5.299   5.117  16.314  0.00  0.00    +0.000 N 
ATOM      2  C   UNL     1       4.766   6.358  16.569  0.00  0.00    +0.000 A 
ATOM      3  C   UNL     1       3.856   6.172  17.581  0.00  0.00    +0.000 A 
ATOM      4  C   UNL     1       2.989   7.113  18.248  0.00  0.00    +0.000 A 
ATOM      5  O   UNL     1       2.965   8.309  17.986  0.00  0.00    +0.000 OA
ATOM      6  O   UNL     1       2.172   6.554  19.247  0.00  0.00    +0.000 OA
ATOM      7  C   UNL     1       2.187   5.166  19.568  0.00  0.00    +0.000 A 
ATOM      8  C   UNL     1       1.310   4.755  20.570  0.00  0.00    +0.000 A 
ATOM      9  C   UNL     1       1.274   3.406  20.921  0.00  0.00    +0.000 A 
ATOM     10  C   UNL     1       2.106   2.489  20.270  0.00  0.00    +0.000 A 
ATOM     11  C   UNL     1       2.985   2.909  19.265  0.00  0.00    +0.000 A 
ATOM     12  C   UNL     1       3.033   4.257  18.910  0.00  0.00    +0.000 A 
ATOM     13  C   UNL     1       3.902   4.800  17.887  0.00  0.00    +0.000 A 
ATOM     14  N   UNL     1       4.813   4.146  17.151  0.00  0.00    +0.000 NA
ENDROOT
BRANCH   1  15
ATOM     15  S   UNL     1       6.475   4.881  15.055  0.00  0.00    +0.000 S 
ATOM     16  O   UNL     1       7.696   4.504  15.748  0.00  0.00    +0.000 OA
ATOM     17  O   UNL     1       6.405   6.091  14.255  0.00  0.00    +0.000 OA
BRANCH  15  18
ATOM     18  C   UNL     1       5.944   3.493  14.070  0.00  0.00    +0.000 C 
BRANCH  18  19
ATOM     19  C   UNL     1       6.485   3.606  12.645  0.00  0.00    +0.000 C 
BRANCH  19  21
ATOM     20  C   UNL     1       7.095   1.771  11.030  0.00  0.00    +0.000 C 
ATOM     21  C   UNL     1       5.958   2.497  11.735  0.00  0.00    +0.000 C 
ENDBRANCH  19  21
ENDBRANCH  18  19
ENDBRANCH  15  18
ENDBRANCH   1  15
TORSDOF 4
ENDMDL
