MODEL 1
REMARK VINA RESULT:      -6.4      0.000      0.000
REMARK  Name = 
REMARK  12 active torsions:
REMARK  status: ('A' for Active; 'I' for Inactive)
REMARK    1  A    between atoms: C_1  and  C_2
REMARK    2  A    between atoms: C_2  and  C_3
REMARK    3  A    between atoms: C_2  and  C_4
REMARK    4  A    between atoms: C_2  and  N_8
REMARK    5  A    between atoms: C_4  and  C_5
REMARK    6  A    between atoms: C_5  and  C_6
REMARK    7  A    between atoms: C_6  and  O_7
REMARK    8  A    between atoms: C_9  and  C_11
REMARK    9  A    between atoms: C_14  and  C_15
REMARK   10  A    between atoms: C_18  and  O_19
REMARK   11  A    between atoms: O_19  and  C_20
REMARK   12  A    between atoms: C_20  and  C_21
REMARK                            x       y       z     vdW  Elec       q    Type
REMARK                         _______ _______ _______ _____ _____    ______ ____
ROOT
ATOM      1  C   UNL     1       2.666   7.646  18.529  0.00  0.00    +0.000 A 
ATOM      2  C   UNL     1       2.223   6.747  19.487  0.00  0.00    +0.000 A 
ATOM      3  N   UNL     1       2.806   5.538  19.674  0.00  0.00    +0.000 NA
ATOM      4  C   UNL     1       3.855   5.234  18.860  0.00  0.00    +0.000 A 
ATOM      5  C   UNL     1       4.316   6.188  17.926  0.00  0.00    +0.000 A 
ATOM      6  N   UNL     1       3.739   7.404  17.725  0.00  0.00    +0.000 NA
ENDROOT
BRANCH   1   8
ATOM      7  N   UNL     1       1.078   9.277  19.387  0.00  0.00    +0.000 N 
ATOM      8  C   UNL     1       1.912   8.917  18.345  0.00  0.00    +0.000 C 
ATOM      9  O   UNL     1       2.062   9.576  17.323  0.00  0.00    +0.000 OA
ATOM     10  H   UNL     1       1.086   8.657  20.194  0.00  0.00    +0.000 HD
BRANCH   7  12
ATOM     11  C   UNL     1       1.233  11.706  19.661  0.00  0.00    +0.000 C 
ATOM     12  C   UNL     1       0.283  10.516  19.429  0.00  0.00    +0.000 C 
ATOM     13  C   UNL     1      -0.692  10.477  20.625  0.00  0.00    +0.000 C 
BRANCH  12  14
ATOM     14  C   UNL     1      -0.526  10.722  18.116  0.00  0.00    +0.000 C 
BRANCH  14  15
ATOM     15  C   UNL     1      -1.915  10.075  18.113  0.00  0.00    +0.000 C 
BRANCH  15  16
ATOM     16  C   UNL     1      -2.585  10.180  16.747  0.00  0.00    +0.000 C 
BRANCH  16  17
ATOM     17  O   UNL     1      -2.269  11.435  16.155  0.00  0.00    +0.000 OA
ATOM     18  H   UNL     1      -1.302  11.481  16.064  0.00  0.00    +0.000 HD
ENDBRANCH  16  17
ENDBRANCH  15  16
ENDBRANCH  14  15
ENDBRANCH  12  14
ENDBRANCH   7  12
ENDBRANCH   1   8
BRANCH   4  19
ATOM     19  C   UNL     1       4.494   3.870  18.988  0.00  0.00    +0.000 C 
ATOM     20  C   UNL     1       3.766   2.740  19.683  0.00  0.00    +0.000 C 
ATOM     21  C   UNL     1       3.926   2.714  18.193  0.00  0.00    +0.000 C 
ENDBRANCH   4  19
BRANCH   5  22
ATOM     22  O   UNL     1       5.379   5.806  17.128  0.00  0.00    +0.000 OA
BRANCH  22  23
ATOM     23  C   UNL     1       5.210   6.136  15.752  0.00  0.00    +0.000 C 
BRANCH  23  24
ATOM     24  C   UNL     1       6.070   5.200  14.952  0.00  0.00    +0.000 C 
ATOM     25  C   UNL     1       6.183   3.751  15.355  0.00  0.00    +0.000 C 
ATOM     26  C   UNL     1       5.470   4.122  14.083  0.00  0.00    +0.000 C 
ENDBRANCH  23  24
ENDBRANCH  22  23
ENDBRANCH   5  22
TORSDOF 10
ENDMDL
MODEL 2
REMARK VINA RESULT:      -6.4      1.616      2.595
REMARK  Name = 
REMARK  12 active torsions:
REMARK  status: ('A' for Active; 'I' for Inactive)
REMARK    1  A    between atoms: C_1  and  C_2
REMARK    2  A    between atoms: C_2  and  C_3
REMARK    3  A    between atoms: C_2  and  C_4
REMARK    4  A    between atoms: C_2  and  N_8
REMARK    5  A    between atoms: C_4  and  C_5
REMARK    6  A    between atoms: C_5  and  C_6
REMARK    7  A    between atoms: C_6  and  O_7
REMARK    8  A    between atoms: C_9  and  C_11
REMARK    9  A    between atoms: C_14  and  C_15
REMARK   10  A    between atoms: C_18  and  O_19
REMARK   11  A    between atoms: O_19  and  C_20
REMARK   12  A    between atoms: C_20  and  C_21
REMARK                            x       y       z     vdW  Elec       q    Type
REMARK                         _______ _______ _______ _____ _____    ______ ____
ROOT
ATOM      1  C   UNL     1       2.822   7.286  18.505  0.00  0.00    +0.000 A 
ATOM      2  C   UNL     1       2.383   6.419  19.493  0.00  0.00    +0.000 A 
ATOM      3  N   UNL     1       2.978   5.225  19.729  0.00  0.00    +0.000 NA
ATOM      4  C   UNL     1       4.036   4.903  18.933  0.00  0.00    +0.000 A 
ATOM      5  C   UNL     1       4.493   5.826  17.967  0.00  0.00    +0.000 A 
ATOM      6  N   UNL     1       3.903   7.027  17.718  0.00  0.00    +0.000 NA
ENDROOT
BRANCH   1   8
ATOM      7  N   UNL     1       1.219   8.937  19.297  0.00  0.00    +0.000 N 
ATOM      8  C   UNL     1       2.054   8.541  18.269  0.00  0.00    +0.000 C 
ATOM      9  O   UNL     1       2.196   9.157  17.219  0.00  0.00    +0.000 OA
ATOM     10  H   UNL     1       1.236   8.353  20.129  0.00  0.00    +0.000 HD
BRANCH   7  12
ATOM     11  C   UNL     1      -0.547  10.123  18.084  0.00  0.00    +0.000 C 
ATOM     12  C   UNL     1       0.413  10.168  19.288  0.00  0.00    +0.000 C 
ATOM     13  C   UNL     1       1.326  11.397  19.090  0.00  0.00    +0.000 C 
BRANCH  12  14
ATOM     14  C   UNL     1      -0.391  10.338  20.610  0.00  0.00    +0.000 C 
BRANCH  14  15
ATOM     15  C   UNL     1      -0.279   9.158  21.582  0.00  0.00    +0.000 C 
BRANCH  15  16
ATOM     16  C   UNL     1       0.847   9.359  22.588  0.00  0.00    +0.000 C 
BRANCH  16  17
ATOM     17  O   UNL     1       0.300   9.716  23.853  0.00  0.00    +0.000 OA
ATOM     18  H   UNL     1      -0.527   9.217  23.966  0.00  0.00    +0.000 HD
ENDBRANCH  16  17
ENDBRANCH  15  16
ENDBRANCH  14  15
ENDBRANCH  12  14
ENDBRANCH   7  12
ENDBRANCH   1   8
BRANCH   4  19
ATOM     19  C   UNL     1       4.690   3.551  19.116  0.00  0.00    +0.000 C 
ATOM     20  C   UNL     1       4.076   2.516  20.033  0.00  0.00    +0.000 C 
ATOM     21  C   UNL     1       4.011   2.323  18.549  0.00  0.00    +0.000 C 
ENDBRANCH   4  19
BRANCH   5  22
ATOM     22  O   UNL     1       5.565   5.427  17.191  0.00  0.00    +0.000 OA
BRANCH  22  23
ATOM     23  C   UNL     1       5.323   5.517  15.790  0.00  0.00    +0.000 C 
BRANCH  23  24
ATOM     24  C   UNL     1       6.136   4.447  15.119  0.00  0.00    +0.000 C 
ATOM     25  C   UNL     1       5.714   3.915  13.773  0.00  0.00    +0.000 C 
ATOM     26  C   UNL     1       6.968   4.736  13.894  0.00  0.00    +0.000 C 
ENDBRANCH  23  24
ENDBRANCH  22  23
ENDBRANCH   5  22
TORSDOF 10
ENDMDL
MODEL 3
REMARK VINA RESULT:      -6.4      2.227      4.304
REMARK  Name = 
REMARK  12 active torsions:
REMARK  status: ('A' for Active; 'I' for Inactive)
REMARK    1  A    between atoms: C_1  and  C_2
REMARK    2  A    between atoms: C_2  and  C_3
REMARK    3  A    between atoms: C_2  and  C_4
REMARK    4  A    between atoms: C_2  and  N_8
REMARK    5  A    between atoms: C_4  and  C_5
REMARK    6  A    between atoms: C_5  and  C_6
REMARK    7  A    between atoms: C_6  and  O_7
REMARK    8  A    between atoms: C_9  and  C_11
REMARK    9  A    between atoms: C_14  and  C_15
REMARK   10  A    between atoms: C_18  and  O_19
REMARK   11  A    between atoms: O_19  and  C_20
REMARK   12  A    between atoms: C_20  and  C_21
REMARK                            x       y       z     vdW  Elec       q    Type
REMARK                         _______ _______ _______ _____ _____    ______ ____
ROOT
ATOM      1  C   UNL     1       2.498   7.152  18.774  0.00  0.00    +0.000 A 
ATOM      2  C   UNL     1       3.450   7.614  17.878  0.00  0.00    +0.000 A 
ATOM      3  N   UNL     1       4.220   6.778  17.140  0.00  0.00    +0.000 NA
ATOM      4  C   UNL     1       4.023   5.443  17.328  0.00  0.00    +0.000 A 
ATOM      5  C   UNL     1       3.013   5.001  18.210  0.00  0.00    +0.000 A 
ATOM      6  N   UNL     1       2.234   5.829  18.959  0.00  0.00    +0.000 NA
ENDROOT
BRANCH   1   8
ATOM      7  N   UNL     1       1.452   9.341  18.968  0.00  0.00    +0.000 N 
ATOM      8  C   UNL     1       1.756   8.148  19.596  0.00  0.00    +0.000 C 
ATOM      9  O   UNL     1       1.443   7.877  20.750  0.00  0.00    +0.000 OA
ATOM     10  H   UNL     1       1.735   9.411  17.994  0.00  0.00    +0.000 HD
BRANCH   7  12
ATOM     11  C   UNL     1      -0.814  10.203  19.314  0.00  0.00    +0.000 C 
ATOM     12  C   UNL     1       0.685  10.436  19.584  0.00  0.00    +0.000 C 
ATOM     13  C   UNL     1       1.059  11.780  18.923  0.00  0.00    +0.000 C 
BRANCH  12  14
ATOM     14  C   UNL     1       0.947  10.530  21.115  0.00  0.00    +0.000 C 
BRANCH  14  15
ATOM     15  C   UNL     1      -0.305  10.775  21.964  0.00  0.00    +0.000 C 
BRANCH  15  16
ATOM     16  C   UNL     1      -0.408   9.786  23.119  0.00  0.00    +0.000 C 
BRANCH  16  17
ATOM     17  O   UNL     1      -0.811   8.514  22.624  0.00  0.00    +0.000 OA
ATOM     18  H   UNL     1      -1.441   8.137  23.262  0.00  0.00    +0.000 HD
ENDBRANCH  16  17
ENDBRANCH  15  16
ENDBRANCH  14  15
ENDBRANCH  12  14
ENDBRANCH   7  12
ENDBRANCH   1   8
BRANCH   4  19
ATOM     19  C   UNL     1       4.905   4.472  16.575  0.00  0.00    +0.000 C 
ATOM     20  C   UNL     1       5.789   4.952  15.445  0.00  0.00    +0.000 C 
ATOM     21  C   UNL     1       6.406   4.554  16.752  0.00  0.00    +0.000 C 
ENDBRANCH   4  19
BRANCH   5  22
ATOM     22  O   UNL     1       2.876   3.632  18.355  0.00  0.00    +0.000 OA
BRANCH  22  23
ATOM     23  C   UNL     1       1.595   3.233  18.834  0.00  0.00    +0.000 C 
BRANCH  23  24
ATOM     24  C   UNL     1       1.813   2.341  20.023  0.00  0.00    +0.000 C 
ATOM     25  C   UNL     1       2.792   2.743  21.096  0.00  0.00    +0.000 C 
ATOM     26  C   UNL     1       1.319   2.720  21.398  0.00  0.00    +0.000 C 
ENDBRANCH  23  24
ENDBRANCH  22  23
ENDBRANCH   5  22
TORSDOF 10
ENDMDL
MODEL 4
REMARK VINA RESULT:      -6.3      0.946      1.042
REMARK  Name = 
REMARK  12 active torsions:
REMARK  status: ('A' for Active; 'I' for Inactive)
REMARK    1  A    between atoms: C_1  and  C_2
REMARK    2  A    between atoms: C_2  and  C_3
REMARK    3  A    between atoms: C_2  and  C_4
REMARK    4  A    between atoms: C_2  and  N_8
REMARK    5  A    between atoms: C_4  and  C_5
REMARK    6  A    between atoms: C_5  and  C_6
REMARK    7  A    between atoms: C_6  and  O_7
REMARK    8  A    between atoms: C_9  and  C_11
REMARK    9  A    between atoms: C_14  and  C_15
REMARK   10  A    between atoms: C_18  and  O_19
REMARK   11  A    between atoms: O_19  and  C_20
REMARK   12  A    between atoms: C_20  and  C_21
REMARK                            x       y       z     vdW  Elec       q    Type
REMARK                         _______ _______ _______ _____ _____    ______ ____
ROOT
ATOM      1  C   UNL     1       2.808   7.147  18.631  0.00  0.00    +0.000 A 
ATOM      2  C   UNL     1       2.353   6.288  19.619  0.00  0.00    +0.000 A 
ATOM      3  N   UNL     1       2.917   5.076  19.845  0.00  0.00    +0.000 NA
ATOM      4  C   UNL     1       3.960   4.729  19.039  0.00  0.00    +0.000 A 
ATOM      5  C   UNL     1       4.434   5.644  18.074  0.00  0.00    +0.000 A 
ATOM      6  N   UNL     1       3.876   6.862  17.835  0.00  0.00    +0.000 NA
ENDROOT
BRANCH   1   8
ATOM      7  N   UNL     1       1.468   8.973  19.522  0.00  0.00    +0.000 N 
ATOM      8  C   UNL     1       2.074   8.424  18.408  0.00  0.00    +0.000 C 
ATOM      9  O   UNL     1       2.046   8.926  17.290  0.00  0.00    +0.000 OA
ATOM     10  H   UNL     1       1.612   8.470  20.395  0.00  0.00    +0.000 HD
BRANCH   7  12
ATOM     11  C   UNL     1       1.538  11.284  18.716  0.00  0.00    +0.000 C 
ATOM     12  C   UNL     1       0.737  10.250  19.530  0.00  0.00    +0.000 C 
ATOM     13  C   UNL     1       0.634  10.791  20.971  0.00  0.00    +0.000 C 
BRANCH  12  14
ATOM     14  C   UNL     1      -0.695  10.094  18.939  0.00  0.00    +0.000 C 
BRANCH  14  15
ATOM     15  C   UNL     1      -1.598  11.319  19.121  0.00  0.00    +0.000 C 
BRANCH  15  16
ATOM     16  C   UNL     1      -2.189  11.786  17.796  0.00  0.00    +0.000 C 
BRANCH  16  17
ATOM     17  O   UNL     1      -1.280  12.671  17.151  0.00  0.00    +0.000 OA
ATOM     18  H   UNL     1      -1.434  12.604  16.194  0.00  0.00    +0.000 HD
ENDBRANCH  16  17
ENDBRANCH  15  16
ENDBRANCH  14  15
ENDBRANCH  12  14
ENDBRANCH   7  12
ENDBRANCH   1   8
BRANCH   4  19
ATOM     19  C   UNL     1       4.577   3.359  19.211  0.00  0.00    +0.000 C 
ATOM     20  C   UNL     1       4.033   2.392  20.239  0.00  0.00    +0.000 C 
ATOM     21  C   UNL     1       3.791   2.139  18.783  0.00  0.00    +0.000 C 
ENDBRANCH   4  19
BRANCH   5  22
ATOM     22  O   UNL     1       5.490   5.220  17.288  0.00  0.00    +0.000 OA
BRANCH  22  23
ATOM     23  C   UNL     1       5.254   5.358  15.890  0.00  0.00    +0.000 C 
BRANCH  23  24
ATOM     24  C   UNL     1       6.146   4.380  15.180  0.00  0.00    +0.000 C 
ATOM     25  C   UNL     1       5.822   3.952  13.771  0.00  0.00    +0.000 C 
ATOM     26  C   UNL     1       7.032   4.805  14.034  0.00  0.00    +0.000 C 
ENDBRANCH  23  24
ENDBRANCH  22  23
ENDBRANCH   5  22
TORSDOF 10
ENDMDL
MODEL 5
REMARK VINA RESULT:      -6.3      1.896      3.994
REMARK  Name = 
REMARK  12 active torsions:
REMARK  status: ('A' for Active; 'I' for Inactive)
REMARK    1  A    between atoms: C_1  and  C_2
REMARK    2  A    between atoms: C_2  and  C_3
REMARK    3  A    between atoms: C_2  and  C_4
REMARK    4  A    between atoms: C_2  and  N_8
REMARK    5  A    between atoms: C_4  and  C_5
REMARK    6  A    between atoms: C_5  and  C_6
REMARK    7  A    between atoms: C_6  and  O_7
REMARK    8  A    between atoms: C_9  and  C_11
REMARK    9  A    between atoms: C_14  and  C_15
REMARK   10  A    between atoms: C_18  and  O_19
REMARK   11  A    between atoms: O_19  and  C_20
REMARK   12  A    between atoms: C_20  and  C_21
REMARK                            x       y       z     vdW  Elec       q    Type
REMARK                         _______ _______ _______ _____ _____    ______ ____
ROOT
ATOM      1  C   UNL     1       3.086   7.443  17.817  0.00  0.00    +0.000 A 
ATOM      2  C   UNL     1       4.258   7.701  17.124  0.00  0.00    +0.000 A 
ATOM      3  N   UNL     1       5.184   6.741  16.880  0.00  0.00    +0.000 NA
ATOM      4  C   UNL     1       4.913   5.496  17.362  0.00  0.00    +0.000 A 
ATOM      5  C   UNL     1       3.689   5.251  18.022  0.00  0.00    +0.000 A 
ATOM      6  N   UNL     1       2.752   6.205  18.276  0.00  0.00    +0.000 NA
ENDROOT
BRANCH   1   8
ATOM      7  N   UNL     1       1.568   8.570  19.349  0.00  0.00    +0.000 N 
ATOM      8  C   UNL     1       2.167   8.580  18.103  0.00  0.00    +0.000 C 
ATOM      9  O   UNL     1       1.992   9.453  17.261  0.00  0.00    +0.000 OA
ATOM     10  H   UNL     1       1.840   7.807  19.963  0.00  0.00    +0.000 HD
BRANCH   7  12
ATOM     11  C   UNL     1       0.056   9.156  21.185  0.00  0.00    +0.000 C 
ATOM     12  C   UNL     1       0.667   9.622  19.849  0.00  0.00    +0.000 C 
ATOM     13  C   UNL     1      -0.504   9.826  18.864  0.00  0.00    +0.000 C 
BRANCH  12  14
ATOM     14  C   UNL     1       1.414  10.973  20.042  0.00  0.00    +0.000 C 
BRANCH  14  15
ATOM     15  C   UNL     1       0.893  12.121  19.170  0.00  0.00    +0.000 C 
BRANCH  15  16
ATOM     16  C   UNL     1       2.032  12.920  18.547  0.00  0.00    +0.000 C 
BRANCH  16  17
ATOM     17  O   UNL     1       2.641  12.156  17.512  0.00  0.00    +0.000 OA
ATOM     18  H   UNL     1       3.534  12.515  17.369  0.00  0.00    +0.000 HD
ENDBRANCH  16  17
ENDBRANCH  15  16
ENDBRANCH  14  15
ENDBRANCH  12  14
ENDBRANCH   7  12
ENDBRANCH   1   8
BRANCH   4  19
ATOM     19  C   UNL     1       5.948   4.410  17.172  0.00  0.00    +0.000 C 
ATOM     20  C   UNL     1       7.101   4.604  16.212  0.00  0.00    +0.000 C 
ATOM     21  C   UNL     1       7.353   4.633  17.688  0.00  0.00    +0.000 C 
ENDBRANCH   4  19
BRANCH   5  22
ATOM     22  O   UNL     1       3.488   3.966  18.491  0.00  0.00    +0.000 OA
BRANCH  22  23
ATOM     23  C   UNL     1       3.336   3.891  19.906  0.00  0.00    +0.000 C 
BRANCH  23  24
ATOM     24  C   UNL     1       2.215   2.933  20.192  0.00  0.00    +0.000 C 
ATOM     25  C   UNL     1       1.699   2.778  21.600  0.00  0.00    +0.000 C 
ATOM     26  C   UNL     1       0.832   3.420  20.552  0.00  0.00    +0.000 C 
ENDBRANCH  23  24
ENDBRANCH  22  23
ENDBRANCH   5  22
TORSDOF 10
ENDMDL
MODEL 6
REMARK VINA RESULT:      -6.2      1.718      3.575
REMARK  Name = 
REMARK  12 active torsions:
REMARK  status: ('A' for Active; 'I' for Inactive)
REMARK    1  A    between atoms: C_1  and  C_2
REMARK    2  A    between atoms: C_2  and  C_3
REMARK    3  A    between atoms: C_2  and  C_4
REMARK    4  A    between atoms: C_2  and  N_8
REMARK    5  A    between atoms: C_4  and  C_5
REMARK    6  A    between atoms: C_5  and  C_6
REMARK    7  A    between atoms: C_6  and  O_7
REMARK    8  A    between atoms: C_9  and  C_11
REMARK    9  A    between atoms: C_14  and  C_15
REMARK   10  A    between atoms: C_18  and  O_19
REMARK   11  A    between atoms: O_19  and  C_20
REMARK   12  A    between atoms: C_20  and  C_21
REMARK                            x       y       z     vdW  Elec       q    Type
REMARK                         _______ _______ _______ _____ _____    ______ ____
ROOT
ATOM      1  C   UNL     1       3.041   7.579  18.109  0.00  0.00    +0.000 A 
ATOM      2  C   UNL     1       3.905   7.550  17.025  0.00  0.00    +0.000 A 
ATOM      3  N   UNL     1       4.855   6.594  16.879  0.00  0.00    +0.000 NA
ATOM      4  C   UNL     1       4.934   5.656  17.864  0.00  0.00    +0.000 A 
ATOM      5  C   UNL     1       4.009   5.682  18.931  0.00  0.00    +0.000 A 
ATOM      6  N   UNL     1       3.052   6.636  19.092  0.00  0.00    +0.000 NA
ENDROOT
BRANCH   1   8
ATOM      7  N   UNL     1       1.385   8.796  19.413  0.00  0.00    +0.000 N 
ATOM      8  C   UNL     1       2.082   8.713  18.222  0.00  0.00    +0.000 C 
ATOM      9  O   UNL     1       1.961   9.507  17.295  0.00  0.00    +0.000 OA
ATOM     10  H   UNL     1       1.620   8.094  20.110  0.00  0.00    +0.000 HD
BRANCH   7  12
ATOM     11  C   UNL     1       1.205  11.178  19.951  0.00  0.00    +0.000 C 
ATOM     12  C   UNL     1       0.428   9.863  19.746  0.00  0.00    +0.000 C 
ATOM     13  C   UNL     1      -0.277   9.543  21.081  0.00  0.00    +0.000 C 
BRANCH  12  14
ATOM     14  C   UNL     1      -0.645  10.041  18.633  0.00  0.00    +0.000 C 
BRANCH  14  15
ATOM     15  C   UNL     1      -1.079  11.490  18.389  0.00  0.00    +0.000 C 
BRANCH  15  16
ATOM     16  C   UNL     1      -2.591  11.653  18.497  0.00  0.00    +0.000 C 
BRANCH  16  17
ATOM     17  O   UNL     1      -3.140  11.891  17.206  0.00  0.00    +0.000 OA
ATOM     18  H   UNL     1      -3.228  11.031  16.761  0.00  0.00    +0.000 HD
ENDBRANCH  16  17
ENDBRANCH  15  16
ENDBRANCH  14  15
ENDBRANCH  12  14
ENDBRANCH   7  12
ENDBRANCH   1   8
BRANCH   4  19
ATOM     19  C   UNL     1       6.022   4.610  17.776  0.00  0.00    +0.000 C 
ATOM     20  C   UNL     1       7.093   4.699  16.711  0.00  0.00    +0.000 C 
ATOM     21  C   UNL     1       7.441   4.993  18.139  0.00  0.00    +0.000 C 
ENDBRANCH   4  19
BRANCH   5  22
ATOM     22  O   UNL     1       4.156   4.704  19.897  0.00  0.00    +0.000 OA
BRANCH  22  23
ATOM     23  C   UNL     1       3.237   3.623  19.762  0.00  0.00    +0.000 C 
BRANCH  23  24
ATOM     24  C   UNL     1       2.180   3.791  20.816  0.00  0.00    +0.000 C 
ATOM     25  C   UNL     1       0.783   3.281  20.569  0.00  0.00    +0.000 C 
ATOM     26  C   UNL     1       1.652   2.615  21.600  0.00  0.00    +0.000 C 
ENDBRANCH  23  24
ENDBRANCH  22  23
ENDBRANCH   5  22
TORSDOF 10
ENDMDL
MODEL 7
REMARK VINA RESULT:      -6.2      1.380      2.127
REMARK  Name = 
REMARK  12 active torsions:
REMARK  status: ('A' for Active; 'I' for Inactive)
REMARK    1  A    between atoms: C_1  and  C_2
REMARK    2  A    between atoms: C_2  and  C_3
REMARK    3  A    between atoms: C_2  and  C_4
REMARK    4  A    between atoms: C_2  and  N_8
REMARK    5  A    between atoms: C_4  and  C_5
REMARK    6  A    between atoms: C_5  and  C_6
REMARK    7  A    between atoms: C_6  and  O_7
REMARK    8  A    between atoms: C_9  and  C_11
REMARK    9  A    between atoms: C_14  and  C_15
REMARK   10  A    between atoms: C_18  and  O_19
REMARK   11  A    between atoms: O_19  and  C_20
REMARK   12  A    between atoms: C_20  and  C_21
REMARK                            x       y       z     vdW  Elec       q    Type
REMARK                         _______ _______ _______ _____ _____    ______ ____
ROOT
ATOM      1  C   UNL     1       2.484   7.358  18.692  0.00  0.00    +0.000 A 
ATOM      2  C   UNL     1       2.324   6.703  19.904  0.00  0.00    +0.000 A 
ATOM      3  N   UNL     1       2.787   5.447  20.118  0.00  0.00    +0.000 NA
ATOM      4  C   UNL     1       3.415   4.842  19.071  0.00  0.00    +0.000 A 
ATOM      5  C   UNL     1       3.608   5.551  17.865  0.00  0.00    +0.000 A 
ATOM      6  N   UNL     1       3.146   6.811  17.635  0.00  0.00    +0.000 NA
ENDROOT
BRANCH   1   8
ATOM      7  N   UNL     1       1.062   9.129  19.565  0.00  0.00    +0.000 N 
ATOM      8  C   UNL     1       1.872   8.706  18.528  0.00  0.00    +0.000 C 
ATOM      9  O   UNL     1       2.112   9.369  17.525  0.00  0.00    +0.000 OA
ATOM     10  H   UNL     1       0.988   8.493  20.355  0.00  0.00    +0.000 HD
BRANCH   7  12
ATOM     11  C   UNL     1      -0.502  10.489  20.871  0.00  0.00    +0.000 C 
ATOM     12  C   UNL     1       0.402  10.444  19.624  0.00  0.00    +0.000 C 
ATOM     13  C   UNL     1      -0.514  10.631  18.395  0.00  0.00    +0.000 C 
BRANCH  12  14
ATOM     14  C   UNL     1       1.438  11.604  19.669  0.00  0.00    +0.000 C 
BRANCH  14  15
ATOM     15  C   UNL     1       0.982  12.896  18.984  0.00  0.00    +0.000 C 
BRANCH  15  16
ATOM     16  C   UNL     1       2.015  13.402  17.983  0.00  0.00    +0.000 C 
BRANCH  16  17
ATOM     17  O   UNL     1       2.706  12.298  17.411  0.00  0.00    +0.000 OA
ATOM     18  H   UNL     1       2.215  11.491  17.644  0.00  0.00    +0.000 HD
ENDBRANCH  16  17
ENDBRANCH  15  16
ENDBRANCH  14  15
ENDBRANCH  12  14
ENDBRANCH   7  12
ENDBRANCH   1   8
BRANCH   4  19
ATOM     19  C   UNL     1       3.889   3.416  19.243  0.00  0.00    +0.000 C 
ATOM     20  C   UNL     1       3.384   2.569  20.390  0.00  0.00    +0.000 C 
ATOM     21  C   UNL     1       2.917   2.283  18.995  0.00  0.00    +0.000 C 
ENDBRANCH   4  19
BRANCH   5  22
ATOM     22  O   UNL     1       4.246   4.870  16.845  0.00  0.00    +0.000 OA
BRANCH  22  23
ATOM     23  C   UNL     1       5.491   5.448  16.462  0.00  0.00    +0.000 C 
BRANCH  23  24
ATOM     24  C   UNL     1       5.674   5.199  14.992  0.00  0.00    +0.000 C 
ATOM     25  C   UNL     1       7.060   5.014  14.427  0.00  0.00    +0.000 C 
ATOM     26  C   UNL     1       6.106   3.851  14.466  0.00  0.00    +0.000 C 
ENDBRANCH  23  24
ENDBRANCH  22  23
ENDBRANCH   5  22
TORSDOF 10
ENDMDL
MODEL 8
REMARK VINA RESULT:      -6.1      1.859      2.762
REMARK  Name = 
REMARK  12 active torsions:
REMARK  status: ('A' for Active; 'I' for Inactive)
REMARK    1  A    between atoms: C_1  and  C_2
REMARK    2  A    between atoms: C_2  and  C_3
REMARK    3  A    between atoms: C_2  and  C_4
REMARK    4  A    between atoms: C_2  and  N_8
REMARK    5  A    between atoms: C_4  and  C_5
REMARK    6  A    between atoms: C_5  and  C_6
REMARK    7  A    between atoms: C_6  and  O_7
REMARK    8  A    between atoms: C_9  and  C_11
REMARK    9  A    between atoms: C_14  and  C_15
REMARK   10  A    between atoms: C_18  and  O_19
REMARK   11  A    between atoms: O_19  and  C_20
REMARK   12  A    between atoms: C_20  and  C_21
REMARK                            x       y       z     vdW  Elec       q    Type
REMARK                         _______ _______ _______ _____ _____    ______ ____
ROOT
ATOM      1  C   UNL     1       2.230   7.412  18.941  0.00  0.00    +0.000 A 
ATOM      2  C   UNL     1       1.858   6.953  20.195  0.00  0.00    +0.000 A 
ATOM      3  N   UNL     1       2.132   5.695  20.618  0.00  0.00    +0.000 NA
ATOM      4  C   UNL     1       2.789   4.886  19.741  0.00  0.00    +0.000 A 
ATOM      5  C   UNL     1       3.199   5.395  18.490  0.00  0.00    +0.000 A 
ATOM      6  N   UNL     1       2.928   6.655  18.050  0.00  0.00    +0.000 NA
ENDROOT
BRANCH   1   8
ATOM      7  N   UNL     1       1.107   9.502  19.482  0.00  0.00    +0.000 N 
ATOM      8  C   UNL     1       1.815   8.784  18.536  0.00  0.00    +0.000 C 
ATOM      9  O   UNL     1       2.117   9.214  17.428  0.00  0.00    +0.000 OA
ATOM     10  H   UNL     1       0.967   9.037  20.375  0.00  0.00    +0.000 HD
BRANCH   7  12
ATOM     11  C   UNL     1      -0.552  10.892  18.334  0.00  0.00    +0.000 C 
ATOM     12  C   UNL     1       0.646  10.889  19.303  0.00  0.00    +0.000 C 
ATOM     13  C   UNL     1       1.759  11.734  18.646  0.00  0.00    +0.000 C 
BRANCH  12  14
ATOM     14  C   UNL     1       0.244  11.539  20.658  0.00  0.00    +0.000 C 
BRANCH  14  15
ATOM     15  C   UNL     1       0.442  10.640  21.883  0.00  0.00    +0.000 C 
BRANCH  15  16
ATOM     16  C   UNL     1      -0.803  10.598  22.761  0.00  0.00    +0.000 C 
BRANCH  16  17
ATOM     17  O   UNL     1      -0.850   9.362  23.466  0.00  0.00    +0.000 OA
ATOM     18  H   UNL     1       0.032   9.207  23.845  0.00  0.00    +0.000 HD
ENDBRANCH  16  17
ENDBRANCH  15  16
ENDBRANCH  14  15
ENDBRANCH  12  14
ENDBRANCH   7  12
ENDBRANCH   1   8
BRANCH   4  19
ATOM     19  C   UNL     1       3.058   3.453  20.146  0.00  0.00    +0.000 C 
ATOM     20  C   UNL     1       2.414   2.869  21.383  0.00  0.00    +0.000 C 
ATOM     21  C   UNL     1       1.944   2.435  20.028  0.00  0.00    +0.000 C 
ENDBRANCH   4  19
BRANCH   5  22
ATOM     22  O   UNL     1       3.853   4.513  17.649  0.00  0.00    +0.000 OA
BRANCH  22  23
ATOM     23  C   UNL     1       4.674   5.153  16.676  0.00  0.00    +0.000 C 
BRANCH  23  24
ATOM     24  C   UNL     1       5.642   4.129  16.155  0.00  0.00    +0.000 C 
ATOM     25  C   UNL     1       5.939   4.057  14.679  0.00  0.00    +0.000 C 
ATOM     26  C   UNL     1       7.004   4.521  15.635  0.00  0.00    +0.000 C 
ENDBRANCH  23  24
ENDBRANCH  22  23
ENDBRANCH   5  22
TORSDOF 10
ENDMDL
MODEL 9
REMARK VINA RESULT:      -6.1      2.180      2.915
REMARK  Name = 
REMARK  12 active torsions:
REMARK  status: ('A' for Active; 'I' for Inactive)
REMARK    1  A    between atoms: C_1  and  C_2
REMARK    2  A    between atoms: C_2  and  C_3
REMARK    3  A    between atoms: C_2  and  C_4
REMARK    4  A    between atoms: C_2  and  N_8
REMARK    5  A    between atoms: C_4  and  C_5
REMARK    6  A    between atoms: C_5  and  C_6
REMARK    7  A    between atoms: C_6  and  O_7
REMARK    8  A    between atoms: C_9  and  C_11
REMARK    9  A    between atoms: C_14  and  C_15
REMARK   10  A    between atoms: C_18  and  O_19
REMARK   11  A    between atoms: O_19  and  C_20
REMARK   12  A    between atoms: C_20  and  C_21
REMARK                            x       y       z     vdW  Elec       q    Type
REMARK                         _______ _______ _______ _____ _____    ______ ____
ROOT
ATOM      1  C   UNL     1       2.201   6.630  20.088  0.00  0.00    +0.000 A 
ATOM      2  C   UNL     1       1.659   5.423  20.501  0.00  0.00    +0.000 A 
ATOM      3  N   UNL     1       2.204   4.228  20.163  0.00  0.00    +0.000 NA
ATOM      4  C   UNL     1       3.318   4.266  19.380  0.00  0.00    +0.000 A 
ATOM      5  C   UNL     1       3.876   5.511  19.015  0.00  0.00    +0.000 A 
ATOM      6  N   UNL     1       3.339   6.717  19.345  0.00  0.00    +0.000 NA
ENDROOT
BRANCH   1   8
ATOM      7  N   UNL     1       1.510   8.885  19.488  0.00  0.00    +0.000 N 
ATOM      8  C   UNL     1       1.486   7.887  20.445  0.00  0.00    +0.000 C 
ATOM      9  O   UNL     1       0.915   7.982  21.525  0.00  0.00    +0.000 OA
ATOM     10  H   UNL     1       1.984   8.652  18.619  0.00  0.00    +0.000 HD
BRANCH   7  12
ATOM     11  C   UNL     1      -0.639  10.018  19.178  0.00  0.00    +0.000 C 
ATOM     12  C   UNL     1       0.827  10.183  19.620  0.00  0.00    +0.000 C 
ATOM     13  C   UNL     1       1.471  11.217  18.672  0.00  0.00    +0.000 C 
BRANCH  12  14
ATOM     14  C   UNL     1       0.892  10.719  21.079  0.00  0.00    +0.000 C 
BRANCH  14  15
ATOM     15  C   UNL     1      -0.412  11.343  21.589  0.00  0.00    +0.000 C 
BRANCH  15  16
ATOM     16  C   UNL     1      -0.842  10.742  22.922  0.00  0.00    +0.000 C 
BRANCH  16  17
ATOM     17  O   UNL     1       0.219   9.962  23.461  0.00  0.00    +0.000 OA
ATOM     18  H   UNL     1      -0.179   9.211  23.933  0.00  0.00    +0.000 HD
ENDBRANCH  16  17
ENDBRANCH  15  16
ENDBRANCH  14  15
ENDBRANCH  12  14
ENDBRANCH   7  12
ENDBRANCH   1   8
BRANCH   4  19
ATOM     19  C   UNL     1       3.921   2.956  18.923  0.00  0.00    +0.000 C 
ATOM     20  C   UNL     1       3.162   1.659  19.089  0.00  0.00    +0.000 C 
ATOM     21  C   UNL     1       3.327   2.252  17.723  0.00  0.00    +0.000 C 
ENDBRANCH   4  19
BRANCH   5  22
ATOM     22  O   UNL     1       5.002   5.470  18.213  0.00  0.00    +0.000 OA
BRANCH  22  23
ATOM     23  C   UNL     1       4.723   5.648  16.827  0.00  0.00    +0.000 C 
BRANCH  23  24
ATOM     24  C   UNL     1       5.521   4.626  16.069  0.00  0.00    +0.000 C 
ATOM     25  C   UNL     1       5.541   4.654  14.562  0.00  0.00    +0.000 C 
ATOM     26  C   UNL     1       6.786   4.996  15.334  0.00  0.00    +0.000 C 
ENDBRANCH  23  24
ENDBRANCH  22  23
ENDBRANCH   5  22
TORSDOF 10
ENDMDL
