MODEL 1
REMARK VINA RESULT:      -7.6      0.000      0.000
REMARK  Name = 
REMARK  15 active torsions:
REMARK  status: ('A' for Active; 'I' for Inactive)
REMARK    1  A    between atoms: C_1  and  C_2
REMARK    2  A    between atoms: C_2  and  C_3
REMARK    3  A    between atoms: C_3  and  C_4
REMARK    4  A    between atoms: C_5  and  C_6
REMARK    5  A    between atoms: C_11  and  C_12
REMARK    6  A    between atoms: C_12  and  O_13
REMARK    7  A    between atoms: O_13  and  C_14
REMARK    8  A    between atoms: C_14  and  C_15
REMARK    9  A    between atoms: C_21  and  C_22
REMARK   10  A    between atoms: C_22  and  C_23
REMARK   11  A    between atoms: C_24  and  C_25
REMARK   12  A    between atoms: C_25  and  C_26
REMARK   13  A    between atoms: C_26  and  C_27
REMARK   14  A    between atoms: C_27  and  C_28
REMARK   15  A    between atoms: C_28  and  O_30
REMARK                            x       y       z     vdW  Elec       q    Type
REMARK                         _______ _______ _______ _____ _____    ______ ____
ROOT
ATOM      1  C   UNL     1       3.594   3.524  17.880  0.00  0.00    +0.000 C 
ATOM      2  C   UNL     1       2.105   3.613  17.575  0.00  0.00    +0.000 C 
ATOM      3  O   UNL     1       1.499   2.873  18.662  0.00  0.00    +0.000 OA
ATOM      4  C   UNL     1       2.602   2.422  19.484  0.00  0.00    +0.000 C 
ATOM      5  C   UNL     1       3.665   2.110  18.446  0.00  0.00    +0.000 C 
ATOM      6  C   UNL     1       3.216   3.627  20.235  0.00  0.00    +0.000 C 
ATOM      7  C   UNL     1       3.912   4.421  19.101  0.00  0.00    +0.000 C 
ENDROOT
BRANCH   1   9
ATOM      8  C   UNL     1       5.262   3.980  15.647  0.00  0.00    +0.000 C 
ATOM      9  C   UNL     1       4.492   3.769  16.678  0.00  0.00    +0.000 C 
BRANCH   8  10
ATOM     10  C   UNL     1       6.160   4.225  14.446  0.00  0.00    +0.000 C 
BRANCH  10  12
ATOM     11  C   UNL     1       6.584   3.512  12.079  0.00  0.00    +0.000 C 
ATOM     12  C   UNL     1       5.561   3.582  13.200  0.00  0.00    +0.000 C 
ENDBRANCH  10  12
ENDBRANCH   8  10
ENDBRANCH   1   9
BRANCH   6  13
ATOM     13  C   UNL     1       2.225   4.456  21.052  0.00  0.00    +0.000 C 
BRANCH  13  14
ATOM     14  O   UNL     1       1.656   5.509  20.284  0.00  0.00    +0.000 OA
BRANCH  14  15
ATOM     15  C   UNL     1       1.700   6.785  20.920  0.00  0.00    +0.000 C 
BRANCH  15  16
ATOM     16  C   UNL     1       1.687   7.863  19.867  0.00  0.00    +0.000 A 
ATOM     17  C   UNL     1       2.351   7.669  18.655  0.00  0.00    +0.000 A 
ATOM     18  C   UNL     1       2.407   8.694  17.708  0.00  0.00    +0.000 A 
ATOM     19  C   UNL     1       1.758   9.906  17.947  0.00  0.00    +0.000 A 
ATOM     20  C   UNL     1       1.057  10.097  19.128  0.00  0.00    +0.000 A 
ATOM     21  C   UNL     1       1.029   9.082  20.090  0.00  0.00    +0.000 A 
ENDBRANCH  15  16
ENDBRANCH  14  15
ENDBRANCH  13  14
ENDBRANCH   6  13
BRANCH   7  22
ATOM     22  C   UNL     1       5.421   4.598  19.358  0.00  0.00    +0.000 C 
BRANCH  22  23
ATOM     23  C   UNL     1       5.966   5.845  18.732  0.00  0.00    +0.000 C 
ATOM     24  C   UNL     1       7.072   5.849  17.981  0.00  0.00    +0.000 C 
BRANCH  24  25
ATOM     25  C   UNL     1       7.604   7.100  17.348  0.00  0.00    +0.000 C 
BRANCH  25  26
ATOM     26  C   UNL     1       8.261   8.008  18.381  0.00  0.00    +0.000 C 
BRANCH  26  27
ATOM     27  C   UNL     1       8.124   9.491  18.028  0.00  0.00    +0.000 C 
BRANCH  27  28
ATOM     28  C   UNL     1       9.175  10.302  18.735  0.00  0.00    +0.000 C 
ATOM     29  O   UNL     1       9.285  10.411  19.951  0.00  0.00    +0.000 OA
BRANCH  28  30
ATOM     30  O   UNL     1      10.022  10.923  17.877  0.00  0.00    +0.000 OA
ATOM     31  H   UNL     1      10.140  10.461  17.041  0.00  0.00    +0.000 HD
ENDBRANCH  28  30
ENDBRANCH  27  28
ENDBRANCH  26  27
ENDBRANCH  25  26
ENDBRANCH  24  25
ENDBRANCH  22  23
ENDBRANCH   7  22
TORSDOF 14
ENDMDL
MODEL 2
REMARK VINA RESULT:      -7.6      2.298      5.613
REMARK  Name = 
REMARK  15 active torsions:
REMARK  status: ('A' for Active; 'I' for Inactive)
REMARK    1  A    between atoms: C_1  and  C_2
REMARK    2  A    between atoms: C_2  and  C_3
REMARK    3  A    between atoms: C_3  and  C_4
REMARK    4  A    between atoms: C_5  and  C_6
REMARK    5  A    between atoms: C_11  and  C_12
REMARK    6  A    between atoms: C_12  and  O_13
REMARK    7  A    between atoms: O_13  and  C_14
REMARK    8  A    between atoms: C_14  and  C_15
REMARK    9  A    between atoms: C_21  and  C_22
REMARK   10  A    between atoms: C_22  and  C_23
REMARK   11  A    between atoms: C_24  and  C_25
REMARK   12  A    between atoms: C_25  and  C_26
REMARK   13  A    between atoms: C_26  and  C_27
REMARK   14  A    between atoms: C_27  and  C_28
REMARK   15  A    between atoms: C_28  and  O_30
REMARK                            x       y       z     vdW  Elec       q    Type
REMARK                         _______ _______ _______ _____ _____    ______ ____
ROOT
ATOM      1  C   UNL     1       5.922   5.203  15.586  0.00  0.00    +0.000 C 
ATOM      2  C   UNL     1       7.183   5.779  16.214  0.00  0.00    +0.000 C 
ATOM      3  O   UNL     1       6.682   6.873  17.020  0.00  0.00    +0.000 OA
ATOM      4  C   UNL     1       5.248   6.872  16.825  0.00  0.00    +0.000 C 
ATOM      5  C   UNL     1       5.127   6.485  15.362  0.00  0.00    +0.000 C 
ATOM      6  C   UNL     1       4.628   5.650  17.543  0.00  0.00    +0.000 C 
ATOM      7  C   UNL     1       5.111   4.460  16.677  0.00  0.00    +0.000 C 
ENDROOT
BRANCH   1   9
ATOM      8  C   UNL     1       6.381   3.682  13.252  0.00  0.00    +0.000 C 
ATOM      9  C   UNL     1       6.169   4.384  14.330  0.00  0.00    +0.000 C 
BRANCH   8  10
ATOM     10  C   UNL     1       6.628   2.863  11.995  0.00  0.00    +0.000 C 
BRANCH  10  12
ATOM     11  C   UNL     1       4.241   3.410  11.452  0.00  0.00    +0.000 C 
ATOM     12  C   UNL     1       5.310   2.330  11.446  0.00  0.00    +0.000 C 
ENDBRANCH  10  12
ENDBRANCH   8  10
ENDBRANCH   1   9
BRANCH   6  13
ATOM     13  C   UNL     1       4.981   5.520  19.025  0.00  0.00    +0.000 C 
BRANCH  13  14
ATOM     14  O   UNL     1       3.902   5.916  19.863  0.00  0.00    +0.000 OA
BRANCH  14  15
ATOM     15  C   UNL     1       2.663   6.086  19.177  0.00  0.00    +0.000 C 
BRANCH  15  16
ATOM     16  C   UNL     1       2.052   7.403  19.580  0.00  0.00    +0.000 A 
ATOM     17  C   UNL     1       1.609   7.601  20.888  0.00  0.00    +0.000 A 
ATOM     18  C   UNL     1       0.972   8.791  21.245  0.00  0.00    +0.000 A 
ATOM     19  C   UNL     1       0.816   9.813  20.308  0.00  0.00    +0.000 A 
ATOM     20  C   UNL     1       1.291   9.647  19.015  0.00  0.00    +0.000 A 
ATOM     21  C   UNL     1       1.899   8.442  18.649  0.00  0.00    +0.000 A 
ENDBRANCH  15  16
ENDBRANCH  14  15
ENDBRANCH  13  14
ENDBRANCH   6  13
BRANCH   7  22
ATOM     22  C   UNL     1       3.937   3.635  16.116  0.00  0.00    +0.000 C 
BRANCH  22  23
ATOM     23  C   UNL     1       2.894   3.345  17.152  0.00  0.00    +0.000 C 
ATOM     24  C   UNL     1       2.786   2.154  17.752  0.00  0.00    +0.000 C 
BRANCH  24  25
ATOM     25  C   UNL     1       1.747   1.877  18.796  0.00  0.00    +0.000 C 
BRANCH  25  26
ATOM     26  C   UNL     1       0.900   3.112  19.078  0.00  0.00    +0.000 C 
BRANCH  26  27
ATOM     27  C   UNL     1       0.697   3.354  20.574  0.00  0.00    +0.000 C 
BRANCH  27  28
ATOM     28  C   UNL     1       1.906   2.908  21.351  0.00  0.00    +0.000 C 
ATOM     29  O   UNL     1       3.068   3.172  21.063  0.00  0.00    +0.000 OA
BRANCH  28  30
ATOM     30  O   UNL     1       1.586   2.164  22.438  0.00  0.00    +0.000 OA
ATOM     31  H   UNL     1       2.344   1.895  22.966  0.00  0.00    +0.000 HD
ENDBRANCH  28  30
ENDBRANCH  27  28
ENDBRANCH  26  27
ENDBRANCH  25  26
ENDBRANCH  24  25
ENDBRANCH  22  23
ENDBRANCH   7  22
TORSDOF 14
ENDMDL
MODEL 3
REMARK VINA RESULT:      -7.6      2.503      5.468
REMARK  Name = 
REMARK  15 active torsions:
REMARK  status: ('A' for Active; 'I' for Inactive)
REMARK    1  A    between atoms: C_1  and  C_2
REMARK    2  A    between atoms: C_2  and  C_3
REMARK    3  A    between atoms: C_3  and  C_4
REMARK    4  A    between atoms: C_5  and  C_6
REMARK    5  A    between atoms: C_11  and  C_12
REMARK    6  A    between atoms: C_12  and  O_13
REMARK    7  A    between atoms: O_13  and  C_14
REMARK    8  A    between atoms: C_14  and  C_15
REMARK    9  A    between atoms: C_21  and  C_22
REMARK   10  A    between atoms: C_22  and  C_23
REMARK   11  A    between atoms: C_24  and  C_25
REMARK   12  A    between atoms: C_25  and  C_26
REMARK   13  A    between atoms: C_26  and  C_27
REMARK   14  A    between atoms: C_27  and  C_28
REMARK   15  A    between atoms: C_28  and  O_30
REMARK                            x       y       z     vdW  Elec       q    Type
REMARK                         _______ _______ _______ _____ _____    ______ ____
ROOT
ATOM      1  C   UNL     1       6.792   4.986  16.752  0.00  0.00    +0.000 C 
ATOM      2  C   UNL     1       7.892   4.206  17.458  0.00  0.00    +0.000 C 
ATOM      3  O   UNL     1       8.052   4.918  18.709  0.00  0.00    +0.000 OA
ATOM      4  C   UNL     1       7.097   6.005  18.660  0.00  0.00    +0.000 C 
ATOM      5  C   UNL     1       7.143   6.402  17.196  0.00  0.00    +0.000 C 
ATOM      6  C   UNL     1       5.663   5.442  18.805  0.00  0.00    +0.000 C 
ATOM      7  C   UNL     1       5.443   4.708  17.460  0.00  0.00    +0.000 C 
ENDROOT
BRANCH   1   9
ATOM      8  C   UNL     1       6.725   4.616  13.953  0.00  0.00    +0.000 C 
ATOM      9  C   UNL     1       6.756   4.787  15.245  0.00  0.00    +0.000 C 
BRANCH   8  10
ATOM     10  C   UNL     1       6.688   4.417  12.446  0.00  0.00    +0.000 C 
BRANCH  10  12
ATOM     11  C   UNL     1       4.560   3.356  11.649  0.00  0.00    +0.000 C 
ATOM     12  C   UNL     1       5.988   3.107  12.105  0.00  0.00    +0.000 C 
ENDBRANCH  10  12
ENDBRANCH   8  10
ENDBRANCH   1   9
BRANCH   6  13
ATOM     13  C   UNL     1       5.433   4.563  20.035  0.00  0.00    +0.000 C 
BRANCH  13  14
ATOM     14  O   UNL     1       5.424   3.180  19.703  0.00  0.00    +0.000 OA
BRANCH  14  15
ATOM     15  C   UNL     1       4.466   2.412  20.428  0.00  0.00    +0.000 C 
BRANCH  15  16
ATOM     16  C   UNL     1       3.080   2.829  20.010  0.00  0.00    +0.000 A 
ATOM     17  C   UNL     1       2.256   3.520  20.899  0.00  0.00    +0.000 A 
ATOM     18  C   UNL     1       0.944   3.840  20.544  0.00  0.00    +0.000 A 
ATOM     19  C   UNL     1       0.461   3.514  19.276  0.00  0.00    +0.000 A 
ATOM     20  C   UNL     1       1.283   2.867  18.365  0.00  0.00    +0.000 A 
ATOM     21  C   UNL     1       2.586   2.517  18.734  0.00  0.00    +0.000 A 
ENDBRANCH  15  16
ENDBRANCH  14  15
ENDBRANCH  13  14
ENDBRANCH   6  13
BRANCH   7  22
ATOM     22  C   UNL     1       4.222   5.252  16.694  0.00  0.00    +0.000 C 
BRANCH  22  23
ATOM     23  C   UNL     1       3.640   6.473  17.337  0.00  0.00    +0.000 C 
ATOM     24  C   UNL     1       2.737   6.409  18.321  0.00  0.00    +0.000 C 
BRANCH  24  25
ATOM     25  C   UNL     1       2.169   7.637  18.967  0.00  0.00    +0.000 C 
BRANCH  25  26
ATOM     26  C   UNL     1       1.911   7.413  20.452  0.00  0.00    +0.000 C 
BRANCH  26  27
ATOM     27  C   UNL     1       0.758   8.268  20.981  0.00  0.00    +0.000 C 
BRANCH  27  28
ATOM     28  C   UNL     1       1.284   9.448  21.753  0.00  0.00    +0.000 C 
ATOM     29  O   UNL     1       0.957  10.615  21.569  0.00  0.00    +0.000 OA
BRANCH  28  30
ATOM     30  O   UNL     1       2.181   9.093  22.705  0.00  0.00    +0.000 OA
ATOM     31  H   UNL     1       2.026   8.222  23.085  0.00  0.00    +0.000 HD
ENDBRANCH  28  30
ENDBRANCH  27  28
ENDBRANCH  26  27
ENDBRANCH  25  26
ENDBRANCH  24  25
ENDBRANCH  22  23
ENDBRANCH   7  22
TORSDOF 14
ENDMDL
MODEL 4
REMARK VINA RESULT:      -7.6      2.970      7.018
REMARK  Name = 
REMARK  15 active torsions:
REMARK  status: ('A' for Active; 'I' for Inactive)
REMARK    1  A    between atoms: C_1  and  C_2
REMARK    2  A    between atoms: C_2  and  C_3
REMARK    3  A    between atoms: C_3  and  C_4
REMARK    4  A    between atoms: C_5  and  C_6
REMARK    5  A    between atoms: C_11  and  C_12
REMARK    6  A    between atoms: C_12  and  O_13
REMARK    7  A    between atoms: O_13  and  C_14
REMARK    8  A    between atoms: C_14  and  C_15
REMARK    9  A    between atoms: C_21  and  C_22
REMARK   10  A    between atoms: C_22  and  C_23
REMARK   11  A    between atoms: C_24  and  C_25
REMARK   12  A    between atoms: C_25  and  C_26
REMARK   13  A    between atoms: C_26  and  C_27
REMARK   14  A    between atoms: C_27  and  C_28
REMARK   15  A    between atoms: C_28  and  O_30
REMARK                            x       y       z     vdW  Elec       q    Type
REMARK                         _______ _______ _______ _____ _____    ______ ____
ROOT
ATOM      1  C   UNL     1       1.944   4.865  20.316  0.00  0.00    +0.000 C 
ATOM      2  C   UNL     1       2.788   4.037  21.274  0.00  0.00    +0.000 C 
ATOM      3  O   UNL     1       2.533   2.676  20.849  0.00  0.00    +0.000 OA
ATOM      4  C   UNL     1       1.610   2.784  19.739  0.00  0.00    +0.000 C 
ATOM      5  C   UNL     1       0.734   3.948  20.166  0.00  0.00    +0.000 C 
ATOM      6  C   UNL     1       2.347   3.360  18.506  0.00  0.00    +0.000 C 
ATOM      7  C   UNL     1       2.598   4.833  18.912  0.00  0.00    +0.000 C 
ENDROOT
BRANCH   1   9
ATOM      8  C   UNL     1       1.342   7.461  21.250  0.00  0.00    +0.000 C 
ATOM      9  C   UNL     1       1.620   6.262  20.819  0.00  0.00    +0.000 C 
BRANCH   8  10
ATOM     10  C   UNL     1       1.018   8.858  21.753  0.00  0.00    +0.000 C 
BRANCH  10  12
ATOM     11  C   UNL     1      -0.723  10.104  23.059  0.00  0.00    +0.000 C 
ATOM     12  C   UNL     1      -0.466   8.969  22.083  0.00  0.00    +0.000 C 
ENDBRANCH  10  12
ENDBRANCH   8  10
ENDBRANCH   1   9
BRANCH   6  13
ATOM     13  C   UNL     1       3.613   2.606  18.098  0.00  0.00    +0.000 C 
BRANCH  13  14
ATOM     14  O   UNL     1       4.781   3.399  18.273  0.00  0.00    +0.000 OA
BRANCH  14  15
ATOM     15  C   UNL     1       5.146   4.161  17.124  0.00  0.00    +0.000 C 
BRANCH  15  16
ATOM     16  C   UNL     1       6.090   5.259  17.540  0.00  0.00    +0.000 A 
ATOM     17  C   UNL     1       6.078   6.486  16.874  0.00  0.00    +0.000 A 
ATOM     18  C   UNL     1       7.003   7.478  17.204  0.00  0.00    +0.000 A 
ATOM     19  C   UNL     1       7.918   7.269  18.237  0.00  0.00    +0.000 A 
ATOM     20  C   UNL     1       7.913   6.072  18.937  0.00  0.00    +0.000 A 
ATOM     21  C   UNL     1       7.008   5.066  18.584  0.00  0.00    +0.000 A 
ENDBRANCH  15  16
ENDBRANCH  14  15
ENDBRANCH  13  14
ENDBRANCH   6  13
BRANCH   7  22
ATOM     22  C   UNL     1       1.968   5.825  17.916  0.00  0.00    +0.000 C 
BRANCH  22  23
ATOM     23  C   UNL     1       2.519   7.210  18.060  0.00  0.00    +0.000 C 
ATOM     24  C   UNL     1       1.811   8.303  17.755  0.00  0.00    +0.000 C 
BRANCH  24  25
ATOM     25  C   UNL     1       2.367   9.686  17.914  0.00  0.00    +0.000 C 
BRANCH  25  26
ATOM     26  C   UNL     1       1.377  10.604  18.622  0.00  0.00    +0.000 C 
BRANCH  26  27
ATOM     27  C   UNL     1      -0.071  10.137  18.462  0.00  0.00    +0.000 C 
BRANCH  27  28
ATOM     28  C   UNL     1      -1.021  11.290  18.639  0.00  0.00    +0.000 C 
ATOM     29  O   UNL     1      -1.715  11.488  19.630  0.00  0.00    +0.000 OA
BRANCH  28  30
ATOM     30  O   UNL     1      -1.041  12.121  17.568  0.00  0.00    +0.000 OA
ATOM     31  H   UNL     1      -1.426  12.984  17.750  0.00  0.00    +0.000 HD
ENDBRANCH  28  30
ENDBRANCH  27  28
ENDBRANCH  26  27
ENDBRANCH  25  26
ENDBRANCH  24  25
ENDBRANCH  22  23
ENDBRANCH   7  22
TORSDOF 14
ENDMDL
MODEL 5
REMARK VINA RESULT:      -7.6      2.464      5.373
REMARK  Name = 
REMARK  15 active torsions:
REMARK  status: ('A' for Active; 'I' for Inactive)
REMARK    1  A    between atoms: C_1  and  C_2
REMARK    2  A    between atoms: C_2  and  C_3
REMARK    3  A    between atoms: C_3  and  C_4
REMARK    4  A    between atoms: C_5  and  C_6
REMARK    5  A    between atoms: C_11  and  C_12
REMARK    6  A    between atoms: C_12  and  O_13
REMARK    7  A    between atoms: O_13  and  C_14
REMARK    8  A    between atoms: C_14  and  C_15
REMARK    9  A    between atoms: C_21  and  C_22
REMARK   10  A    between atoms: C_22  and  C_23
REMARK   11  A    between atoms: C_24  and  C_25
REMARK   12  A    between atoms: C_25  and  C_26
REMARK   13  A    between atoms: C_26  and  C_27
REMARK   14  A    between atoms: C_27  and  C_28
REMARK   15  A    between atoms: C_28  and  O_30
REMARK                            x       y       z     vdW  Elec       q    Type
REMARK                         _______ _______ _______ _____ _____    ______ ____
ROOT
ATOM      1  C   UNL     1       6.943   5.003  16.766  0.00  0.00    +0.000 C 
ATOM      2  C   UNL     1       8.022   4.245  17.525  0.00  0.00    +0.000 C 
ATOM      3  O   UNL     1       8.074   4.930  18.800  0.00  0.00    +0.000 OA
ATOM      4  C   UNL     1       7.084   5.983  18.713  0.00  0.00    +0.000 C 
ATOM      5  C   UNL     1       7.210   6.420  17.265  0.00  0.00    +0.000 C 
ATOM      6  C   UNL     1       5.666   5.366  18.751  0.00  0.00    +0.000 C 
ATOM      7  C   UNL     1       5.562   4.659  17.377  0.00  0.00    +0.000 C 
ENDROOT
BRANCH   1   9
ATOM      8  C   UNL     1       7.071   4.703  13.961  0.00  0.00    +0.000 C 
ATOM      9  C   UNL     1       7.012   4.842  15.256  0.00  0.00    +0.000 C 
BRANCH   8  10
ATOM     10  C   UNL     1       7.140   4.541  12.451  0.00  0.00    +0.000 C 
BRANCH  10  12
ATOM     11  C   UNL     1       4.915   3.409  12.209  0.00  0.00    +0.000 C 
ATOM     12  C   UNL     1       6.416   3.269  12.024  0.00  0.00    +0.000 C 
ENDBRANCH  10  12
ENDBRANCH   8  10
ENDBRANCH   1   9
BRANCH   6  13
ATOM     13  C   UNL     1       5.390   4.448  19.942  0.00  0.00    +0.000 C 
BRANCH  13  14
ATOM     14  O   UNL     1       5.396   3.076  19.566  0.00  0.00    +0.000 OA
BRANCH  14  15
ATOM     15  C   UNL     1       4.477   2.267  20.297  0.00  0.00    +0.000 C 
BRANCH  15  16
ATOM     16  C   UNL     1       3.070   2.674  19.944  0.00  0.00    +0.000 A 
ATOM     17  C   UNL     1       2.278   3.347  20.875  0.00  0.00    +0.000 A 
ATOM     18  C   UNL     1       0.950   3.657  20.581  0.00  0.00    +0.000 A 
ATOM     19  C   UNL     1       0.415   3.338  19.332  0.00  0.00    +0.000 A 
ATOM     20  C   UNL     1       1.203   2.709  18.380  0.00  0.00    +0.000 A 
ATOM     21  C   UNL     1       2.524   2.369  18.688  0.00  0.00    +0.000 A 
ENDBRANCH  15  16
ENDBRANCH  14  15
ENDBRANCH  13  14
ENDBRANCH   6  13
BRANCH   7  22
ATOM     22  C   UNL     1       4.374   5.178  16.545  0.00  0.00    +0.000 C 
BRANCH  22  23
ATOM     23  C   UNL     1       3.682   6.337  17.195  0.00  0.00    +0.000 C 
ATOM     24  C   UNL     1       2.661   6.183  18.045  0.00  0.00    +0.000 C 
BRANCH  24  25
ATOM     25  C   UNL     1       1.983   7.349  18.699  0.00  0.00    +0.000 C 
BRANCH  25  26
ATOM     26  C   UNL     1       2.182   8.629  17.895  0.00  0.00    +0.000 C 
BRANCH  26  27
ATOM     27  C   UNL     1       0.960   9.548  17.947  0.00  0.00    +0.000 C 
BRANCH  27  28
ATOM     28  C   UNL     1       1.238  10.752  18.805  0.00  0.00    +0.000 C 
ATOM     29  O   UNL     1       1.069  10.809  20.018  0.00  0.00    +0.000 OA
BRANCH  28  30
ATOM     30  O   UNL     1       1.713  11.803  18.094  0.00  0.00    +0.000 OA
ATOM     31  H   UNL     1       1.172  12.039  17.333  0.00  0.00    +0.000 HD
ENDBRANCH  28  30
ENDBRANCH  27  28
ENDBRANCH  26  27
ENDBRANCH  25  26
ENDBRANCH  24  25
ENDBRANCH  22  23
ENDBRANCH   7  22
TORSDOF 14
ENDMDL
MODEL 6
REMARK VINA RESULT:      -7.6      2.504      5.524
REMARK  Name = 
REMARK  15 active torsions:
REMARK  status: ('A' for Active; 'I' for Inactive)
REMARK    1  A    between atoms: C_1  and  C_2
REMARK    2  A    between atoms: C_2  and  C_3
REMARK    3  A    between atoms: C_3  and  C_4
REMARK    4  A    between atoms: C_5  and  C_6
REMARK    5  A    between atoms: C_11  and  C_12
REMARK    6  A    between atoms: C_12  and  O_13
REMARK    7  A    between atoms: O_13  and  C_14
REMARK    8  A    between atoms: C_14  and  C_15
REMARK    9  A    between atoms: C_21  and  C_22
REMARK   10  A    between atoms: C_22  and  C_23
REMARK   11  A    between atoms: C_24  and  C_25
REMARK   12  A    between atoms: C_25  and  C_26
REMARK   13  A    between atoms: C_26  and  C_27
REMARK   14  A    between atoms: C_27  and  C_28
REMARK   15  A    between atoms: C_28  and  O_30
REMARK                            x       y       z     vdW  Elec       q    Type
REMARK                         _______ _______ _______ _____ _____    ______ ____
ROOT
ATOM      1  C   UNL     1       6.704   4.857  16.778  0.00  0.00    +0.000 C 
ATOM      2  C   UNL     1       7.889   4.232  17.499  0.00  0.00    +0.000 C 
ATOM      3  O   UNL     1       7.986   5.013  18.715  0.00  0.00    +0.000 OA
ATOM      4  C   UNL     1       6.918   5.987  18.634  0.00  0.00    +0.000 C 
ATOM      5  C   UNL     1       6.904   6.321  17.154  0.00  0.00    +0.000 C 
ATOM      6  C   UNL     1       5.556   5.281  18.828  0.00  0.00    +0.000 C 
ATOM      7  C   UNL     1       5.401   4.467  17.520  0.00  0.00    +0.000 C 
ENDROOT
BRANCH   1   9
ATOM      8  C   UNL     1       6.644   4.356  13.999  0.00  0.00    +0.000 C 
ATOM      9  C   UNL     1       6.671   4.587  15.282  0.00  0.00    +0.000 C 
BRANCH   8  10
ATOM     10  C   UNL     1       6.611   4.086  12.504  0.00  0.00    +0.000 C 
BRANCH  10  12
ATOM     11  C   UNL     1       5.773   1.959  11.473  0.00  0.00    +0.000 C 
ATOM     12  C   UNL     1       5.379   3.264  12.143  0.00  0.00    +0.000 C 
ENDBRANCH  10  12
ENDBRANCH   8  10
ENDBRANCH   1   9
BRANCH   6  13
ATOM     13  C   UNL     1       5.436   4.438  20.098  0.00  0.00    +0.000 C 
BRANCH  13  14
ATOM     14  O   UNL     1       5.311   3.052  19.805  0.00  0.00    +0.000 OA
BRANCH  14  15
ATOM     15  C   UNL     1       4.369   2.365  20.626  0.00  0.00    +0.000 C 
BRANCH  15  16
ATOM     16  C   UNL     1       2.977   2.646  20.124  0.00  0.00    +0.000 A 
ATOM     17  C   UNL     1       2.500   2.005  18.980  0.00  0.00    +0.000 A 
ATOM     18  C   UNL     1       1.240   2.320  18.467  0.00  0.00    +0.000 A 
ATOM     19  C   UNL     1       0.427   3.245  19.121  0.00  0.00    +0.000 A 
ATOM     20  C   UNL     1       0.870   3.858  20.284  0.00  0.00    +0.000 A 
ATOM     21  C   UNL     1       2.145   3.567  20.779  0.00  0.00    +0.000 A 
ENDBRANCH  15  16
ENDBRANCH  14  15
ENDBRANCH  13  14
ENDBRANCH   6  13
BRANCH   7  22
ATOM     22  C   UNL     1       4.119   4.841  16.751  0.00  0.00    +0.000 C 
BRANCH  22  23
ATOM     23  C   UNL     1       3.195   5.698  17.560  0.00  0.00    +0.000 C 
ATOM     24  C   UNL     1       3.217   7.034  17.506  0.00  0.00    +0.000 C 
BRANCH  24  25
ATOM     25  C   UNL     1       2.279   7.882  18.311  0.00  0.00    +0.000 C 
BRANCH  25  26
ATOM     26  C   UNL     1       2.014   9.218  17.626  0.00  0.00    +0.000 C 
BRANCH  26  27
ATOM     27  C   UNL     1       1.519  10.288  18.602  0.00  0.00    +0.000 C 
BRANCH  27  28
ATOM     28  C   UNL     1       0.055  10.102  18.892  0.00  0.00    +0.000 C 
ATOM     29  O   UNL     1      -0.417   9.793  19.980  0.00  0.00    +0.000 OA
BRANCH  28  30
ATOM     30  O   UNL     1      -0.726  10.319  17.805  0.00  0.00    +0.000 OA
ATOM     31  H   UNL     1      -0.243  10.333  16.972  0.00  0.00    +0.000 HD
ENDBRANCH  28  30
ENDBRANCH  27  28
ENDBRANCH  26  27
ENDBRANCH  25  26
ENDBRANCH  24  25
ENDBRANCH  22  23
ENDBRANCH   7  22
TORSDOF 14
ENDMDL
MODEL 7
REMARK VINA RESULT:      -7.3      2.700      6.621
REMARK  Name = 
REMARK  15 active torsions:
REMARK  status: ('A' for Active; 'I' for Inactive)
REMARK    1  A    between atoms: C_1  and  C_2
REMARK    2  A    between atoms: C_2  and  C_3
REMARK    3  A    between atoms: C_3  and  C_4
REMARK    4  A    between atoms: C_5  and  C_6
REMARK    5  A    between atoms: C_11  and  C_12
REMARK    6  A    between atoms: C_12  and  O_13
REMARK    7  A    between atoms: O_13  and  C_14
REMARK    8  A    between atoms: C_14  and  C_15
REMARK    9  A    between atoms: C_21  and  C_22
REMARK   10  A    between atoms: C_22  and  C_23
REMARK   11  A    between atoms: C_24  and  C_25
REMARK   12  A    between atoms: C_25  and  C_26
REMARK   13  A    between atoms: C_26  and  C_27
REMARK   14  A    between atoms: C_27  and  C_28
REMARK   15  A    between atoms: C_28  and  O_30
REMARK                            x       y       z     vdW  Elec       q    Type
REMARK                         _______ _______ _______ _____ _____    ______ ____
ROOT
ATOM      1  C   UNL     1       6.653   6.083  17.818  0.00  0.00    +0.000 C 
ATOM      2  C   UNL     1       7.521   4.952  17.285  0.00  0.00    +0.000 C 
ATOM      3  O   UNL     1       6.894   3.767  17.832  0.00  0.00    +0.000 OA
ATOM      4  C   UNL     1       5.767   4.248  18.604  0.00  0.00    +0.000 C 
ATOM      5  C   UNL     1       6.316   5.533  19.199  0.00  0.00    +0.000 C 
ATOM      6  C   UNL     1       4.667   4.768  17.649  0.00  0.00    +0.000 C 
ATOM      7  C   UNL     1       5.293   6.065  17.077  0.00  0.00    +0.000 C 
ENDROOT
BRANCH   1   9
ATOM      8  C   UNL     1       7.922   8.606  17.837  0.00  0.00    +0.000 C 
ATOM      9  C   UNL     1       7.336   7.441  17.828  0.00  0.00    +0.000 C 
BRANCH   8  10
ATOM     10  C   UNL     1       8.604   9.964  17.847  0.00  0.00    +0.000 C 
BRANCH  10  12
ATOM     11  C   UNL     1       9.841  11.616  19.272  0.00  0.00    +0.000 C 
ATOM     12  C   UNL     1       9.258  10.215  19.201  0.00  0.00    +0.000 C 
ENDBRANCH  10  12
ENDBRANCH   8  10
ENDBRANCH   1   9
BRANCH   6  13
ATOM     13  C   UNL     1       4.215   3.775  16.578  0.00  0.00    +0.000 C 
BRANCH  13  14
ATOM     14  O   UNL     1       2.858   3.389  16.754  0.00  0.00    +0.000 OA
BRANCH  14  15
ATOM     15  C   UNL     1       2.678   2.256  17.601  0.00  0.00    +0.000 C 
BRANCH  15  16
ATOM     16  C   UNL     1       2.343   2.729  18.992  0.00  0.00    +0.000 A 
ATOM     17  C   UNL     1       3.111   2.313  20.080  0.00  0.00    +0.000 A 
ATOM     18  C   UNL     1       2.757   2.685  21.379  0.00  0.00    +0.000 A 
ATOM     19  C   UNL     1       1.658   3.517  21.596  0.00  0.00    +0.000 A 
ATOM     20  C   UNL     1       0.911   3.975  20.520  0.00  0.00    +0.000 A 
ATOM     21  C   UNL     1       1.247   3.574  19.223  0.00  0.00    +0.000 A 
ENDBRANCH  15  16
ENDBRANCH  14  15
ENDBRANCH  13  14
ENDBRANCH   6  13
BRANCH   7  22
ATOM     22  C   UNL     1       4.421   7.303  17.360  0.00  0.00    +0.000 C 
BRANCH  22  23
ATOM     23  C   UNL     1       3.612   7.162  18.612  0.00  0.00    +0.000 C 
ATOM     24  C   UNL     1       2.380   7.668  18.736  0.00  0.00    +0.000 C 
BRANCH  24  25
ATOM     25  C   UNL     1       1.573   7.511  19.989  0.00  0.00    +0.000 C 
BRANCH  25  26
ATOM     26  C   UNL     1       1.116   8.862  20.528  0.00  0.00    +0.000 C 
BRANCH  26  27
ATOM     27  C   UNL     1       1.211   8.947  22.052  0.00  0.00    +0.000 C 
BRANCH  27  28
ATOM     28  C   UNL     1       0.131   9.837  22.602  0.00  0.00    +0.000 C 
ATOM     29  O   UNL     1       0.068  11.051  22.445  0.00  0.00    +0.000 OA
BRANCH  28  30
ATOM     30  O   UNL     1      -0.803   9.153  23.308  0.00  0.00    +0.000 OA
ATOM     31  H   UNL     1      -0.716   9.243  24.262  0.00  0.00    +0.000 HD
ENDBRANCH  28  30
ENDBRANCH  27  28
ENDBRANCH  26  27
ENDBRANCH  25  26
ENDBRANCH  24  25
ENDBRANCH  22  23
ENDBRANCH   7  22
TORSDOF 14
ENDMDL
MODEL 8
REMARK VINA RESULT:      -7.3      2.691      6.793
REMARK  Name = 
REMARK  15 active torsions:
REMARK  status: ('A' for Active; 'I' for Inactive)
REMARK    1  A    between atoms: C_1  and  C_2
REMARK    2  A    between atoms: C_2  and  C_3
REMARK    3  A    between atoms: C_3  and  C_4
REMARK    4  A    between atoms: C_5  and  C_6
REMARK    5  A    between atoms: C_11  and  C_12
REMARK    6  A    between atoms: C_12  and  O_13
REMARK    7  A    between atoms: O_13  and  C_14
REMARK    8  A    between atoms: C_14  and  C_15
REMARK    9  A    between atoms: C_21  and  C_22
REMARK   10  A    between atoms: C_22  and  C_23
REMARK   11  A    between atoms: C_24  and  C_25
REMARK   12  A    between atoms: C_25  and  C_26
REMARK   13  A    between atoms: C_26  and  C_27
REMARK   14  A    between atoms: C_27  and  C_28
REMARK   15  A    between atoms: C_28  and  O_30
REMARK                            x       y       z     vdW  Elec       q    Type
REMARK                         _______ _______ _______ _____ _____    ______ ____
ROOT
ATOM      1  C   UNL     1       6.835   6.358  17.336  0.00  0.00    +0.000 C 
ATOM      2  C   UNL     1       7.443   5.596  16.167  0.00  0.00    +0.000 C 
ATOM      3  O   UNL     1       7.117   4.217  16.465  0.00  0.00    +0.000 OA
ATOM      4  C   UNL     1       6.386   4.254  17.714  0.00  0.00    +0.000 C 
ATOM      5  C   UNL     1       7.095   5.367  18.465  0.00  0.00    +0.000 C 
ATOM      6  C   UNL     1       4.982   4.859  17.475  0.00  0.00    +0.000 C 
ATOM      7  C   UNL     1       5.293   6.350  17.194  0.00  0.00    +0.000 C 
ENDROOT
BRANCH   1   9
ATOM      8  C   UNL     1       7.942   8.923  17.748  0.00  0.00    +0.000 C 
ATOM      9  C   UNL     1       7.431   7.739  17.558  0.00  0.00    +0.000 C 
BRANCH   8  10
ATOM     10  C   UNL     1       8.538  10.304  17.969  0.00  0.00    +0.000 C 
BRANCH  10  12
ATOM     11  C   UNL     1      10.554  11.163  19.189  0.00  0.00    +0.000 C 
ATOM     12  C   UNL     1       9.274  10.352  19.303  0.00  0.00    +0.000 C 
ENDBRANCH  10  12
ENDBRANCH   8  10
ENDBRANCH   1   9
BRANCH   6  13
ATOM     13  C   UNL     1       4.162   4.181  16.377  0.00  0.00    +0.000 C 
BRANCH  13  14
ATOM     14  O   UNL     1       3.107   3.392  16.915  0.00  0.00    +0.000 OA
BRANCH  14  15
ATOM     15  C   UNL     1       2.036   4.152  17.472  0.00  0.00    +0.000 C 
BRANCH  15  16
ATOM     16  C   UNL     1       1.951   3.875  18.950  0.00  0.00    +0.000 A 
ATOM     17  C   UNL     1       1.468   2.649  19.409  0.00  0.00    +0.000 A 
ATOM     18  C   UNL     1       1.313   2.417  20.777  0.00  0.00    +0.000 A 
ATOM     19  C   UNL     1       1.686   3.394  21.701  0.00  0.00    +0.000 A 
ATOM     20  C   UNL     1       2.209   4.601  21.261  0.00  0.00    +0.000 A 
ATOM     21  C   UNL     1       2.333   4.845  19.890  0.00  0.00    +0.000 A 
ENDBRANCH  15  16
ENDBRANCH  14  15
ENDBRANCH  13  14
ENDBRANCH   6  13
BRANCH   7  22
ATOM     22  C   UNL     1       4.578   7.289  18.185  0.00  0.00    +0.000 C 
BRANCH  22  23
ATOM     23  C   UNL     1       3.322   7.874  17.617  0.00  0.00    +0.000 C 
ATOM     24  C   UNL     1       2.326   8.327  18.386  0.00  0.00    +0.000 C 
BRANCH  24  25
ATOM     25  C   UNL     1       1.078   8.923  17.808  0.00  0.00    +0.000 C 
BRANCH  25  26
ATOM     26  C   UNL     1       0.746  10.259  18.462  0.00  0.00    +0.000 C 
BRANCH  26  27
ATOM     27  C   UNL     1      -0.610  10.242  19.171  0.00  0.00    +0.000 C 
BRANCH  27  28
ATOM     28  C   UNL     1      -1.553  11.226  18.533  0.00  0.00    +0.000 C 
ATOM     29  O   UNL     1      -2.403  11.878  19.129  0.00  0.00    +0.000 OA
BRANCH  28  30
ATOM     30  O   UNL     1      -1.370  11.333  17.194  0.00  0.00    +0.000 OA
ATOM     31  H   UNL     1      -0.920  12.140  16.924  0.00  0.00    +0.000 HD
ENDBRANCH  28  30
ENDBRANCH  27  28
ENDBRANCH  26  27
ENDBRANCH  25  26
ENDBRANCH  24  25
ENDBRANCH  22  23
ENDBRANCH   7  22
TORSDOF 14
ENDMDL
MODEL 9
REMARK VINA RESULT:      -7.2      2.515      5.477
REMARK  Name = 
REMARK  15 active torsions:
REMARK  status: ('A' for Active; 'I' for Inactive)
REMARK    1  A    between atoms: C_1  and  C_2
REMARK    2  A    between atoms: C_2  and  C_3
REMARK    3  A    between atoms: C_3  and  C_4
REMARK    4  A    between atoms: C_5  and  C_6
REMARK    5  A    between atoms: C_11  and  C_12
REMARK    6  A    between atoms: C_12  and  O_13
REMARK    7  A    between atoms: O_13  and  C_14
REMARK    8  A    between atoms: C_14  and  C_15
REMARK    9  A    between atoms: C_21  and  C_22
REMARK   10  A    between atoms: C_22  and  C_23
REMARK   11  A    between atoms: C_24  and  C_25
REMARK   12  A    between atoms: C_25  and  C_26
REMARK   13  A    between atoms: C_26  and  C_27
REMARK   14  A    between atoms: C_27  and  C_28
REMARK   15  A    between atoms: C_28  and  O_30
REMARK                            x       y       z     vdW  Elec       q    Type
REMARK                         _______ _______ _______ _____ _____    ______ ____
ROOT
ATOM      1  C   UNL     1       6.502   4.799  16.759  0.00  0.00    +0.000 C 
ATOM      2  C   UNL     1       7.750   4.271  17.453  0.00  0.00    +0.000 C 
ATOM      3  O   UNL     1       7.840   5.092  18.643  0.00  0.00    +0.000 OA
ATOM      4  C   UNL     1       6.710   5.995  18.575  0.00  0.00    +0.000 C 
ATOM      5  C   UNL     1       6.622   6.283  17.087  0.00  0.00    +0.000 C 
ATOM      6  C   UNL     1       5.402   5.210  18.838  0.00  0.00    +0.000 C 
ATOM      7  C   UNL     1       5.254   4.350  17.559  0.00  0.00    +0.000 C 
ENDROOT
BRANCH   1   9
ATOM      8  C   UNL     1       6.376   4.212  14.000  0.00  0.00    +0.000 C 
ATOM      9  C   UNL     1       6.434   4.483  15.274  0.00  0.00    +0.000 C 
BRANCH   8  10
ATOM     10  C   UNL     1       6.309   3.896  12.515  0.00  0.00    +0.000 C 
BRANCH  10  12
ATOM     11  C   UNL     1       8.208   5.523  12.707  0.00  0.00    +0.000 C 
ATOM     12  C   UNL     1       7.335   4.726  11.752  0.00  0.00    +0.000 C 
ENDBRANCH  10  12
ENDBRANCH   8  10
ENDBRANCH   1   9
BRANCH   6  13
ATOM     13  C   UNL     1       5.382   4.400  20.135  0.00  0.00    +0.000 C 
BRANCH  13  14
ATOM     14  O   UNL     1       5.296   3.003  19.885  0.00  0.00    +0.000 OA
BRANCH  14  15
ATOM     15  C   UNL     1       4.321   2.327  20.676  0.00  0.00    +0.000 C 
BRANCH  15  16
ATOM     16  C   UNL     1       2.946   2.661  20.155  0.00  0.00    +0.000 A 
ATOM     17  C   UNL     1       2.163   3.617  20.801  0.00  0.00    +0.000 A 
ATOM     18  C   UNL     1       0.860   3.873  20.369  0.00  0.00    +0.000 A 
ATOM     19  C   UNL     1       0.346   3.207  19.256  0.00  0.00    +0.000 A 
ATOM     20  C   UNL     1       1.129   2.285  18.577  0.00  0.00    +0.000 A 
ATOM     21  C   UNL     1       2.422   2.005  19.030  0.00  0.00    +0.000 A 
ENDBRANCH  15  16
ENDBRANCH  14  15
ENDBRANCH  13  14
ENDBRANCH   6  13
BRANCH   7  22
ATOM     22  C   UNL     1       3.925   4.620  16.829  0.00  0.00    +0.000 C 
BRANCH  22  23
ATOM     23  C   UNL     1       2.972   5.430  17.653  0.00  0.00    +0.000 C 
ATOM     24  C   UNL     1       3.048   6.762  17.743  0.00  0.00    +0.000 C 
BRANCH  24  25
ATOM     25  C   UNL     1       2.082   7.565  18.560  0.00  0.00    +0.000 C 
BRANCH  25  26
ATOM     26  C   UNL     1       2.301   7.344  20.053  0.00  0.00    +0.000 C 
BRANCH  26  27
ATOM     27  C   UNL     1       1.052   7.656  20.880  0.00  0.00    +0.000 C 
BRANCH  27  28
ATOM     28  C   UNL     1       1.165   9.015  21.516  0.00  0.00    +0.000 C 
ATOM     29  O   UNL     1       0.494   9.995  21.212  0.00  0.00    +0.000 OA
BRANCH  28  30
ATOM     30  O   UNL     1       2.106   9.061  22.490  0.00  0.00    +0.000 OA
ATOM     31  H   UNL     1       2.858   8.481  22.336  0.00  0.00    +0.000 HD
ENDBRANCH  28  30
ENDBRANCH  27  28
ENDBRANCH  26  27
ENDBRANCH  25  26
ENDBRANCH  24  25
ENDBRANCH  22  23
ENDBRANCH   7  22
TORSDOF 14
ENDMDL
