MODEL 1
REMARK VINA RESULT:      -7.5      0.000      0.000
REMARK  Name = 
REMARK  15 active torsions:
REMARK  status: ('A' for Active; 'I' for Inactive)
REMARK    1  A    between atoms: C_1  and  C_2
REMARK    2  A    between atoms: C_2  and  C_3
REMARK    3  A    between atoms: C_3  and  C_4
REMARK    4  A    between atoms: C_3  and  C_5
REMARK    5  A    between atoms: C_3  and  C_33
REMARK    6  A    between atoms: C_5  and  C_6
REMARK    7  A    between atoms: C_9  and  O_10
REMARK    8  A    between atoms: O_10  and  C_11
REMARK    9  A    between atoms: C_11  and  C_12
REMARK   10  A    between atoms: C_12  and  C_13
REMARK   11  A    between atoms: C_13  and  O_14
REMARK   12  A    between atoms: O_14  and  C_15
REMARK   13  A    between atoms: C_19  and  C_20
REMARK   14  A    between atoms: C_29  and  C_30
REMARK   15  A    between atoms: C_33  and  O_35
REMARK                            x       y       z     vdW  Elec       q    Type
REMARK                         _______ _______ _______ _____ _____    ______ ____
ROOT
ATOM      1  C   UNL     1       1.057   2.821  20.082  0.00  0.00    +0.000 C 
ENDROOT
BRANCH   1   2
ATOM      2  C   UNL     1       0.752   4.323  20.082  0.00  0.00    +0.000 C 
BRANCH   2   3
ATOM      3  O   UNL     1       1.929   5.073  20.416  0.00  0.00    +0.000 OA
BRANCH   3   7
ATOM      4  C   UNL     1       1.563   9.153  19.481  0.00  0.00    +0.000 A 
ATOM      5  C   UNL     1       1.188   8.640  20.730  0.00  0.00    +0.000 A 
ATOM      6  C   UNL     1       1.354   7.277  21.022  0.00  0.00    +0.000 A 
ATOM      7  C   UNL     1       1.880   6.403  20.069  0.00  0.00    +0.000 A 
ATOM      8  C   UNL     1       2.330   6.925  18.857  0.00  0.00    +0.000 A 
ATOM      9  C   UNL     1       2.171   8.284  18.564  0.00  0.00    +0.000 A 
BRANCH   4  10
ATOM     10  C   UNL     1       1.194  10.563  19.064  0.00  0.00    +0.000 C 
BRANCH  10  11
ATOM     11  C   UNL     1      -0.218  11.137  19.401  0.00  0.00    +0.000 C 
ATOM     12  C   UNL     1      -0.364  11.284  20.929  0.00  0.00    +0.000 C 
BRANCH  11  14
ATOM     13  C   UNL     1      -1.390  10.020  17.359  0.00  0.00    +0.000 C 
ATOM     14  C   UNL     1      -1.375  10.258  18.866  0.00  0.00    +0.000 C 
ENDBRANCH  11  14
BRANCH  11  15
ATOM     15  C   UNL     1      -0.284  12.540  18.766  0.00  0.00    +0.000 C 
ATOM     16  O   UNL     1      -1.161  13.360  18.995  0.00  0.00    +0.000 OA
BRANCH  15  17
ATOM     17  O   UNL     1       0.724  12.834  17.915  0.00  0.00    +0.000 OA
ATOM     18  H   UNL     1       0.479  13.365  17.137  0.00  0.00    +0.000 HD
ENDBRANCH  15  17
ENDBRANCH  11  15
ENDBRANCH  10  11
ENDBRANCH   4  10
ENDBRANCH   3   7
ENDBRANCH   2   3
ENDBRANCH   1   2
BRANCH   1  19
ATOM     19  C   UNL     1       1.037   2.262  18.652  0.00  0.00    +0.000 C 
BRANCH  19  20
ATOM     20  O   UNL     1       2.359   1.884  18.260  0.00  0.00    +0.000 OA
BRANCH  20  21
ATOM     21  C   UNL     1       3.348   2.834  18.267  0.00  0.00    +0.000 A 
ATOM     22  C   UNL     1       3.387   3.599  17.091  0.00  0.00    +0.000 A 
ATOM     23  C   UNL     1       4.356   4.592  16.864  0.00  0.00    +0.000 A 
ATOM     24  C   UNL     1       5.346   4.853  17.814  0.00  0.00    +0.000 A 
ATOM     25  C   UNL     1       6.393   5.888  17.692  0.00  0.00    +0.000 A 
ATOM     26  C   UNL     1       7.278   6.022  18.696  0.00  0.00    +0.000 A 
ATOM     27  C   UNL     1       7.320   5.154  19.871  0.00  0.00    +0.000 A 
ATOM     28  O   UNL     1       8.209   5.261  20.706  0.00  0.00    +0.000 OA
ATOM     29  O   UNL     1       6.309   4.225  19.970  0.00  0.00    +0.000 OA
ATOM     30  C   UNL     1       5.311   4.058  18.973  0.00  0.00    +0.000 A 
ATOM     31  C   UNL     1       4.340   3.053  19.232  0.00  0.00    +0.000 A 
ATOM     32  C   UNL     1       4.437   2.268  20.509  0.00  0.00    +0.000 C 
BRANCH  25  33
ATOM     33  C   UNL     1       6.539   6.813  16.520  0.00  0.00    +0.000 C 
ATOM     34  F   UNL     1       5.390   7.123  15.874  0.00  0.00    +0.000 F 
ATOM     35  F   UNL     1       7.111   7.988  16.893  0.00  0.00    +0.000 F 
ATOM     36  F   UNL     1       7.360   6.275  15.577  0.00  0.00    +0.000 F 
ENDBRANCH  25  33
ENDBRANCH  20  21
ENDBRANCH  19  20
ENDBRANCH   1  19
TORSDOF 12
ENDMDL
MODEL 2
REMARK VINA RESULT:      -7.4      1.140      1.420
REMARK  Name = 
REMARK  15 active torsions:
REMARK  status: ('A' for Active; 'I' for Inactive)
REMARK    1  A    between atoms: C_1  and  C_2
REMARK    2  A    between atoms: C_2  and  C_3
REMARK    3  A    between atoms: C_3  and  C_4
REMARK    4  A    between atoms: C_3  and  C_5
REMARK    5  A    between atoms: C_3  and  C_33
REMARK    6  A    between atoms: C_5  and  C_6
REMARK    7  A    between atoms: C_9  and  O_10
REMARK    8  A    between atoms: O_10  and  C_11
REMARK    9  A    between atoms: C_11  and  C_12
REMARK   10  A    between atoms: C_12  and  C_13
REMARK   11  A    between atoms: C_13  and  O_14
REMARK   12  A    between atoms: O_14  and  C_15
REMARK   13  A    between atoms: C_19  and  C_20
REMARK   14  A    between atoms: C_29  and  C_30
REMARK   15  A    between atoms: C_33  and  O_35
REMARK                            x       y       z     vdW  Elec       q    Type
REMARK                         _______ _______ _______ _____ _____    ______ ____
ROOT
ATOM      1  C   UNL     1       0.817   4.027  19.604  0.00  0.00    +0.000 C 
ENDROOT
BRANCH   1   2
ATOM      2  C   UNL     1       1.369   4.820  20.795  0.00  0.00    +0.000 C 
BRANCH   2   3
ATOM      3  O   UNL     1       2.523   5.575  20.400  0.00  0.00    +0.000 OA
BRANCH   3   7
ATOM      4  C   UNL     1       1.466   9.275  18.714  0.00  0.00    +0.000 A 
ATOM      5  C   UNL     1       1.299   9.005  20.080  0.00  0.00    +0.000 A 
ATOM      6  C   UNL     1       1.694   7.770  20.617  0.00  0.00    +0.000 A 
ATOM      7  C   UNL     1       2.244   6.781  19.801  0.00  0.00    +0.000 A 
ATOM      8  C   UNL     1       2.487   7.077  18.460  0.00  0.00    +0.000 A 
ATOM      9  C   UNL     1       2.100   8.309  17.921  0.00  0.00    +0.000 A 
BRANCH   4  10
ATOM     10  C   UNL     1       0.852  10.504  18.072  0.00  0.00    +0.000 C 
BRANCH  10  11
ATOM     11  C   UNL     1      -0.396  11.186  18.717  0.00  0.00    +0.000 C 
ATOM     12  C   UNL     1      -0.652  10.580  20.112  0.00  0.00    +0.000 C 
BRANCH  11  14
ATOM     13  C   UNL     1      -1.808   9.744  17.069  0.00  0.00    +0.000 C 
ATOM     14  C   UNL     1      -1.678  11.041  17.861  0.00  0.00    +0.000 C 
ENDBRANCH  11  14
BRANCH  11  15
ATOM     15  C   UNL     1      -0.041  12.676  18.888  0.00  0.00    +0.000 C 
ATOM     16  O   UNL     1       1.025  13.086  19.323  0.00  0.00    +0.000 OA
BRANCH  15  17
ATOM     17  O   UNL     1      -1.005  13.544  18.507  0.00  0.00    +0.000 OA
ATOM     18  H   UNL     1      -1.214  13.553  17.556  0.00  0.00    +0.000 HD
ENDBRANCH  15  17
ENDBRANCH  11  15
ENDBRANCH  10  11
ENDBRANCH   4  10
ENDBRANCH   3   7
ENDBRANCH   2   3
ENDBRANCH   1   2
BRANCH   1  19
ATOM     19  C   UNL     1       0.838   2.521  19.896  0.00  0.00    +0.000 C 
BRANCH  19  20
ATOM     20  O   UNL     1       1.805   1.878  19.062  0.00  0.00    +0.000 OA
BRANCH  20  21
ATOM     21  C   UNL     1       2.829   2.626  18.538  0.00  0.00    +0.000 A 
ATOM     22  C   UNL     1       2.605   3.013  17.208  0.00  0.00    +0.000 A 
ATOM     23  C   UNL     1       3.549   3.739  16.461  0.00  0.00    +0.000 A 
ATOM     24  C   UNL     1       4.777   4.099  17.021  0.00  0.00    +0.000 A 
ATOM     25  C   UNL     1       5.828   4.882  16.338  0.00  0.00    +0.000 A 
ATOM     26  C   UNL     1       6.960   5.153  17.012  0.00  0.00    +0.000 A 
ATOM     27  C   UNL     1       7.253   4.656  18.354  0.00  0.00    +0.000 A 
ATOM     28  O   UNL     1       8.340   4.854  18.880  0.00  0.00    +0.000 OA
ATOM     29  O   UNL     1       6.238   3.961  18.974  0.00  0.00    +0.000 OA
ATOM     30  C   UNL     1       4.997   3.678  18.344  0.00  0.00    +0.000 A 
ATOM     31  C   UNL     1       4.059   2.950  19.124  0.00  0.00    +0.000 A 
ATOM     32  C   UNL     1       4.439   2.551  20.522  0.00  0.00    +0.000 C 
BRANCH  25  33
ATOM     33  C   UNL     1       5.720   5.406  14.936  0.00  0.00    +0.000 C 
ATOM     34  F   UNL     1       4.996   6.540  14.791  0.00  0.00    +0.000 F 
ATOM     35  F   UNL     1       6.949   5.652  14.411  0.00  0.00    +0.000 F 
ATOM     36  F   UNL     1       5.137   4.486  14.120  0.00  0.00    +0.000 F 
ENDBRANCH  25  33
ENDBRANCH  20  21
ENDBRANCH  19  20
ENDBRANCH   1  19
TORSDOF 12
ENDMDL
MODEL 3
REMARK VINA RESULT:      -7.4      6.542     10.133
REMARK  Name = 
REMARK  15 active torsions:
REMARK  status: ('A' for Active; 'I' for Inactive)
REMARK    1  A    between atoms: C_1  and  C_2
REMARK    2  A    between atoms: C_2  and  C_3
REMARK    3  A    between atoms: C_3  and  C_4
REMARK    4  A    between atoms: C_3  and  C_5
REMARK    5  A    between atoms: C_3  and  C_33
REMARK    6  A    between atoms: C_5  and  C_6
REMARK    7  A    between atoms: C_9  and  O_10
REMARK    8  A    between atoms: O_10  and  C_11
REMARK    9  A    between atoms: C_11  and  C_12
REMARK   10  A    between atoms: C_12  and  C_13
REMARK   11  A    between atoms: C_13  and  O_14
REMARK   12  A    between atoms: O_14  and  C_15
REMARK   13  A    between atoms: C_19  and  C_20
REMARK   14  A    between atoms: C_29  and  C_30
REMARK   15  A    between atoms: C_33  and  O_35
REMARK                            x       y       z     vdW  Elec       q    Type
REMARK                         _______ _______ _______ _____ _____    ______ ____
ROOT
ATOM      1  C   UNL     1       8.634   9.690  17.822  0.00  0.00    +0.000 C 
ENDROOT
BRANCH   1   2
ATOM      2  C   UNL     1       7.480   8.686  17.717  0.00  0.00    +0.000 C 
BRANCH   2   3
ATOM      3  O   UNL     1       7.956   7.426  17.224  0.00  0.00    +0.000 OA
BRANCH   3   7
ATOM      4  C   UNL     1       4.815   4.675  16.757  0.00  0.00    +0.000 A 
ATOM      5  C   UNL     1       4.592   6.058  16.802  0.00  0.00    +0.000 A 
ATOM      6  C   UNL     1       5.667   6.952  16.926  0.00  0.00    +0.000 A 
ATOM      7  C   UNL     1       6.978   6.481  17.023  0.00  0.00    +0.000 A 
ATOM      8  C   UNL     1       7.210   5.112  16.895  0.00  0.00    +0.000 A 
ATOM      9  C   UNL     1       6.141   4.218  16.766  0.00  0.00    +0.000 A 
BRANCH   4  10
ATOM     10  C   UNL     1       3.668   3.687  16.845  0.00  0.00    +0.000 C 
BRANCH  10  11
ATOM     11  C   UNL     1       2.889   3.507  18.186  0.00  0.00    +0.000 C 
ATOM     12  C   UNL     1       1.479   4.115  18.049  0.00  0.00    +0.000 C 
BRANCH  11  14
ATOM     13  C   UNL     1       2.915   5.379  19.999  0.00  0.00    +0.000 C 
ATOM     14  C   UNL     1       3.603   4.157  19.396  0.00  0.00    +0.000 C 
ENDBRANCH  11  14
BRANCH  11  15
ATOM     15  C   UNL     1       2.748   1.989  18.410  0.00  0.00    +0.000 C 
ATOM     16  O   UNL     1       3.689   1.212  18.483  0.00  0.00    +0.000 OA
BRANCH  15  17
ATOM     17  O   UNL     1       1.478   1.542  18.536  0.00  0.00    +0.000 OA
ATOM     18  H   UNL     1       1.266   1.105  19.380  0.00  0.00    +0.000 HD
ENDBRANCH  15  17
ENDBRANCH  11  15
ENDBRANCH  10  11
ENDBRANCH   4  10
ENDBRANCH   3   7
ENDBRANCH   2   3
ENDBRANCH   1   2
BRANCH   1  19
ATOM     19  C   UNL     1       9.053   9.888  19.286  0.00  0.00    +0.000 C 
BRANCH  19  20
ATOM     20  O   UNL     1      10.198  10.740  19.352  0.00  0.00    +0.000 OA
BRANCH  20  21
ATOM     21  C   UNL     1      10.009  12.097  19.438  0.00  0.00    +0.000 A 
ATOM     22  C   UNL     1       9.277  12.481  20.571  0.00  0.00    +0.000 A 
ATOM     23  C   UNL     1       8.922  13.818  20.827  0.00  0.00    +0.000 A 
ATOM     24  C   UNL     1       9.281  14.833  19.938  0.00  0.00    +0.000 A 
ATOM     25  C   UNL     1       8.985  16.269  20.120  0.00  0.00    +0.000 A 
ATOM     26  C   UNL     1       9.401  17.131  19.174  0.00  0.00    +0.000 A 
ATOM     27  C   UNL     1      10.060  16.729  17.934  0.00  0.00    +0.000 A 
ATOM     28  O   UNL     1      10.328  17.549  17.065  0.00  0.00    +0.000 OA
ATOM     29  O   UNL     1      10.352  15.389  17.813  0.00  0.00    +0.000 OA
ATOM     30  C   UNL     1       9.988  14.427  18.793  0.00  0.00    +0.000 A 
ATOM     31  C   UNL     1      10.366  13.086  18.513  0.00  0.00    +0.000 A 
ATOM     32  C   UNL     1      11.107  12.797  17.238  0.00  0.00    +0.000 C 
BRANCH  25  33
ATOM     33  C   UNL     1       8.253  16.842  21.298  0.00  0.00    +0.000 C 
ATOM     34  F   UNL     1       7.005  16.359  21.501  0.00  0.00    +0.000 F 
ATOM     35  F   UNL     1       8.946  16.640  22.449  0.00  0.00    +0.000 F 
ATOM     36  F   UNL     1       8.113  18.190  21.171  0.00  0.00    +0.000 F 
ENDBRANCH  25  33
ENDBRANCH  20  21
ENDBRANCH  19  20
ENDBRANCH   1  19
TORSDOF 12
ENDMDL
MODEL 4
REMARK VINA RESULT:      -7.4      4.883     10.879
REMARK  Name = 
REMARK  15 active torsions:
REMARK  status: ('A' for Active; 'I' for Inactive)
REMARK    1  A    between atoms: C_1  and  C_2
REMARK    2  A    between atoms: C_2  and  C_3
REMARK    3  A    between atoms: C_3  and  C_4
REMARK    4  A    between atoms: C_3  and  C_5
REMARK    5  A    between atoms: C_3  and  C_33
REMARK    6  A    between atoms: C_5  and  C_6
REMARK    7  A    between atoms: C_9  and  O_10
REMARK    8  A    between atoms: O_10  and  C_11
REMARK    9  A    between atoms: C_11  and  C_12
REMARK   10  A    between atoms: C_12  and  C_13
REMARK   11  A    between atoms: C_13  and  O_14
REMARK   12  A    between atoms: O_14  and  C_15
REMARK   13  A    between atoms: C_19  and  C_20
REMARK   14  A    between atoms: C_29  and  C_30
REMARK   15  A    between atoms: C_33  and  O_35
REMARK                            x       y       z     vdW  Elec       q    Type
REMARK                         _______ _______ _______ _____ _____    ______ ____
ROOT
ATOM      1  C   UNL     1       0.025  10.420  22.102  0.00  0.00    +0.000 C 
ENDROOT
BRANCH   1   2
ATOM      2  C   UNL     1      -0.156   9.339  21.030  0.00  0.00    +0.000 C 
BRANCH   2   3
ATOM      3  O   UNL     1       0.621   9.655  19.866  0.00  0.00    +0.000 OA
BRANCH   3   7
ATOM      4  C   UNL     1       3.032   6.581  18.319  0.00  0.00    +0.000 A 
ATOM      5  C   UNL     1       2.689   7.710  17.562  0.00  0.00    +0.000 A 
ATOM      6  C   UNL     1       1.909   8.735  18.120  0.00  0.00    +0.000 A 
ATOM      7  C   UNL     1       1.445   8.644  19.433  0.00  0.00    +0.000 A 
ATOM      8  C   UNL     1       1.854   7.563  20.214  0.00  0.00    +0.000 A 
ATOM      9  C   UNL     1       2.636   6.541  19.663  0.00  0.00    +0.000 A 
BRANCH   4  10
ATOM     10  C   UNL     1       3.680   5.369  17.679  0.00  0.00    +0.000 C 
BRANCH  10  11
ATOM     11  C   UNL     1       5.193   5.398  17.297  0.00  0.00    +0.000 C 
ATOM     12  C   UNL     1       5.721   6.844  17.390  0.00  0.00    +0.000 C 
BRANCH  11  14
ATOM     13  C   UNL     1       6.942   4.732  15.483  0.00  0.00    +0.000 C 
ATOM     14  C   UNL     1       5.472   4.851  15.875  0.00  0.00    +0.000 C 
ENDBRANCH  11  14
BRANCH  11  15
ATOM     15  C   UNL     1       5.927   4.541  18.346  0.00  0.00    +0.000 C 
ATOM     16  O   UNL     1       6.940   4.889  18.935  0.00  0.00    +0.000 OA
BRANCH  15  17
ATOM     17  O   UNL     1       5.365   3.338  18.600  0.00  0.00    +0.000 OA
ATOM     18  H   UNL     1       5.946   2.566  18.479  0.00  0.00    +0.000 HD
ENDBRANCH  15  17
ENDBRANCH  11  15
ENDBRANCH  10  11
ENDBRANCH   4  10
ENDBRANCH   3   7
ENDBRANCH   2   3
ENDBRANCH   1   2
BRANCH   1  19
ATOM     19  C   UNL     1       0.264  11.792  21.458  0.00  0.00    +0.000 C 
BRANCH  19  20
ATOM     20  O   UNL     1      -0.744  12.712  21.883  0.00  0.00    +0.000 OA
BRANCH  20  21
ATOM     21  C   UNL     1      -2.025  12.550  21.419  0.00  0.00    +0.000 A 
ATOM     22  C   UNL     1      -2.097  12.446  20.021  0.00  0.00    +0.000 A 
ATOM     23  C   UNL     1      -3.316  12.328  19.332  0.00  0.00    +0.000 A 
ATOM     24  C   UNL     1      -4.529  12.324  20.024  0.00  0.00    +0.000 A 
ATOM     25  C   UNL     1      -5.863  12.179  19.404  0.00  0.00    +0.000 A 
ATOM     26  C   UNL     1      -6.943  12.191  20.206  0.00  0.00    +0.000 A 
ATOM     27  C   UNL     1      -6.889  12.417  21.648  0.00  0.00    +0.000 A 
ATOM     28  O   UNL     1      -7.912  12.514  22.313  0.00  0.00    +0.000 OA
ATOM     29  O   UNL     1      -5.630  12.512  22.197  0.00  0.00    +0.000 OA
ATOM     30  C   UNL     1      -4.442  12.459  21.420  0.00  0.00    +0.000 A 
ATOM     31  C   UNL     1      -3.224  12.572  22.143  0.00  0.00    +0.000 A 
ATOM     32  C   UNL     1      -3.284  12.728  23.637  0.00  0.00    +0.000 C 
BRANCH  25  33
ATOM     33  C   UNL     1      -6.102  12.013  17.932  0.00  0.00    +0.000 C 
ATOM     34  F   UNL     1      -5.700  13.046  17.155  0.00  0.00    +0.000 F 
ATOM     35  F   UNL     1      -5.482  10.900  17.460  0.00  0.00    +0.000 F 
ATOM     36  F   UNL     1      -7.428  11.848  17.673  0.00  0.00    +0.000 F 
ENDBRANCH  25  33
ENDBRANCH  20  21
ENDBRANCH  19  20
ENDBRANCH   1  19
TORSDOF 12
ENDMDL
MODEL 5
REMARK VINA RESULT:      -7.4      6.286      9.966
REMARK  Name = 
REMARK  15 active torsions:
REMARK  status: ('A' for Active; 'I' for Inactive)
REMARK    1  A    between atoms: C_1  and  C_2
REMARK    2  A    between atoms: C_2  and  C_3
REMARK    3  A    between atoms: C_3  and  C_4
REMARK    4  A    between atoms: C_3  and  C_5
REMARK    5  A    between atoms: C_3  and  C_33
REMARK    6  A    between atoms: C_5  and  C_6
REMARK    7  A    between atoms: C_9  and  O_10
REMARK    8  A    between atoms: O_10  and  C_11
REMARK    9  A    between atoms: C_11  and  C_12
REMARK   10  A    between atoms: C_12  and  C_13
REMARK   11  A    between atoms: C_13  and  O_14
REMARK   12  A    between atoms: O_14  and  C_15
REMARK   13  A    between atoms: C_19  and  C_20
REMARK   14  A    between atoms: C_29  and  C_30
REMARK   15  A    between atoms: C_33  and  O_35
REMARK                            x       y       z     vdW  Elec       q    Type
REMARK                         _______ _______ _______ _____ _____    ______ ____
ROOT
ATOM      1  C   UNL     1       8.452   8.690  17.485  0.00  0.00    +0.000 C 
ENDROOT
BRANCH   1   2
ATOM      2  C   UNL     1       7.221   7.806  17.711  0.00  0.00    +0.000 C 
BRANCH   2   3
ATOM      3  O   UNL     1       6.984   6.976  16.565  0.00  0.00    +0.000 OA
BRANCH   3   7
ATOM      4  C   UNL     1       3.728   4.398  17.197  0.00  0.00    +0.000 A 
ATOM      5  C   UNL     1       3.690   5.748  17.569  0.00  0.00    +0.000 A 
ATOM      6  C   UNL     1       4.783   6.591  17.314  0.00  0.00    +0.000 A 
ATOM      7  C   UNL     1       5.935   6.097  16.699  0.00  0.00    +0.000 A 
ATOM      8  C   UNL     1       5.943   4.776  16.253  0.00  0.00    +0.000 A 
ATOM      9  C   UNL     1       4.854   3.934  16.502  0.00  0.00    +0.000 A 
BRANCH   4  10
ATOM     10  C   UNL     1       2.660   3.423  17.654  0.00  0.00    +0.000 C 
BRANCH  10  11
ATOM     11  C   UNL     1       2.674   2.873  19.115  0.00  0.00    +0.000 C 
ATOM     12  C   UNL     1       1.468   1.934  19.324  0.00  0.00    +0.000 C 
BRANCH  11  14
ATOM     13  C   UNL     1       1.248   4.499  20.570  0.00  0.00    +0.000 C 
ATOM     14  C   UNL     1       2.635   3.990  20.187  0.00  0.00    +0.000 C 
ENDBRANCH  11  14
BRANCH  11  15
ATOM     15  C   UNL     1       3.967   2.047  19.260  0.00  0.00    +0.000 C 
ATOM     16  O   UNL     1       4.885   2.331  20.017  0.00  0.00    +0.000 OA
BRANCH  15  17
ATOM     17  O   UNL     1       4.035   0.943  18.484  0.00  0.00    +0.000 OA
ATOM     18  H   UNL     1       4.917   0.725  18.135  0.00  0.00    +0.000 HD
ENDBRANCH  15  17
ENDBRANCH  11  15
ENDBRANCH  10  11
ENDBRANCH   4  10
ENDBRANCH   3   7
ENDBRANCH   2   3
ENDBRANCH   1   2
BRANCH   1  19
ATOM     19  C   UNL     1       8.484   9.848  18.493  0.00  0.00    +0.000 C 
BRANCH  19  20
ATOM     20  O   UNL     1       9.604  10.695  18.224  0.00  0.00    +0.000 OA
BRANCH  20  21
ATOM     21  C   UNL     1       9.568  11.996  18.659  0.00  0.00    +0.000 A 
ATOM     22  C   UNL     1      10.420  12.237  19.748  0.00  0.00    +0.000 A 
ATOM     23  C   UNL     1      10.500  13.488  20.385  0.00  0.00    +0.000 A 
ATOM     24  C   UNL     1       9.708  14.557  19.959  0.00  0.00    +0.000 A 
ATOM     25  C   UNL     1       9.731  15.917  20.537  0.00  0.00    +0.000 A 
ATOM     26  C   UNL     1       8.909  16.845  20.015  0.00  0.00    +0.000 A 
ATOM     27  C   UNL     1       7.934  16.575  18.961  0.00  0.00    +0.000 A 
ATOM     28  O   UNL     1       7.144  17.435  18.593  0.00  0.00    +0.000 OA
ATOM     29  O   UNL     1       7.965  15.308  18.422  0.00  0.00    +0.000 OA
ATOM     30  C   UNL     1       8.839  14.291  18.887  0.00  0.00    +0.000 A 
ATOM     31  C   UNL     1       8.743  13.039  18.220  0.00  0.00    +0.000 A 
ATOM     32  C   UNL     1       7.754  12.895  17.099  0.00  0.00    +0.000 C 
BRANCH  25  33
ATOM     33  C   UNL     1      10.616  16.343  21.670  0.00  0.00    +0.000 C 
ATOM     34  F   UNL     1      11.946  16.284  21.426  0.00  0.00    +0.000 F 
ATOM     35  F   UNL     1      10.342  17.618  22.052  0.00  0.00    +0.000 F 
ATOM     36  F   UNL     1      10.405  15.566  22.768  0.00  0.00    +0.000 F 
ENDBRANCH  25  33
ENDBRANCH  20  21
ENDBRANCH  19  20
ENDBRANCH   1  19
TORSDOF 12
ENDMDL
MODEL 6
REMARK VINA RESULT:      -7.3      5.033     10.600
REMARK  Name = 
REMARK  15 active torsions:
REMARK  status: ('A' for Active; 'I' for Inactive)
REMARK    1  A    between atoms: C_1  and  C_2
REMARK    2  A    between atoms: C_2  and  C_3
REMARK    3  A    between atoms: C_3  and  C_4
REMARK    4  A    between atoms: C_3  and  C_5
REMARK    5  A    between atoms: C_3  and  C_33
REMARK    6  A    between atoms: C_5  and  C_6
REMARK    7  A    between atoms: C_9  and  O_10
REMARK    8  A    between atoms: O_10  and  C_11
REMARK    9  A    between atoms: C_11  and  C_12
REMARK   10  A    between atoms: C_12  and  C_13
REMARK   11  A    between atoms: C_13  and  O_14
REMARK   12  A    between atoms: O_14  and  C_15
REMARK   13  A    between atoms: C_19  and  C_20
REMARK   14  A    between atoms: C_29  and  C_30
REMARK   15  A    between atoms: C_33  and  O_35
REMARK                            x       y       z     vdW  Elec       q    Type
REMARK                         _______ _______ _______ _____ _____    ______ ____
ROOT
ATOM      1  C   UNL     1       1.624   8.329  21.603  0.00  0.00    +0.000 C 
ENDROOT
BRANCH   1   2
ATOM      2  C   UNL     1       1.635   7.690  20.210  0.00  0.00    +0.000 C 
BRANCH   2   3
ATOM      3  O   UNL     1       1.528   6.262  20.313  0.00  0.00    +0.000 OA
BRANCH   3   7
ATOM      4  C   UNL     1       4.199   4.299  17.732  0.00  0.00    +0.000 A 
ATOM      5  C   UNL     1       4.630   4.935  18.904  0.00  0.00    +0.000 A 
ATOM      6  C   UNL     1       3.707   5.553  19.762  0.00  0.00    +0.000 A 
ATOM      7  C   UNL     1       2.345   5.562  19.457  0.00  0.00    +0.000 A 
ATOM      8  C   UNL     1       1.905   4.860  18.335  0.00  0.00    +0.000 A 
ATOM      9  C   UNL     1       2.821   4.238  17.480  0.00  0.00    +0.000 A 
BRANCH   4  10
ATOM     10  C   UNL     1       5.186   3.820  16.685  0.00  0.00    +0.000 C 
BRANCH  10  11
ATOM     11  C   UNL     1       5.917   4.849  15.766  0.00  0.00    +0.000 C 
ATOM     12  C   UNL     1       5.071   6.134  15.656  0.00  0.00    +0.000 C 
BRANCH  11  14
ATOM     13  C   UNL     1       7.344   4.967  13.589  0.00  0.00    +0.000 C 
ATOM     14  C   UNL     1       6.195   4.305  14.344  0.00  0.00    +0.000 C 
ENDBRANCH  11  14
BRANCH  11  15
ATOM     15  C   UNL     1       7.245   5.196  16.467  0.00  0.00    +0.000 C 
ATOM     16  O   UNL     1       7.677   6.332  16.602  0.00  0.00    +0.000 OA
BRANCH  15  17
ATOM     17  O   UNL     1       7.932   4.139  16.954  0.00  0.00    +0.000 OA
ATOM     18  H   UNL     1       8.724   3.881  16.449  0.00  0.00    +0.000 HD
ENDBRANCH  15  17
ENDBRANCH  11  15
ENDBRANCH  10  11
ENDBRANCH   4  10
ENDBRANCH   3   7
ENDBRANCH   2   3
ENDBRANCH   1   2
BRANCH   1  19
ATOM     19  C   UNL     1       1.481   9.854  21.502  0.00  0.00    +0.000 C 
BRANCH  19  20
ATOM     20  O   UNL     1       0.469  10.185  20.547  0.00  0.00    +0.000 OA
BRANCH  20  21
ATOM     21  C   UNL     1      -0.596  10.949  20.951  0.00  0.00    +0.000 A 
ATOM     22  C   UNL     1      -0.749  10.989  22.346  0.00  0.00    +0.000 A 
ATOM     23  C   UNL     1      -1.808  11.670  22.973  0.00  0.00    +0.000 A 
ATOM     24  C   UNL     1      -2.775  12.335  22.217  0.00  0.00    +0.000 A 
ATOM     25  C   UNL     1      -3.911  13.102  22.770  0.00  0.00    +0.000 A 
ATOM     26  C   UNL     1      -4.761  13.692  21.911  0.00  0.00    +0.000 A 
ATOM     27  C   UNL     1      -4.679  13.559  20.458  0.00  0.00    +0.000 A 
ATOM     28  O   UNL     1      -5.538  14.039  19.729  0.00  0.00    +0.000 OA
ATOM     29  O   UNL     1      -3.590  12.869  19.976  0.00  0.00    +0.000 OA
ATOM     30  C   UNL     1      -2.624  12.260  20.821  0.00  0.00    +0.000 A 
ATOM     31  C   UNL     1      -1.561  11.586  20.161  0.00  0.00    +0.000 A 
ATOM     32  C   UNL     1      -1.538  11.575  18.659  0.00  0.00    +0.000 C 
BRANCH  25  33
ATOM     33  C   UNL     1      -4.184  13.276  24.235  0.00  0.00    +0.000 C 
ATOM     34  F   UNL     1      -4.413  12.134  24.926  0.00  0.00    +0.000 F 
ATOM     35  F   UNL     1      -3.152  13.909  24.852  0.00  0.00    +0.000 F 
ATOM     36  F   UNL     1      -5.281  14.057  24.434  0.00  0.00    +0.000 F 
ENDBRANCH  25  33
ENDBRANCH  20  21
ENDBRANCH  19  20
ENDBRANCH   1  19
TORSDOF 12
ENDMDL
MODEL 7
REMARK VINA RESULT:      -7.3      3.546      8.629
REMARK  Name = 
REMARK  15 active torsions:
REMARK  status: ('A' for Active; 'I' for Inactive)
REMARK    1  A    between atoms: C_1  and  C_2
REMARK    2  A    between atoms: C_2  and  C_3
REMARK    3  A    between atoms: C_3  and  C_4
REMARK    4  A    between atoms: C_3  and  C_5
REMARK    5  A    between atoms: C_3  and  C_33
REMARK    6  A    between atoms: C_5  and  C_6
REMARK    7  A    between atoms: C_9  and  O_10
REMARK    8  A    between atoms: O_10  and  C_11
REMARK    9  A    between atoms: C_11  and  C_12
REMARK   10  A    between atoms: C_12  and  C_13
REMARK   11  A    between atoms: C_13  and  O_14
REMARK   12  A    between atoms: O_14  and  C_15
REMARK   13  A    between atoms: C_19  and  C_20
REMARK   14  A    between atoms: C_29  and  C_30
REMARK   15  A    between atoms: C_33  and  O_35
REMARK                            x       y       z     vdW  Elec       q    Type
REMARK                         _______ _______ _______ _____ _____    ______ ____
ROOT
ATOM      1  C   UNL     1       1.673   5.955  19.510  0.00  0.00    +0.000 C 
ENDROOT
BRANCH   1   2
ATOM      2  C   UNL     1       1.096   4.896  20.456  0.00  0.00    +0.000 C 
BRANCH   2   3
ATOM      3  O   UNL     1       1.931   3.729  20.471  0.00  0.00    +0.000 OA
BRANCH   3   7
ATOM      4  C   UNL     1       4.545   3.449  17.194  0.00  0.00    +0.000 A 
ATOM      5  C   UNL     1       5.013   3.548  18.512  0.00  0.00    +0.000 A 
ATOM      6  C   UNL     1       4.112   3.607  19.587  0.00  0.00    +0.000 A 
ATOM      7  C   UNL     1       2.734   3.584  19.365  0.00  0.00    +0.000 A 
ATOM      8  C   UNL     1       2.268   3.402  18.063  0.00  0.00    +0.000 A 
ATOM      9  C   UNL     1       3.163   3.338  16.989  0.00  0.00    +0.000 A 
BRANCH   4  10
ATOM     10  C   UNL     1       5.481   3.605  16.011  0.00  0.00    +0.000 C 
BRANCH  10  11
ATOM     11  C   UNL     1       6.166   4.979  15.728  0.00  0.00    +0.000 C 
ATOM     12  C   UNL     1       7.227   5.258  16.812  0.00  0.00    +0.000 C 
BRANCH  11  14
ATOM     13  C   UNL     1       5.005   6.945  16.984  0.00  0.00    +0.000 C 
ATOM     14  C   UNL     1       5.166   6.160  15.685  0.00  0.00    +0.000 C 
ENDBRANCH  11  14
BRANCH  11  15
ATOM     15  C   UNL     1       6.879   4.841  14.369  0.00  0.00    +0.000 C 
ATOM     16  O   UNL     1       6.505   4.108  13.465  0.00  0.00    +0.000 OA
BRANCH  15  17
ATOM     17  O   UNL     1       7.980   5.611  14.216  0.00  0.00    +0.000 OA
ATOM     18  H   UNL     1       8.495   5.455  13.405  0.00  0.00    +0.000 HD
ENDBRANCH  15  17
ENDBRANCH  11  15
ENDBRANCH  10  11
ENDBRANCH   4  10
ENDBRANCH   3   7
ENDBRANCH   2   3
ENDBRANCH   1   2
BRANCH   1  19
ATOM     19  C   UNL     1       2.147   7.186  20.295  0.00  0.00    +0.000 C 
BRANCH  19  20
ATOM     20  O   UNL     1       1.077   7.695  21.094  0.00  0.00    +0.000 OA
BRANCH  20  21
ATOM     21  C   UNL     1       0.714   9.011  20.953  0.00  0.00    +0.000 A 
ATOM     22  C   UNL     1       0.944   9.511  19.662  0.00  0.00    +0.000 A 
ATOM     23  C   UNL     1       0.694  10.849  19.313  0.00  0.00    +0.000 A 
ATOM     24  C   UNL     1       0.211  11.755  20.259  0.00  0.00    +0.000 A 
ATOM     25  C   UNL     1      -0.111  13.173  19.995  0.00  0.00    +0.000 A 
ATOM     26  C   UNL     1      -0.572  13.922  21.013  0.00  0.00    +0.000 A 
ATOM     27  C   UNL     1      -0.704  13.445  22.387  0.00  0.00    +0.000 A 
ATOM     28  O   UNL     1      -1.037  14.200  23.291  0.00  0.00    +0.000 OA
ATOM     29  O   UNL     1      -0.430  12.110  22.590  0.00  0.00    +0.000 OA
ATOM     30  C   UNL     1       0.015  11.246  21.555  0.00  0.00    +0.000 A 
ATOM     31  C   UNL     1       0.252   9.897  21.934  0.00  0.00    +0.000 A 
ATOM     32  C   UNL     1       0.013   9.498  23.363  0.00  0.00    +0.000 C 
BRANCH  25  33
ATOM     33  C   UNL     1       0.037  13.843  18.661  0.00  0.00    +0.000 C 
ATOM     34  F   UNL     1       1.282  13.817  18.129  0.00  0.00    +0.000 F 
ATOM     35  F   UNL     1      -0.796  13.288  17.741  0.00  0.00    +0.000 F 
ATOM     36  F   UNL     1      -0.306  15.158  18.738  0.00  0.00    +0.000 F 
ENDBRANCH  25  33
ENDBRANCH  20  21
ENDBRANCH  19  20
ENDBRANCH   1  19
TORSDOF 12
ENDMDL
MODEL 8
REMARK VINA RESULT:      -7.2      3.758      8.572
REMARK  Name = 
REMARK  15 active torsions:
REMARK  status: ('A' for Active; 'I' for Inactive)
REMARK    1  A    between atoms: C_1  and  C_2
REMARK    2  A    between atoms: C_2  and  C_3
REMARK    3  A    between atoms: C_3  and  C_4
REMARK    4  A    between atoms: C_3  and  C_5
REMARK    5  A    between atoms: C_3  and  C_33
REMARK    6  A    between atoms: C_5  and  C_6
REMARK    7  A    between atoms: C_9  and  O_10
REMARK    8  A    between atoms: O_10  and  C_11
REMARK    9  A    between atoms: C_11  and  C_12
REMARK   10  A    between atoms: C_12  and  C_13
REMARK   11  A    between atoms: C_13  and  O_14
REMARK   12  A    between atoms: O_14  and  C_15
REMARK   13  A    between atoms: C_19  and  C_20
REMARK   14  A    between atoms: C_29  and  C_30
REMARK   15  A    between atoms: C_33  and  O_35
REMARK                            x       y       z     vdW  Elec       q    Type
REMARK                         _______ _______ _______ _____ _____    ______ ____
ROOT
ATOM      1  C   UNL     1       0.977   5.116  20.613  0.00  0.00    +0.000 C 
ENDROOT
BRANCH   1   2
ATOM      2  C   UNL     1       1.787   3.993  21.271  0.00  0.00    +0.000 C 
BRANCH   2   3
ATOM      3  O   UNL     1       1.757   2.812  20.457  0.00  0.00    +0.000 OA
BRANCH   3   7
ATOM      4  C   UNL     1       4.592   3.010  17.363  0.00  0.00    +0.000 A 
ATOM      5  C   UNL     1       4.944   3.196  18.707  0.00  0.00    +0.000 A 
ATOM      6  C   UNL     1       3.978   3.090  19.720  0.00  0.00    +0.000 A 
ATOM      7  C   UNL     1       2.645   2.815  19.408  0.00  0.00    +0.000 A 
ATOM      8  C   UNL     1       2.309   2.548  18.081  0.00  0.00    +0.000 A 
ATOM      9  C   UNL     1       3.270   2.648  17.069  0.00  0.00    +0.000 A 
BRANCH   4  10
ATOM     10  C   UNL     1       5.561   3.334  16.242  0.00  0.00    +0.000 C 
BRANCH  10  11
ATOM     11  C   UNL     1       5.811   4.817  15.824  0.00  0.00    +0.000 C 
ATOM     12  C   UNL     1       4.775   5.728  16.513  0.00  0.00    +0.000 C 
BRANCH  11  14
ATOM     13  C   UNL     1       6.237   3.884  13.428  0.00  0.00    +0.000 C 
ATOM     14  C   UNL     1       5.740   5.039  14.294  0.00  0.00    +0.000 C 
ENDBRANCH  11  14
BRANCH  11  15
ATOM     15  C   UNL     1       7.213   5.188  16.346  0.00  0.00    +0.000 C 
ATOM     16  O   UNL     1       7.981   4.401  16.881  0.00  0.00    +0.000 OA
BRANCH  15  17
ATOM     17  O   UNL     1       7.570   6.479  16.167  0.00  0.00    +0.000 OA
ATOM     18  H   UNL     1       7.206   6.912  15.375  0.00  0.00    +0.000 HD
ENDBRANCH  15  17
ENDBRANCH  11  15
ENDBRANCH  10  11
ENDBRANCH   4  10
ENDBRANCH   3   7
ENDBRANCH   2   3
ENDBRANCH   1   2
BRANCH   1  19
ATOM     19  C   UNL     1       1.816   5.847  19.556  0.00  0.00    +0.000 C 
BRANCH  19  20
ATOM     20  O   UNL     1       2.441   6.993  20.139  0.00  0.00    +0.000 OA
BRANCH  20  21
ATOM     21  C   UNL     1       1.714   8.150  20.265  0.00  0.00    +0.000 A 
ATOM     22  C   UNL     1       1.191   8.335  21.554  0.00  0.00    +0.000 A 
ATOM     23  C   UNL     1       0.371   9.426  21.890  0.00  0.00    +0.000 A 
ATOM     24  C   UNL     1       0.027  10.382  20.931  0.00  0.00    +0.000 A 
ATOM     25  C   UNL     1      -0.803  11.579  21.179  0.00  0.00    +0.000 A 
ATOM     26  C   UNL     1      -1.045  12.411  20.151  0.00  0.00    +0.000 A 
ATOM     27  C   UNL     1      -0.605  12.168  18.779  0.00  0.00    +0.000 A 
ATOM     28  O   UNL     1      -0.938  12.911  17.866  0.00  0.00    +0.000 OA
ATOM     29  O   UNL     1       0.196  11.064  18.591  0.00  0.00    +0.000 OA
ATOM     30  C   UNL     1       0.535  10.166  19.638  0.00  0.00    +0.000 A 
ATOM     31  C   UNL     1       1.371   9.076  19.272  0.00  0.00    +0.000 A 
ATOM     32  C   UNL     1       1.826   8.964  17.845  0.00  0.00    +0.000 C 
BRANCH  25  33
ATOM     33  C   UNL     1      -1.396  11.938  22.509  0.00  0.00    +0.000 C 
ATOM     34  F   UNL     1      -0.968  11.198  23.559  0.00  0.00    +0.000 F 
ATOM     35  F   UNL     1      -1.150  13.239  22.818  0.00  0.00    +0.000 F 
ATOM     36  F   UNL     1      -2.751  11.804  22.488  0.00  0.00    +0.000 F 
ENDBRANCH  25  33
ENDBRANCH  20  21
ENDBRANCH  19  20
ENDBRANCH   1  19
TORSDOF 12
ENDMDL
MODEL 9
REMARK VINA RESULT:      -7.2      6.655     10.132
REMARK  Name = 
REMARK  15 active torsions:
REMARK  status: ('A' for Active; 'I' for Inactive)
REMARK    1  A    between atoms: C_1  and  C_2
REMARK    2  A    between atoms: C_2  and  C_3
REMARK    3  A    between atoms: C_3  and  C_4
REMARK    4  A    between atoms: C_3  and  C_5
REMARK    5  A    between atoms: C_3  and  C_33
REMARK    6  A    between atoms: C_5  and  C_6
REMARK    7  A    between atoms: C_9  and  O_10
REMARK    8  A    between atoms: O_10  and  C_11
REMARK    9  A    between atoms: C_11  and  C_12
REMARK   10  A    between atoms: C_12  and  C_13
REMARK   11  A    between atoms: C_13  and  O_14
REMARK   12  A    between atoms: O_14  and  C_15
REMARK   13  A    between atoms: C_19  and  C_20
REMARK   14  A    between atoms: C_29  and  C_30
REMARK   15  A    between atoms: C_33  and  O_35
REMARK                            x       y       z     vdW  Elec       q    Type
REMARK                         _______ _______ _______ _____ _____    ______ ____
ROOT
ATOM      1  C   UNL     1       8.423  10.453  17.995  0.00  0.00    +0.000 C 
ENDROOT
BRANCH   1   2
ATOM      2  C   UNL     1       8.622   8.955  18.253  0.00  0.00    +0.000 C 
BRANCH   2   3
ATOM      3  O   UNL     1       7.999   8.181  17.218  0.00  0.00    +0.000 OA
BRANCH   3   7
ATOM      4  C   UNL     1       5.150   5.410  18.580  0.00  0.00    +0.000 A 
ATOM      5  C   UNL     1       4.852   6.358  17.592  0.00  0.00    +0.000 A 
ATOM      6  C   UNL     1       5.836   7.249  17.135  0.00  0.00    +0.000 A 
ATOM      7  C   UNL     1       7.127   7.219  17.668  0.00  0.00    +0.000 A 
ATOM      8  C   UNL     1       7.448   6.223  18.590  0.00  0.00    +0.000 A 
ATOM      9  C   UNL     1       6.471   5.330  19.044  0.00  0.00    +0.000 A 
BRANCH   4  10
ATOM     10  C   UNL     1       4.059   4.591  19.243  0.00  0.00    +0.000 C 
BRANCH  10  11
ATOM     11  C   UNL     1       3.343   3.452  18.452  0.00  0.00    +0.000 C 
ATOM     12  C   UNL     1       3.675   3.577  16.952  0.00  0.00    +0.000 C 
BRANCH  11  14
ATOM     13  C   UNL     1       1.298   3.331  20.064  0.00  0.00    +0.000 C 
ATOM     14  C   UNL     1       1.805   3.462  18.630  0.00  0.00    +0.000 C 
ENDBRANCH  11  14
BRANCH  11  15
ATOM     15  C   UNL     1       3.925   2.124  18.974  0.00  0.00    +0.000 C 
ATOM     16  O   UNL     1       3.571   1.018  18.592  0.00  0.00    +0.000 OA
BRANCH  15  17
ATOM     17  O   UNL     1       4.895   2.248  19.907  0.00  0.00    +0.000 OA
ATOM     18  H   UNL     1       5.226   1.415  20.286  0.00  0.00    +0.000 HD
ENDBRANCH  15  17
ENDBRANCH  11  15
ENDBRANCH  10  11
ENDBRANCH   4  10
ENDBRANCH   3   7
ENDBRANCH   2   3
ENDBRANCH   1   2
BRANCH   1  19
ATOM     19  C   UNL     1       9.763  11.198  18.049  0.00  0.00    +0.000 C 
BRANCH  19  20
ATOM     20  O   UNL     1      10.373  11.010  19.328  0.00  0.00    +0.000 OA
BRANCH  20  21
ATOM     21  C   UNL     1      10.086  11.897  20.335  0.00  0.00    +0.000 A 
ATOM     22  C   UNL     1       9.080  11.440  21.202  0.00  0.00    +0.000 A 
ATOM     23  C   UNL     1       8.593  12.213  22.270  0.00  0.00    +0.000 A 
ATOM     24  C   UNL     1       9.091  13.496  22.508  0.00  0.00    +0.000 A 
ATOM     25  C   UNL     1       8.671  14.382  23.614  0.00  0.00    +0.000 A 
ATOM     26  C   UNL     1       9.246  15.594  23.713  0.00  0.00    +0.000 A 
ATOM     27  C   UNL     1      10.206  16.126  22.750  0.00  0.00    +0.000 A 
ATOM     28  O   UNL     1      10.623  17.273  22.838  0.00  0.00    +0.000 OA
ATOM     29  O   UNL     1      10.601  15.262  21.753  0.00  0.00    +0.000 OA
ATOM     30  C   UNL     1      10.075  13.950  21.612  0.00  0.00    +0.000 A 
ATOM     31  C   UNL     1      10.591  13.189  20.529  0.00  0.00    +0.000 A 
ATOM     32  C   UNL     1      11.632  13.811  19.642  0.00  0.00    +0.000 C 
BRANCH  25  33
ATOM     33  C   UNL     1       7.644  14.021  24.646  0.00  0.00    +0.000 C 
ATOM     34  F   UNL     1       6.421  13.698  24.166  0.00  0.00    +0.000 F 
ATOM     35  F   UNL     1       8.061  12.972  25.404  0.00  0.00    +0.000 F 
ATOM     36  F   UNL     1       7.442  15.055  25.509  0.00  0.00    +0.000 F 
ENDBRANCH  25  33
ENDBRANCH  20  21
ENDBRANCH  19  20
ENDBRANCH   1  19
TORSDOF 12
ENDMDL
