MODEL 1
REMARK VINA RESULT:      -6.1      0.000      0.000
REMARK  Name = 
REMARK  11 active torsions:
REMARK  status: ('A' for Active; 'I' for Inactive)
REMARK    1  A    between atoms: C_1  and  C_2
REMARK    2  A    between atoms: C_2  and  CA_3
REMARK    3  A    between atoms: CA_3  and  C_4
REMARK    4  A    between atoms: CA_3  and  N_6
REMARK    5  A    between atoms: C_4  and  O_5
REMARK    6  A    between atoms: N_6  and  C_7
REMARK    7  A    between atoms: C_7  and  C_8
REMARK    8  A    between atoms: C_13  and  O_14
REMARK    9  A    between atoms: O_14  and  C_15
REMARK   10  A    between atoms: C_15  and  C_16
REMARK   11  A    between atoms: C_15  and  C_17
REMARK                            x       y       z     vdW  Elec       q    Type
REMARK                         _______ _______ _______ _____ _____    ______ ____
ROOT
ATOM      1  C   UNL     1       4.112   3.949  18.686  0.00  0.00    +0.000 A 
ATOM      2  C   UNL     1       3.973   2.579  19.004  0.00  0.00    +0.000 A 
ATOM      3  C   UNL     1       2.780   1.900  18.771  0.00  0.00    +0.000 A 
ATOM      4  C   UNL     1       1.694   2.572  18.234  0.00  0.00    +0.000 A 
ATOM      5  C   UNL     1       1.789   3.923  17.925  0.00  0.00    +0.000 A 
ATOM      6  C   UNL     1       2.994   4.646  18.132  0.00  0.00    +0.000 A 
ENDROOT
BRANCH   1   7
ATOM      7  C   UNL     1       5.454   4.611  18.979  0.00  0.00    +0.000 C 
BRANCH   7   8
ATOM      8  N   UNL     1       6.544   4.015  18.169  0.00  0.00    +0.000 NA
ATOM      9  H   UNL     1       7.340   3.825  18.811  0.00  0.00    +0.000 HD
BRANCH   8  10
ATOM     10  CA  UNL     1       7.070   4.907  17.106  0.00  0.00    +0.000 C 
BRANCH  10  12
ATOM     11  C   UNL     1       6.743   4.562  14.543  0.00  0.00    +0.000 C 
ATOM     12  C   UNL     1       6.100   4.923  15.886  0.00  0.00    +0.000 C 
ENDBRANCH  10  12
BRANCH  10  13
ATOM     13  C   UNL     1       7.237   6.356  17.623  0.00  0.00    +0.000 C 
BRANCH  13  14
ATOM     14  O   UNL     1       7.753   7.201  16.627  0.00  0.00    +0.000 OA
ATOM     15  H   UNL     1       8.351   6.646  16.061  0.00  0.00    +0.000 HD
ENDBRANCH  13  14
ENDBRANCH  10  13
ENDBRANCH   8  10
ENDBRANCH   7   8
ENDBRANCH   1   7
BRANCH   6  16
ATOM     16  O   UNL     1       3.081   5.973  17.792  0.00  0.00    +0.000 OA
BRANCH  16  17
ATOM     17  C   UNL     1       2.270   6.996  18.294  0.00  0.00    +0.000 C 
ATOM     18  C   UNL     1       2.310   7.017  19.829  0.00  0.00    +0.000 C 
ATOM     19  C   UNL     1       2.693   8.357  17.740  0.00  0.00    +0.000 C 
ENDBRANCH  16  17
ENDBRANCH   6  16
TORSDOF 8
ENDMDL
MODEL 2
REMARK VINA RESULT:      -6.1      1.695      3.403
REMARK  Name = 
REMARK  11 active torsions:
REMARK  status: ('A' for Active; 'I' for Inactive)
REMARK    1  A    between atoms: C_1  and  C_2
REMARK    2  A    between atoms: C_2  and  CA_3
REMARK    3  A    between atoms: CA_3  and  C_4
REMARK    4  A    between atoms: CA_3  and  N_6
REMARK    5  A    between atoms: C_4  and  O_5
REMARK    6  A    between atoms: N_6  and  C_7
REMARK    7  A    between atoms: C_7  and  C_8
REMARK    8  A    between atoms: C_13  and  O_14
REMARK    9  A    between atoms: O_14  and  C_15
REMARK   10  A    between atoms: C_15  and  C_16
REMARK   11  A    between atoms: C_15  and  C_17
REMARK                            x       y       z     vdW  Elec       q    Type
REMARK                         _______ _______ _______ _____ _____    ______ ____
ROOT
ATOM      1  C   UNL     1       3.687   4.865  18.099  0.00  0.00    +0.000 A 
ATOM      2  C   UNL     1       3.619   6.162  17.544  0.00  0.00    +0.000 A 
ATOM      3  C   UNL     1       2.982   7.203  18.214  0.00  0.00    +0.000 A 
ATOM      4  C   UNL     1       2.383   6.972  19.442  0.00  0.00    +0.000 A 
ATOM      5  C   UNL     1       2.416   5.705  20.010  0.00  0.00    +0.000 A 
ATOM      6  C   UNL     1       3.071   4.622  19.365  0.00  0.00    +0.000 A 
ENDROOT
BRANCH   1   7
ATOM      7  C   UNL     1       4.402   3.786  17.291  0.00  0.00    +0.000 C 
BRANCH   7   8
ATOM      8  N   UNL     1       4.858   4.302  15.978  0.00  0.00    +0.000 NA
ATOM      9  H   UNL     1       4.289   3.833  15.245  0.00  0.00    +0.000 HD
BRANCH   8  10
ATOM     10  CA  UNL     1       6.277   3.997  15.664  0.00  0.00    +0.000 C 
BRANCH  10  12
ATOM     11  C   UNL     1       5.984   3.628  13.100  0.00  0.00    +0.000 C 
ATOM     12  C   UNL     1       6.621   4.462  14.216  0.00  0.00    +0.000 C 
ENDBRANCH  10  12
BRANCH  10  13
ATOM     13  C   UNL     1       7.234   4.705  16.652  0.00  0.00    +0.000 C 
BRANCH  13  14
ATOM     14  O   UNL     1       7.412   6.057  16.314  0.00  0.00    +0.000 OA
ATOM     15  H   UNL     1       8.203   6.378  16.822  0.00  0.00    +0.000 HD
ENDBRANCH  13  14
ENDBRANCH  10  13
ENDBRANCH   8  10
ENDBRANCH   7   8
ENDBRANCH   1   7
BRANCH   6  16
ATOM     16  O   UNL     1       3.122   3.384  19.955  0.00  0.00    +0.000 OA
BRANCH  16  17
ATOM     17  C   UNL     1       2.039   2.511  20.106  0.00  0.00    +0.000 C 
ATOM     18  C   UNL     1       1.384   2.691  21.483  0.00  0.00    +0.000 C 
ATOM     19  C   UNL     1       1.004   2.722  19.000  0.00  0.00    +0.000 C 
ENDBRANCH  16  17
ENDBRANCH   6  16
TORSDOF 8
ENDMDL
MODEL 3
REMARK VINA RESULT:      -6.1      1.107      1.107
REMARK  Name = 
REMARK  11 active torsions:
REMARK  status: ('A' for Active; 'I' for Inactive)
REMARK    1  A    between atoms: C_1  and  C_2
REMARK    2  A    between atoms: C_2  and  CA_3
REMARK    3  A    between atoms: CA_3  and  C_4
REMARK    4  A    between atoms: CA_3  and  N_6
REMARK    5  A    between atoms: C_4  and  O_5
REMARK    6  A    between atoms: N_6  and  C_7
REMARK    7  A    between atoms: C_7  and  C_8
REMARK    8  A    between atoms: C_13  and  O_14
REMARK    9  A    between atoms: O_14  and  C_15
REMARK   10  A    between atoms: C_15  and  C_16
REMARK   11  A    between atoms: C_15  and  C_17
REMARK                            x       y       z     vdW  Elec       q    Type
REMARK                         _______ _______ _______ _____ _____    ______ ____
ROOT
ATOM      1  C   UNL     1       3.766   4.081  18.902  0.00  0.00    +0.000 A 
ATOM      2  C   UNL     1       3.577   2.728  19.267  0.00  0.00    +0.000 A 
ATOM      3  C   UNL     1       2.387   2.063  18.986  0.00  0.00    +0.000 A 
ATOM      4  C   UNL     1       1.352   2.733  18.353  0.00  0.00    +0.000 A 
ATOM      5  C   UNL     1       1.496   4.067  17.995  0.00  0.00    +0.000 A 
ATOM      6  C   UNL     1       2.701   4.775  18.249  0.00  0.00    +0.000 A 
ENDROOT
BRANCH   1   7
ATOM      7  C   UNL     1       5.101   4.728  19.254  0.00  0.00    +0.000 C 
BRANCH   7   8
ATOM      8  N   UNL     1       6.242   3.958  18.704  0.00  0.00    +0.000 NA
ATOM      9  H   UNL     1       6.771   3.567  19.510  0.00  0.00    +0.000 HD
BRANCH   8  10
ATOM     10  CA  UNL     1       7.210   4.773  17.928  0.00  0.00    +0.000 C 
BRANCH  10  12
ATOM     11  C   UNL     1       7.002   4.848  15.330  0.00  0.00    +0.000 C 
ATOM     12  C   UNL     1       6.514   5.392  16.677  0.00  0.00    +0.000 C 
ENDBRANCH  10  12
BRANCH  10  13
ATOM     13  C   UNL     1       7.791   5.921  18.788  0.00  0.00    +0.000 C 
BRANCH  13  14
ATOM     14  O   UNL     1       8.412   5.429  19.949  0.00  0.00    +0.000 OA
ATOM     15  H   UNL     1       8.935   4.629  19.677  0.00  0.00    +0.000 HD
ENDBRANCH  13  14
ENDBRANCH  10  13
ENDBRANCH   8  10
ENDBRANCH   7   8
ENDBRANCH   1   7
BRANCH   6  16
ATOM     16  O   UNL     1       2.839   6.084  17.861  0.00  0.00    +0.000 OA
BRANCH  16  17
ATOM     17  C   UNL     1       2.110   7.164  18.371  0.00  0.00    +0.000 C 
ATOM     18  C   UNL     1       2.202   7.206  19.903  0.00  0.00    +0.000 C 
ATOM     19  C   UNL     1       2.600   8.487  17.779  0.00  0.00    +0.000 C 
ENDBRANCH  16  17
ENDBRANCH   6  16
TORSDOF 8
ENDMDL
MODEL 4
REMARK VINA RESULT:      -6.0      1.908      4.766
REMARK  Name = 
REMARK  11 active torsions:
REMARK  status: ('A' for Active; 'I' for Inactive)
REMARK    1  A    between atoms: C_1  and  C_2
REMARK    2  A    between atoms: C_2  and  CA_3
REMARK    3  A    between atoms: CA_3  and  C_4
REMARK    4  A    between atoms: CA_3  and  N_6
REMARK    5  A    between atoms: C_4  and  O_5
REMARK    6  A    between atoms: N_6  and  C_7
REMARK    7  A    between atoms: C_7  and  C_8
REMARK    8  A    between atoms: C_13  and  O_14
REMARK    9  A    between atoms: O_14  and  C_15
REMARK   10  A    between atoms: C_15  and  C_16
REMARK   11  A    between atoms: C_15  and  C_17
REMARK                            x       y       z     vdW  Elec       q    Type
REMARK                         _______ _______ _______ _____ _____    ______ ____
ROOT
ATOM      1  C   UNL     1       5.560   5.062  18.697  0.00  0.00    +0.000 A 
ATOM      2  C   UNL     1       6.946   5.236  18.910  0.00  0.00    +0.000 A 
ATOM      3  C   UNL     1       7.650   6.263  18.290  0.00  0.00    +0.000 A 
ATOM      4  C   UNL     1       6.994   7.130  17.429  0.00  0.00    +0.000 A 
ATOM      5  C   UNL     1       5.636   6.979  17.183  0.00  0.00    +0.000 A 
ATOM      6  C   UNL     1       4.880   5.953  17.811  0.00  0.00    +0.000 A 
ENDROOT
BRANCH   1   7
ATOM      7  C   UNL     1       4.873   3.906  19.417  0.00  0.00    +0.000 C 
BRANCH   7   8
ATOM      8  N   UNL     1       4.067   3.084  18.482  0.00  0.00    +0.000 NA
ATOM      9  H   UNL     1       3.621   3.734  17.802  0.00  0.00    +0.000 HD
BRANCH   8  10
ATOM     10  CA  UNL     1       2.960   2.336  19.129  0.00  0.00    +0.000 C 
BRANCH  10  12
ATOM     11  C   UNL     1       1.388   3.150  21.042  0.00  0.00    +0.000 C 
ATOM     12  C   UNL     1       2.811   2.772  20.618  0.00  0.00    +0.000 C 
ENDBRANCH  10  12
BRANCH  10  13
ATOM     13  C   UNL     1       1.616   2.587  18.403  0.00  0.00    +0.000 C 
BRANCH  13  14
ATOM     14  O   UNL     1       1.788   3.399  17.270  0.00  0.00    +0.000 OA
ATOM     15  H   UNL     1       2.155   4.264  17.590  0.00  0.00    +0.000 HD
ENDBRANCH  13  14
ENDBRANCH  10  13
ENDBRANCH   8  10
ENDBRANCH   7   8
ENDBRANCH   1   7
BRANCH   6  16
ATOM     16  O   UNL     1       3.532   5.837  17.581  0.00  0.00    +0.000 OA
BRANCH  16  17
ATOM     17  C   UNL     1       2.538   6.642  18.149  0.00  0.00    +0.000 C 
ATOM     18  C   UNL     1       2.501   6.465  19.673  0.00  0.00    +0.000 C 
ATOM     19  C   UNL     1       2.755   8.114  17.797  0.00  0.00    +0.000 C 
ENDBRANCH  16  17
ENDBRANCH   6  16
TORSDOF 8
ENDMDL
MODEL 5
REMARK VINA RESULT:      -6.0      1.781      3.931
REMARK  Name = 
REMARK  11 active torsions:
REMARK  status: ('A' for Active; 'I' for Inactive)
REMARK    1  A    between atoms: C_1  and  C_2
REMARK    2  A    between atoms: C_2  and  CA_3
REMARK    3  A    between atoms: CA_3  and  C_4
REMARK    4  A    between atoms: CA_3  and  N_6
REMARK    5  A    between atoms: C_4  and  O_5
REMARK    6  A    between atoms: N_6  and  C_7
REMARK    7  A    between atoms: C_7  and  C_8
REMARK    8  A    between atoms: C_13  and  O_14
REMARK    9  A    between atoms: O_14  and  C_15
REMARK   10  A    between atoms: C_15  and  C_16
REMARK   11  A    between atoms: C_15  and  C_17
REMARK                            x       y       z     vdW  Elec       q    Type
REMARK                         _______ _______ _______ _____ _____    ______ ____
ROOT
ATOM      1  C   UNL     1       3.015   5.916  18.261  0.00  0.00    +0.000 A 
ATOM      2  C   UNL     1       2.962   7.225  17.732  0.00  0.00    +0.000 A 
ATOM      3  C   UNL     1       2.395   8.274  18.451  0.00  0.00    +0.000 A 
ATOM      4  C   UNL     1       1.851   8.039  19.704  0.00  0.00    +0.000 A 
ATOM      5  C   UNL     1       1.871   6.761  20.249  0.00  0.00    +0.000 A 
ATOM      6  C   UNL     1       2.457   5.670  19.553  0.00  0.00    +0.000 A 
ENDROOT
BRANCH   1   7
ATOM      7  C   UNL     1       3.652   4.830  17.399  0.00  0.00    +0.000 C 
BRANCH   7   8
ATOM      8  N   UNL     1       5.051   4.561  17.809  0.00  0.00    +0.000 NA
ATOM      9  H   UNL     1       5.129   4.792  18.821  0.00  0.00    +0.000 HD
BRANCH   8  10
ATOM     10  CA  UNL     1       6.062   5.396  17.113  0.00  0.00    +0.000 C 
BRANCH  10  12
ATOM     11  C   UNL     1       7.527   7.516  17.507  0.00  0.00    +0.000 C 
ATOM     12  C   UNL     1       6.785   6.329  18.131  0.00  0.00    +0.000 C 
ENDBRANCH  10  12
BRANCH  10  13
ATOM     13  C   UNL     1       7.123   4.518  16.406  0.00  0.00    +0.000 C 
BRANCH  13  14
ATOM     14  O   UNL     1       8.096   4.062  17.310  0.00  0.00    +0.000 OA
ATOM     15  H   UNL     1       8.304   3.124  17.059  0.00  0.00    +0.000 HD
ENDBRANCH  13  14
ENDBRANCH  10  13
ENDBRANCH   8  10
ENDBRANCH   7   8
ENDBRANCH   1   7
BRANCH   6  16
ATOM     16  O   UNL     1       2.496   4.419  20.118  0.00  0.00    +0.000 OA
BRANCH  16  17
ATOM     17  C   UNL     1       1.385   3.612  20.382  0.00  0.00    +0.000 C 
ATOM     18  C   UNL     1       1.043   2.743  19.164  0.00  0.00    +0.000 C 
ATOM     19  C   UNL     1       1.626   2.727  21.606  0.00  0.00    +0.000 C 
ENDBRANCH  16  17
ENDBRANCH   6  16
TORSDOF 8
ENDMDL
MODEL 6
REMARK VINA RESULT:      -6.0      1.833      3.522
REMARK  Name = 
REMARK  11 active torsions:
REMARK  status: ('A' for Active; 'I' for Inactive)
REMARK    1  A    between atoms: C_1  and  C_2
REMARK    2  A    between atoms: C_2  and  CA_3
REMARK    3  A    between atoms: CA_3  and  C_4
REMARK    4  A    between atoms: CA_3  and  N_6
REMARK    5  A    between atoms: C_4  and  O_5
REMARK    6  A    between atoms: N_6  and  C_7
REMARK    7  A    between atoms: C_7  and  C_8
REMARK    8  A    between atoms: C_13  and  O_14
REMARK    9  A    between atoms: O_14  and  C_15
REMARK   10  A    between atoms: C_15  and  C_16
REMARK   11  A    between atoms: C_15  and  C_17
REMARK                            x       y       z     vdW  Elec       q    Type
REMARK                         _______ _______ _______ _____ _____    ______ ____
ROOT
ATOM      1  C   UNL     1       3.881   5.786  18.505  0.00  0.00    +0.000 A 
ATOM      2  C   UNL     1       3.926   6.843  17.568  0.00  0.00    +0.000 A 
ATOM      3  C   UNL     1       3.099   7.956  17.692  0.00  0.00    +0.000 A 
ATOM      4  C   UNL     1       2.195   8.033  18.741  0.00  0.00    +0.000 A 
ATOM      5  C   UNL     1       2.112   7.005  19.671  0.00  0.00    +0.000 A 
ATOM      6  C   UNL     1       2.951   5.862  19.587  0.00  0.00    +0.000 A 
ENDROOT
BRANCH   1   7
ATOM      7  C   UNL     1       4.822   4.606  18.285  0.00  0.00    +0.000 C 
BRANCH   7   8
ATOM      8  N   UNL     1       4.608   3.979  16.959  0.00  0.00    +0.000 NA
ATOM      9  H   UNL     1       4.342   2.986  17.123  0.00  0.00    +0.000 HD
BRANCH   8  10
ATOM     10  CA  UNL     1       5.818   3.948  16.098  0.00  0.00    +0.000 C 
BRANCH  10  12
ATOM     11  C   UNL     1       6.420   3.956  13.562  0.00  0.00    +0.000 C 
ATOM     12  C   UNL     1       5.470   4.442  14.661  0.00  0.00    +0.000 C 
ENDBRANCH  10  12
BRANCH  10  13
ATOM     13  C   UNL     1       6.937   4.848  16.673  0.00  0.00    +0.000 C 
BRANCH  13  14
ATOM     14  O   UNL     1       8.061   4.094  17.050  0.00  0.00    +0.000 OA
ATOM     15  H   UNL     1       8.772   4.287  16.384  0.00  0.00    +0.000 HD
ENDBRANCH  13  14
ENDBRANCH  10  13
ENDBRANCH   8  10
ENDBRANCH   7   8
ENDBRANCH   1   7
BRANCH   6  16
ATOM     16  O   UNL     1       2.878   4.869  20.532  0.00  0.00    +0.000 OA
BRANCH  16  17
ATOM     17  C   UNL     1       2.343   3.593  20.331  0.00  0.00    +0.000 C 
ATOM     18  C   UNL     1       2.524   2.724  21.583  0.00  0.00    +0.000 C 
ATOM     19  C   UNL     1       0.862   3.670  19.955  0.00  0.00    +0.000 C 
ENDBRANCH  16  17
ENDBRANCH   6  16
TORSDOF 8
ENDMDL
MODEL 7
REMARK VINA RESULT:      -6.0      2.150      5.106
REMARK  Name = 
REMARK  11 active torsions:
REMARK  status: ('A' for Active; 'I' for Inactive)
REMARK    1  A    between atoms: C_1  and  C_2
REMARK    2  A    between atoms: C_2  and  CA_3
REMARK    3  A    between atoms: CA_3  and  C_4
REMARK    4  A    between atoms: CA_3  and  N_6
REMARK    5  A    between atoms: C_4  and  O_5
REMARK    6  A    between atoms: N_6  and  C_7
REMARK    7  A    between atoms: C_7  and  C_8
REMARK    8  A    between atoms: C_13  and  O_14
REMARK    9  A    between atoms: O_14  and  C_15
REMARK   10  A    between atoms: C_15  and  C_16
REMARK   11  A    between atoms: C_15  and  C_17
REMARK                            x       y       z     vdW  Elec       q    Type
REMARK                         _______ _______ _______ _____ _____    ______ ____
ROOT
ATOM      1  C   UNL     1       4.929   5.456  16.764  0.00  0.00    +0.000 A 
ATOM      2  C   UNL     1       4.545   4.215  16.206  0.00  0.00    +0.000 A 
ATOM      3  C   UNL     1       5.350   3.558  15.280  0.00  0.00    +0.000 A 
ATOM      4  C   UNL     1       6.546   4.130  14.874  0.00  0.00    +0.000 A 
ATOM      5  C   UNL     1       6.947   5.356  15.388  0.00  0.00    +0.000 A 
ATOM      6  C   UNL     1       6.160   6.048  16.348  0.00  0.00    +0.000 A 
ENDROOT
BRANCH   1   7
ATOM      7  C   UNL     1       3.981   6.103  17.768  0.00  0.00    +0.000 C 
BRANCH   7   8
ATOM      8  N   UNL     1       3.065   5.106  18.373  0.00  0.00    +0.000 NA
ATOM      9  H   UNL     1       2.137   5.563  18.485  0.00  0.00    +0.000 HD
BRANCH   8  10
ATOM     10  CA  UNL     1       3.470   4.650  19.727  0.00  0.00    +0.000 C 
BRANCH  10  12
ATOM     11  C   UNL     1       1.007   4.021  20.306  0.00  0.00    +0.000 C 
ATOM     12  C   UNL     1       2.274   4.777  20.719  0.00  0.00    +0.000 C 
ENDBRANCH  10  12
BRANCH  10  13
ATOM     13  C   UNL     1       3.939   3.175  19.704  0.00  0.00    +0.000 C 
BRANCH  13  14
ATOM     14  O   UNL     1       5.310   3.077  19.414  0.00  0.00    +0.000 OA
ATOM     15  H   UNL     1       5.485   3.682  18.646  0.00  0.00    +0.000 HD
ENDBRANCH  13  14
ENDBRANCH  10  13
ENDBRANCH   8  10
ENDBRANCH   7   8
ENDBRANCH   1   7
BRANCH   6  16
ATOM     16  O   UNL     1       6.586   7.245  16.870  0.00  0.00    +0.000 OA
BRANCH  16  17
ATOM     17  C   UNL     1       7.806   7.460  17.521  0.00  0.00    +0.000 C 
ATOM     18  C   UNL     1       7.953   8.933  17.925  0.00  0.00    +0.000 C 
ATOM     19  C   UNL     1       7.939   6.561  18.751  0.00  0.00    +0.000 C 
ENDBRANCH  16  17
ENDBRANCH   6  16
TORSDOF 8
ENDMDL
MODEL 8
REMARK VINA RESULT:      -6.0      1.673      3.430
REMARK  Name = 
REMARK  11 active torsions:
REMARK  status: ('A' for Active; 'I' for Inactive)
REMARK    1  A    between atoms: C_1  and  C_2
REMARK    2  A    between atoms: C_2  and  CA_3
REMARK    3  A    between atoms: CA_3  and  C_4
REMARK    4  A    between atoms: CA_3  and  N_6
REMARK    5  A    between atoms: C_4  and  O_5
REMARK    6  A    between atoms: N_6  and  C_7
REMARK    7  A    between atoms: C_7  and  C_8
REMARK    8  A    between atoms: C_13  and  O_14
REMARK    9  A    between atoms: O_14  and  C_15
REMARK   10  A    between atoms: C_15  and  C_16
REMARK   11  A    between atoms: C_15  and  C_17
REMARK                            x       y       z     vdW  Elec       q    Type
REMARK                         _______ _______ _______ _____ _____    ______ ____
ROOT
ATOM      1  C   UNL     1       3.897   5.747  18.474  0.00  0.00    +0.000 A 
ATOM      2  C   UNL     1       3.952   6.799  17.532  0.00  0.00    +0.000 A 
ATOM      3  C   UNL     1       3.138   7.921  17.653  0.00  0.00    +0.000 A 
ATOM      4  C   UNL     1       2.237   8.014  18.703  0.00  0.00    +0.000 A 
ATOM      5  C   UNL     1       2.145   6.991  19.639  0.00  0.00    +0.000 A 
ATOM      6  C   UNL     1       2.971   5.838  19.558  0.00  0.00    +0.000 A 
ENDROOT
BRANCH   1   7
ATOM      7  C   UNL     1       4.824   4.555  18.259  0.00  0.00    +0.000 C 
BRANCH   7   8
ATOM      8  N   UNL     1       5.146   4.368  16.823  0.00  0.00    +0.000 NA
ATOM      9  H   UNL     1       4.783   3.434  16.542  0.00  0.00    +0.000 HD
BRANCH   8  10
ATOM     10  CA  UNL     1       6.599   4.358  16.521  0.00  0.00    +0.000 C 
BRANCH  10  12
ATOM     11  C   UNL     1       5.624   4.251  14.106  0.00  0.00    +0.000 C 
ATOM     12  C   UNL     1       6.834   4.560  14.993  0.00  0.00    +0.000 C 
ENDBRANCH  10  12
BRANCH  10  13
ATOM     13  C   UNL     1       7.338   5.481  17.288  0.00  0.00    +0.000 C 
BRANCH  13  14
ATOM     14  O   UNL     1       7.594   6.586  16.460  0.00  0.00    +0.000 OA
ATOM     15  H   UNL     1       7.476   6.277  15.523  0.00  0.00    +0.000 HD
ENDBRANCH  13  14
ENDBRANCH  10  13
ENDBRANCH   8  10
ENDBRANCH   7   8
ENDBRANCH   1   7
BRANCH   6  16
ATOM     16  O   UNL     1       2.889   4.851  20.509  0.00  0.00    +0.000 OA
BRANCH  16  17
ATOM     17  C   UNL     1       1.753   4.084  20.788  0.00  0.00    +0.000 C 
ATOM     18  C   UNL     1       1.141   3.528  19.494  0.00  0.00    +0.000 C 
ATOM     19  C   UNL     1       2.083   2.940  21.747  0.00  0.00    +0.000 C 
ENDBRANCH  16  17
ENDBRANCH   6  16
TORSDOF 8
ENDMDL
MODEL 9
REMARK VINA RESULT:      -6.0      1.712      5.043
REMARK  Name = 
REMARK  11 active torsions:
REMARK  status: ('A' for Active; 'I' for Inactive)
REMARK    1  A    between atoms: C_1  and  C_2
REMARK    2  A    between atoms: C_2  and  CA_3
REMARK    3  A    between atoms: CA_3  and  C_4
REMARK    4  A    between atoms: CA_3  and  N_6
REMARK    5  A    between atoms: C_4  and  O_5
REMARK    6  A    between atoms: N_6  and  C_7
REMARK    7  A    between atoms: C_7  and  C_8
REMARK    8  A    between atoms: C_13  and  O_14
REMARK    9  A    between atoms: O_14  and  C_15
REMARK   10  A    between atoms: C_15  and  C_16
REMARK   11  A    between atoms: C_15  and  C_17
REMARK                            x       y       z     vdW  Elec       q    Type
REMARK                         _______ _______ _______ _____ _____    ______ ____
ROOT
ATOM      1  C   UNL     1       4.064   5.448  18.799  0.00  0.00    +0.000 A 
ATOM      2  C   UNL     1       3.037   6.133  19.486  0.00  0.00    +0.000 A 
ATOM      3  C   UNL     1       2.489   7.309  18.981  0.00  0.00    +0.000 A 
ATOM      4  C   UNL     1       2.964   7.839  17.791  0.00  0.00    +0.000 A 
ATOM      5  C   UNL     1       3.984   7.201  17.097  0.00  0.00    +0.000 A 
ATOM      6  C   UNL     1       4.556   5.990  17.572  0.00  0.00    +0.000 A 
ENDROOT
BRANCH   1   7
ATOM      7  C   UNL     1       4.606   4.170  19.431  0.00  0.00    +0.000 C 
BRANCH   7   8
ATOM      8  N   UNL     1       4.276   2.977  18.614  0.00  0.00    +0.000 NA
ATOM      9  H   UNL     1       4.046   3.309  17.656  0.00  0.00    +0.000 HD
BRANCH   8  10
ATOM     10  CA  UNL     1       3.088   2.224  19.089  0.00  0.00    +0.000 C 
BRANCH  10  12
ATOM     11  C   UNL     1       1.326   2.991  20.850  0.00  0.00    +0.000 C 
ATOM     12  C   UNL     1       2.777   2.585  20.573  0.00  0.00    +0.000 C 
ENDBRANCH  10  12
BRANCH  10  13
ATOM     13  C   UNL     1       1.841   2.546  18.230  0.00  0.00    +0.000 C 
BRANCH  13  14
ATOM     14  O   UNL     1       2.201   3.106  16.993  0.00  0.00    +0.000 OA
ATOM     15  H   UNL     1       1.594   2.711  16.312  0.00  0.00    +0.000 HD
ENDBRANCH  13  14
ENDBRANCH  10  13
ENDBRANCH   8  10
ENDBRANCH   7   8
ENDBRANCH   1   7
BRANCH   6  16
ATOM     16  O   UNL     1       5.543   5.355  16.859  0.00  0.00    +0.000 OA
BRANCH  16  17
ATOM     17  C   UNL     1       6.907   5.662  16.908  0.00  0.00    +0.000 C 
ATOM     18  C   UNL     1       7.138   6.993  17.637  0.00  0.00    +0.000 C 
ATOM     19  C   UNL     1       7.698   4.545  17.591  0.00  0.00    +0.000 C 
ENDBRANCH  16  17
ENDBRANCH   6  16
TORSDOF 8
ENDMDL
