MODEL 1
REMARK VINA RESULT:      -6.7      0.000      0.000
REMARK  Name = 
REMARK  10 active torsions:
REMARK  status: ('A' for Active; 'I' for Inactive)
REMARK    1  A    between atoms: C_1  and  C_2
REMARK    2  A    between atoms: C_2  and  C_3
REMARK    3  A    between atoms: C_3  and  C_4
REMARK    4  A    between atoms: C_4  and  N_5
REMARK    5  A    between atoms: C_12  and  O_13
REMARK    6  A    between atoms: O_13  and  C_14
REMARK    7  A    between atoms: C_18  and  C_19
REMARK    8  A    between atoms: C_19  and  O_20
REMARK    9  A    between atoms: C_19  and  C_21
REMARK   10  A    between atoms: C_19  and  C_25
REMARK                            x       y       z     vdW  Elec       q    Type
REMARK                         _______ _______ _______ _____ _____    ______ ____
ROOT
ATOM      1  N   UNL     1      -1.140  11.432  20.219  0.00  0.00    +0.000 N 
ATOM      2  C   UNL     1      -1.437  10.944  18.942  0.00  0.00    +0.000 A 
ATOM      3  O   UNL     1      -0.647  10.267  18.283  0.00  0.00    +0.000 OA
ATOM      4  C   UNL     1      -2.740  11.290  18.342  0.00  0.00    +0.000 A 
ATOM      5  C   UNL     1      -2.917  10.933  16.985  0.00  0.00    +0.000 A 
ATOM      6  C   UNL     1      -4.105  11.214  16.337  0.00  0.00    +0.000 A 
ATOM      7  C   UNL     1      -5.122  11.846  17.034  0.00  0.00    +0.000 A 
ATOM      8  C   UNL     1      -4.957  12.215  18.381  0.00  0.00    +0.000 A 
ATOM      9  C   UNL     1      -3.738  11.947  19.079  0.00  0.00    +0.000 A 
ATOM     10  C   UNL     1      -3.424  12.307  20.498  0.00  0.00    +0.000 A 
ATOM     11  C   UNL     1      -4.374  12.904  21.359  0.00  0.00    +0.000 A 
ATOM     12  C   UNL     1      -4.124  13.253  22.698  0.00  0.00    +0.000 A 
ATOM     13  C   UNL     1      -2.853  12.985  23.194  0.00  0.00    +0.000 A 
ATOM     14  C   UNL     1      -1.877  12.408  22.374  0.00  0.00    +0.000 A 
ATOM     15  C   UNL     1      -2.136  12.062  21.031  0.00  0.00    +0.000 A 
ENDROOT
BRANCH   8  16
ATOM     16  O   UNL     1      -5.968  12.847  19.061  0.00  0.00    +0.000 OA
ATOM     17  C   UNL     1      -7.283  12.323  19.040  0.00  0.00    +0.000 C 
ENDBRANCH   8  16
BRANCH   1  18
ATOM     18  C   UNL     1       0.250  11.234  20.652  0.00  0.00    +0.000 C 
BRANCH  18  19
ATOM     19  C   UNL     1       0.565   9.745  20.878  0.00  0.00    +0.000 C 
BRANCH  19  21
ATOM     20  C   UNL     1       0.095   9.503  23.327  0.00  0.00    +0.000 C 
ATOM     21  C   UNL     1      -0.344   9.108  21.924  0.00  0.00    +0.000 C 
ENDBRANCH  19  21
ENDBRANCH  18  19
ENDBRANCH   1  18
BRANCH  12  22
ATOM     22  C   UNL     1      -5.245  13.912  23.534  0.00  0.00    +0.000 C 
BRANCH  22  23
ATOM     23  C   UNL     1      -5.945  15.066  22.758  0.00  0.00    +0.000 C 
ATOM     24  F   UNL     1      -5.065  15.826  22.056  0.00  0.00    +0.000 F 
ATOM     25  F   UNL     1      -6.915  14.724  21.895  0.00  0.00    +0.000 F 
ATOM     26  F   UNL     1      -6.512  15.929  23.651  0.00  0.00    +0.000 F 
ENDBRANCH  22  23
BRANCH  22  27
ATOM     27  C   UNL     1      -6.305  12.870  24.007  0.00  0.00    +0.000 C 
ATOM     28  F   UNL     1      -6.826  12.155  22.975  0.00  0.00    +0.000 F 
ATOM     29  F   UNL     1      -5.757  11.950  24.844  0.00  0.00    +0.000 F 
ATOM     30  F   UNL     1      -7.368  13.379  24.664  0.00  0.00    +0.000 F 
ENDBRANCH  22  27
BRANCH  22  31
ATOM     31  O   UNL     1      -4.568  14.473  24.718  0.00  0.00    +0.000 OA
ATOM     32  H   UNL     1      -4.103  13.735  25.159  0.00  0.00    +0.000 HD
ENDBRANCH  22  31
ENDBRANCH  12  22
TORSDOF 8
ENDMDL
MODEL 2
REMARK VINA RESULT:      -6.7      1.084      2.083
REMARK  Name = 
REMARK  10 active torsions:
REMARK  status: ('A' for Active; 'I' for Inactive)
REMARK    1  A    between atoms: C_1  and  C_2
REMARK    2  A    between atoms: C_2  and  C_3
REMARK    3  A    between atoms: C_3  and  C_4
REMARK    4  A    between atoms: C_4  and  N_5
REMARK    5  A    between atoms: C_12  and  O_13
REMARK    6  A    between atoms: O_13  and  C_14
REMARK    7  A    between atoms: C_18  and  C_19
REMARK    8  A    between atoms: C_19  and  O_20
REMARK    9  A    between atoms: C_19  and  C_21
REMARK   10  A    between atoms: C_19  and  C_25
REMARK                            x       y       z     vdW  Elec       q    Type
REMARK                         _______ _______ _______ _____ _____    ______ ____
ROOT
ATOM      1  N   UNL     1      -0.826  11.192  19.957  0.00  0.00    +0.000 N 
ATOM      2  C   UNL     1      -0.969  10.573  18.711  0.00  0.00    +0.000 A 
ATOM      3  O   UNL     1      -0.109   9.837  18.227  0.00  0.00    +0.000 OA
ATOM      4  C   UNL     1      -2.188  10.844  17.926  0.00  0.00    +0.000 A 
ATOM      5  C   UNL     1      -2.202  10.347  16.602  0.00  0.00    +0.000 A 
ATOM      6  C   UNL     1      -3.302  10.549  15.789  0.00  0.00    +0.000 A 
ATOM      7  C   UNL     1      -4.393  11.242  16.289  0.00  0.00    +0.000 A 
ATOM      8  C   UNL     1      -4.389  11.750  17.601  0.00  0.00    +0.000 A 
ATOM      9  C   UNL     1      -3.265  11.566  18.465  0.00  0.00    +0.000 A 
ATOM     10  C   UNL     1      -3.123  12.074  19.866  0.00  0.00    +0.000 A 
ATOM     11  C   UNL     1      -4.167  12.750  20.539  0.00  0.00    +0.000 A 
ATOM     12  C   UNL     1      -4.079  13.238  21.856  0.00  0.00    +0.000 A 
ATOM     13  C   UNL     1      -2.878  13.033  22.526  0.00  0.00    +0.000 A 
ATOM     14  C   UNL     1      -1.813  12.381  21.894  0.00  0.00    +0.000 A 
ATOM     15  C   UNL     1      -1.910  11.896  20.573  0.00  0.00    +0.000 A 
ENDROOT
BRANCH   8  16
ATOM     16  O   UNL     1      -5.472  12.442  18.084  0.00  0.00    +0.000 OA
ATOM     17  C   UNL     1      -6.780  11.919  17.940  0.00  0.00    +0.000 C 
ENDBRANCH   8  16
BRANCH   1  18
ATOM     18  C   UNL     1       0.500  11.052  20.573  0.00  0.00    +0.000 C 
BRANCH  18  19
ATOM     19  C   UNL     1       0.806   9.587  20.930  0.00  0.00    +0.000 C 
BRANCH  19  21
ATOM     20  C   UNL     1      -0.000   9.546  23.303  0.00  0.00    +0.000 C 
ATOM     21  C   UNL     1      -0.216   8.997  21.899  0.00  0.00    +0.000 C 
ENDBRANCH  19  21
ENDBRANCH  18  19
ENDBRANCH   1  18
BRANCH  12  22
ATOM     22  C   UNL     1      -5.289  13.971  22.477  0.00  0.00    +0.000 C 
BRANCH  22  23
ATOM     23  C   UNL     1      -6.052  13.072  23.495  0.00  0.00    +0.000 C 
ATOM     24  F   UNL     1      -6.807  12.123  22.883  0.00  0.00    +0.000 F 
ATOM     25  F   UNL     1      -5.316  12.428  24.415  0.00  0.00    +0.000 F 
ATOM     26  F   UNL     1      -6.949  13.835  24.184  0.00  0.00    +0.000 F 
ENDBRANCH  22  23
BRANCH  22  27
ATOM     27  C   UNL     1      -4.869  15.308  23.160  0.00  0.00    +0.000 C 
ATOM     28  F   UNL     1      -3.899  15.962  22.468  0.00  0.00    +0.000 F 
ATOM     29  F   UNL     1      -5.911  16.178  23.230  0.00  0.00    +0.000 F 
ATOM     30  F   UNL     1      -4.399  15.195  24.419  0.00  0.00    +0.000 F 
ENDBRANCH  22  27
BRANCH  22  31
ATOM     31  O   UNL     1      -6.183  14.275  21.345  0.00  0.00    +0.000 OA
ATOM     32  H   UNL     1      -5.923  13.688  20.608  0.00  0.00    +0.000 HD
ENDBRANCH  22  31
ENDBRANCH  12  22
TORSDOF 8
ENDMDL
MODEL 3
REMARK VINA RESULT:      -6.6      3.837      6.404
REMARK  Name = 
REMARK  10 active torsions:
REMARK  status: ('A' for Active; 'I' for Inactive)
REMARK    1  A    between atoms: C_1  and  C_2
REMARK    2  A    between atoms: C_2  and  C_3
REMARK    3  A    between atoms: C_3  and  C_4
REMARK    4  A    between atoms: C_4  and  N_5
REMARK    5  A    between atoms: C_12  and  O_13
REMARK    6  A    between atoms: O_13  and  C_14
REMARK    7  A    between atoms: C_18  and  C_19
REMARK    8  A    between atoms: C_19  and  O_20
REMARK    9  A    between atoms: C_19  and  C_21
REMARK   10  A    between atoms: C_19  and  C_25
REMARK                            x       y       z     vdW  Elec       q    Type
REMARK                         _______ _______ _______ _____ _____    ______ ____
ROOT
ATOM      1  N   UNL     1      -3.451  14.712  22.606  0.00  0.00    +0.000 N 
ATOM      2  C   UNL     1      -4.765  14.705  23.086  0.00  0.00    +0.000 A 
ATOM      3  O   UNL     1      -5.160  15.466  23.969  0.00  0.00    +0.000 OA
ATOM      4  C   UNL     1      -5.710  13.713  22.536  0.00  0.00    +0.000 A 
ATOM      5  C   UNL     1      -6.964  13.622  23.180  0.00  0.00    +0.000 A 
ATOM      6  C   UNL     1      -7.917  12.723  22.735  0.00  0.00    +0.000 A 
ATOM      7  C   UNL     1      -7.627  11.916  21.647  0.00  0.00    +0.000 A 
ATOM      8  C   UNL     1      -6.379  11.989  21.002  0.00  0.00    +0.000 A 
ATOM      9  C   UNL     1      -5.369  12.901  21.442  0.00  0.00    +0.000 A 
ATOM     10  C   UNL     1      -3.998  13.062  20.863  0.00  0.00    +0.000 A 
ATOM     11  C   UNL     1      -3.569  12.353  19.717  0.00  0.00    +0.000 A 
ATOM     12  C   UNL     1      -2.293  12.477  19.136  0.00  0.00    +0.000 A 
ATOM     13  C   UNL     1      -1.408  13.362  19.743  0.00  0.00    +0.000 A 
ATOM     14  C   UNL     1      -1.785  14.074  20.886  0.00  0.00    +0.000 A 
ATOM     15  C   UNL     1      -3.066  13.943  21.462  0.00  0.00    +0.000 A 
ENDROOT
BRANCH   8  16
ATOM     16  O   UNL     1      -6.099  11.180  19.930  0.00  0.00    +0.000 OA
ATOM     17  C   UNL     1      -6.994  11.105  18.834  0.00  0.00    +0.000 C 
ENDBRANCH   8  16
BRANCH   1  18
ATOM     18  C   UNL     1      -2.521  15.569  23.354  0.00  0.00    +0.000 C 
BRANCH  18  19
ATOM     19  C   UNL     1      -1.783  14.781  24.450  0.00  0.00    +0.000 C 
BRANCH  19  21
ATOM     20  C   UNL     1      -0.801  15.933  26.447  0.00  0.00    +0.000 C 
ATOM     21  C   UNL     1      -2.062  15.325  25.848  0.00  0.00    +0.000 C 
ENDBRANCH  19  21
ENDBRANCH  18  19
ENDBRANCH   1  18
BRANCH  12  22
ATOM     22  C   UNL     1      -1.941  11.637  17.888  0.00  0.00    +0.000 C 
BRANCH  22  23
ATOM     23  C   UNL     1      -0.948  10.485  18.226  0.00  0.00    +0.000 C 
ATOM     24  F   UNL     1      -1.202   9.921  19.435  0.00  0.00    +0.000 F 
ATOM     25  F   UNL     1      -0.867   9.471  17.350  0.00  0.00    +0.000 F 
ATOM     26  F   UNL     1       0.312  10.997  18.340  0.00  0.00    +0.000 F 
ENDBRANCH  22  23
BRANCH  22  27
ATOM     27  C   UNL     1      -3.214  11.057  17.200  0.00  0.00    +0.000 C 
ATOM     28  F   UNL     1      -3.743  10.009  17.888  0.00  0.00    +0.000 F 
ATOM     29  F   UNL     1      -4.206  11.982  17.132  0.00  0.00    +0.000 F 
ATOM     30  F   UNL     1      -3.041  10.609  15.940  0.00  0.00    +0.000 F 
ENDBRANCH  22  27
BRANCH  22  31
ATOM     31  O   UNL     1      -1.285  12.576  16.961  0.00  0.00    +0.000 OA
ATOM     32  H   UNL     1      -0.407  12.203  16.746  0.00  0.00    +0.000 HD
ENDBRANCH  22  31
ENDBRANCH  12  22
TORSDOF 8
ENDMDL
MODEL 4
REMARK VINA RESULT:      -6.5      1.243      2.199
REMARK  Name = 
REMARK  10 active torsions:
REMARK  status: ('A' for Active; 'I' for Inactive)
REMARK    1  A    between atoms: C_1  and  C_2
REMARK    2  A    between atoms: C_2  and  C_3
REMARK    3  A    between atoms: C_3  and  C_4
REMARK    4  A    between atoms: C_4  and  N_5
REMARK    5  A    between atoms: C_12  and  O_13
REMARK    6  A    between atoms: O_13  and  C_14
REMARK    7  A    between atoms: C_18  and  C_19
REMARK    8  A    between atoms: C_19  and  O_20
REMARK    9  A    between atoms: C_19  and  C_21
REMARK   10  A    between atoms: C_19  and  C_25
REMARK                            x       y       z     vdW  Elec       q    Type
REMARK                         _______ _______ _______ _____ _____    ______ ____
ROOT
ATOM      1  N   UNL     1      -0.674  11.042  19.647  0.00  0.00    +0.000 N 
ATOM      2  C   UNL     1      -0.910  10.407  18.425  0.00  0.00    +0.000 A 
ATOM      3  O   UNL     1      -0.111   9.624  17.911  0.00  0.00    +0.000 OA
ATOM      4  C   UNL     1      -2.157  10.719  17.698  0.00  0.00    +0.000 A 
ATOM      5  C   UNL     1      -2.263  10.198  16.388  0.00  0.00    +0.000 A 
ATOM      6  C   UNL     1      -3.395  10.435  15.630  0.00  0.00    +0.000 A 
ATOM      7  C   UNL     1      -4.425  11.187  16.171  0.00  0.00    +0.000 A 
ATOM      8  C   UNL     1      -4.330  11.719  17.471  0.00  0.00    +0.000 A 
ATOM      9  C   UNL     1      -3.170  11.500  18.278  0.00  0.00    +0.000 A 
ATOM     10  C   UNL     1      -2.931  12.026  19.659  0.00  0.00    +0.000 A 
ATOM     11  C   UNL     1      -3.907  12.761  20.371  0.00  0.00    +0.000 A 
ATOM     12  C   UNL     1      -3.727  13.269  21.671  0.00  0.00    +0.000 A 
ATOM     13  C   UNL     1      -2.502  13.022  22.281  0.00  0.00    +0.000 A 
ATOM     14  C   UNL     1      -1.503  12.311  21.609  0.00  0.00    +0.000 A 
ATOM     15  C   UNL     1      -1.691  11.806  20.305  0.00  0.00    +0.000 A 
ENDROOT
BRANCH   8  16
ATOM     16  O   UNL     1      -5.353  12.468  17.995  0.00  0.00    +0.000 OA
ATOM     17  C   UNL     1      -6.700  12.071  17.811  0.00  0.00    +0.000 C 
ENDBRANCH   8  16
BRANCH   1  18
ATOM     18  C   UNL     1       0.675  10.853  20.196  0.00  0.00    +0.000 C 
BRANCH  18  19
ATOM     19  C   UNL     1       0.838   9.461  20.830  0.00  0.00    +0.000 C 
BRANCH  19  21
ATOM     20  C   UNL     1      -0.120   9.466  23.146  0.00  0.00    +0.000 C 
ATOM     21  C   UNL     1       1.158   9.532  22.321  0.00  0.00    +0.000 C 
ENDBRANCH  19  21
ENDBRANCH  18  19
ENDBRANCH   1  18
BRANCH  12  22
ATOM     22  C   UNL     1      -4.869  14.068  22.339  0.00  0.00    +0.000 C 
BRANCH  22  23
ATOM     23  C   UNL     1      -5.701  13.185  23.316  0.00  0.00    +0.000 C 
ATOM     24  F   UNL     1      -4.917  12.409  24.107  0.00  0.00    +0.000 F 
ATOM     25  F   UNL     1      -6.553  13.818  24.138  0.00  0.00    +0.000 F 
ATOM     26  F   UNL     1      -6.448  12.299  22.595  0.00  0.00    +0.000 F 
ENDBRANCH  22  23
BRANCH  22  27
ATOM     27  C   UNL     1      -4.335  15.329  23.086  0.00  0.00    +0.000 C 
ATOM     28  F   UNL     1      -5.306  16.259  23.293  0.00  0.00    +0.000 F 
ATOM     29  F   UNL     1      -3.869  15.012  24.323  0.00  0.00    +0.000 F 
ATOM     30  F   UNL     1      -3.331  15.987  22.472  0.00  0.00    +0.000 F 
ENDBRANCH  22  27
BRANCH  22  31
ATOM     31  O   UNL     1      -5.738  14.504  21.231  0.00  0.00    +0.000 OA
ATOM     32  H   UNL     1      -5.769  13.772  20.585  0.00  0.00    +0.000 HD
ENDBRANCH  22  31
ENDBRANCH  12  22
TORSDOF 8
ENDMDL
MODEL 5
REMARK VINA RESULT:      -6.5      3.916      6.409
REMARK  Name = 
REMARK  10 active torsions:
REMARK  status: ('A' for Active; 'I' for Inactive)
REMARK    1  A    between atoms: C_1  and  C_2
REMARK    2  A    between atoms: C_2  and  C_3
REMARK    3  A    between atoms: C_3  and  C_4
REMARK    4  A    between atoms: C_4  and  N_5
REMARK    5  A    between atoms: C_12  and  O_13
REMARK    6  A    between atoms: O_13  and  C_14
REMARK    7  A    between atoms: C_18  and  C_19
REMARK    8  A    between atoms: C_19  and  O_20
REMARK    9  A    between atoms: C_19  and  C_21
REMARK   10  A    between atoms: C_19  and  C_25
REMARK                            x       y       z     vdW  Elec       q    Type
REMARK                         _______ _______ _______ _____ _____    ______ ____
ROOT
ATOM      1  N   UNL     1      -4.683  13.471  21.791  0.00  0.00    +0.000 N 
ATOM      2  C   UNL     1      -5.619  13.690  20.776  0.00  0.00    +0.000 A 
ATOM      3  O   UNL     1      -6.626  14.381  20.931  0.00  0.00    +0.000 OA
ATOM      4  C   UNL     1      -5.412  13.029  19.472  0.00  0.00    +0.000 A 
ATOM      5  C   UNL     1      -6.475  13.128  18.546  0.00  0.00    +0.000 A 
ATOM      6  C   UNL     1      -6.373  12.543  17.297  0.00  0.00    +0.000 A 
ATOM      7  C   UNL     1      -5.214  11.861  16.964  0.00  0.00    +0.000 A 
ATOM      8  C   UNL     1      -4.152  11.746  17.879  0.00  0.00    +0.000 A 
ATOM      9  C   UNL     1      -4.229  12.332  19.181  0.00  0.00    +0.000 A 
ATOM     10  C   UNL     1      -3.186  12.264  20.254  0.00  0.00    +0.000 A 
ATOM     11  C   UNL     1      -1.926  11.653  20.052  0.00  0.00    +0.000 A 
ATOM     12  C   UNL     1      -0.917  11.571  21.028  0.00  0.00    +0.000 A 
ATOM     13  C   UNL     1      -1.192  12.134  22.269  0.00  0.00    +0.000 A 
ATOM     14  C   UNL     1      -2.430  12.736  22.518  0.00  0.00    +0.000 A 
ATOM     15  C   UNL     1      -3.437  12.813  21.534  0.00  0.00    +0.000 A 
ENDROOT
BRANCH   8  16
ATOM     16  O   UNL     1      -3.011  11.062  17.542  0.00  0.00    +0.000 OA
ATOM     17  C   UNL     1      -2.706  10.800  16.184  0.00  0.00    +0.000 C 
ENDBRANCH   8  16
BRANCH   1  18
ATOM     18  C   UNL     1      -5.071  13.977  23.114  0.00  0.00    +0.000 C 
BRANCH  18  19
ATOM     19  C   UNL     1      -5.708  12.873  23.976  0.00  0.00    +0.000 C 
BRANCH  19  21
ATOM     20  C   UNL     1      -7.914  11.988  23.182  0.00  0.00    +0.000 C 
ATOM     21  C   UNL     1      -7.225  13.012  24.074  0.00  0.00    +0.000 C 
ENDBRANCH  19  21
ENDBRANCH  18  19
ENDBRANCH   1  18
BRANCH  12  22
ATOM     22  C   UNL     1       0.416  10.867  20.686  0.00  0.00    +0.000 C 
BRANCH  22  23
ATOM     23  C   UNL     1       0.509   9.455  21.337  0.00  0.00    +0.000 C 
ATOM     24  F   UNL     1       0.848   9.512  22.651  0.00  0.00    +0.000 F 
ATOM     25  F   UNL     1      -0.581   8.675  21.266  0.00  0.00    +0.000 F 
ATOM     26  F   UNL     1       1.523   8.755  20.749  0.00  0.00    +0.000 F 
ENDBRANCH  22  23
BRANCH  22  27
ATOM     27  C   UNL     1       0.637  10.758  19.147  0.00  0.00    +0.000 C 
ATOM     28  F   UNL     1      -0.137   9.795  18.578  0.00  0.00    +0.000 F 
ATOM     29  F   UNL     1       0.300  11.912  18.514  0.00  0.00    +0.000 F 
ATOM     30  F   UNL     1       1.899  10.480  18.759  0.00  0.00    +0.000 F 
ENDBRANCH  22  27
BRANCH  22  31
ATOM     31  O   UNL     1       1.467  11.727  21.258  0.00  0.00    +0.000 OA
ATOM     32  H   UNL     1       2.314  11.455  20.853  0.00  0.00    +0.000 HD
ENDBRANCH  22  31
ENDBRANCH  12  22
TORSDOF 8
ENDMDL
MODEL 6
REMARK VINA RESULT:      -6.5      1.011      1.101
REMARK  Name = 
REMARK  10 active torsions:
REMARK  status: ('A' for Active; 'I' for Inactive)
REMARK    1  A    between atoms: C_1  and  C_2
REMARK    2  A    between atoms: C_2  and  C_3
REMARK    3  A    between atoms: C_3  and  C_4
REMARK    4  A    between atoms: C_4  and  N_5
REMARK    5  A    between atoms: C_12  and  O_13
REMARK    6  A    between atoms: O_13  and  C_14
REMARK    7  A    between atoms: C_18  and  C_19
REMARK    8  A    between atoms: C_19  and  O_20
REMARK    9  A    between atoms: C_19  and  C_21
REMARK   10  A    between atoms: C_19  and  C_25
REMARK                            x       y       z     vdW  Elec       q    Type
REMARK                         _______ _______ _______ _____ _____    ______ ____
ROOT
ATOM      1  N   UNL     1      -0.721  11.128  19.885  0.00  0.00    +0.000 N 
ATOM      2  C   UNL     1      -0.879  10.460  18.667  0.00  0.00    +0.000 A 
ATOM      3  O   UNL     1      -0.033   9.692  18.209  0.00  0.00    +0.000 OA
ATOM      4  C   UNL     1      -2.098  10.719  17.875  0.00  0.00    +0.000 A 
ATOM      5  C   UNL     1      -2.125  10.168  16.573  0.00  0.00    +0.000 A 
ATOM      6  C   UNL     1      -3.225  10.355  15.757  0.00  0.00    +0.000 A 
ATOM      7  C   UNL     1      -4.302  11.086  16.231  0.00  0.00    +0.000 A 
ATOM      8  C   UNL     1      -4.285  11.647  17.522  0.00  0.00    +0.000 A 
ATOM      9  C   UNL     1      -3.160  11.480  18.388  0.00  0.00    +0.000 A 
ATOM     10  C   UNL     1      -3.004  12.042  19.767  0.00  0.00    +0.000 A 
ATOM     11  C   UNL     1      -4.034  12.762  20.416  0.00  0.00    +0.000 A 
ATOM     12  C   UNL     1      -3.933  13.302  21.710  0.00  0.00    +0.000 A 
ATOM     13  C   UNL     1      -2.732  13.106  22.384  0.00  0.00    +0.000 A 
ATOM     14  C   UNL     1      -1.681  12.412  21.776  0.00  0.00    +0.000 A 
ATOM     15  C   UNL     1      -1.791  11.874  20.476  0.00  0.00    +0.000 A 
ENDROOT
BRANCH   8  16
ATOM     16  O   UNL     1      -5.354  12.375  17.980  0.00  0.00    +0.000 OA
ATOM     17  C   UNL     1      -6.673  11.879  17.840  0.00  0.00    +0.000 C 
ENDBRANCH   8  16
BRANCH   1  18
ATOM     18  C   UNL     1       0.605  10.992  20.501  0.00  0.00    +0.000 C 
BRANCH  18  19
ATOM     19  C   UNL     1       0.859   9.553  20.984  0.00  0.00    +0.000 C 
BRANCH  19  21
ATOM     20  C   UNL     1      -0.037   9.544  23.324  0.00  0.00    +0.000 C 
ATOM     21  C   UNL     1      -0.248   9.042  21.902  0.00  0.00    +0.000 C 
ENDBRANCH  19  21
ENDBRANCH  18  19
ENDBRANCH   1  18
BRANCH  12  22
ATOM     22  C   UNL     1      -5.129  14.080  22.306  0.00  0.00    +0.000 C 
BRANCH  22  23
ATOM     23  C   UNL     1      -5.842  14.956  21.234  0.00  0.00    +0.000 C 
ATOM     24  F   UNL     1      -4.965  15.655  20.469  0.00  0.00    +0.000 F 
ATOM     25  F   UNL     1      -6.666  14.328  20.380  0.00  0.00    +0.000 F 
ATOM     26  F   UNL     1      -6.592  15.910  21.860  0.00  0.00    +0.000 F 
ENDBRANCH  22  23
BRANCH  22  27
ATOM     27  C   UNL     1      -6.159  13.128  22.986  0.00  0.00    +0.000 C 
ATOM     28  F   UNL     1      -6.604  12.158  22.143  0.00  0.00    +0.000 F 
ATOM     29  F   UNL     1      -5.606  12.467  24.036  0.00  0.00    +0.000 F 
ATOM     30  F   UNL     1      -7.270  13.722  23.469  0.00  0.00    +0.000 F 
ENDBRANCH  22  27
BRANCH  22  31
ATOM     31  O   UNL     1      -4.545  14.962  23.333  0.00  0.00    +0.000 OA
ATOM     32  H   UNL     1      -4.615  14.493  24.187  0.00  0.00    +0.000 HD
ENDBRANCH  22  31
ENDBRANCH  12  22
TORSDOF 8
ENDMDL
MODEL 7
REMARK VINA RESULT:      -6.4      1.205      2.190
REMARK  Name = 
REMARK  10 active torsions:
REMARK  status: ('A' for Active; 'I' for Inactive)
REMARK    1  A    between atoms: C_1  and  C_2
REMARK    2  A    between atoms: C_2  and  C_3
REMARK    3  A    between atoms: C_3  and  C_4
REMARK    4  A    between atoms: C_4  and  N_5
REMARK    5  A    between atoms: C_12  and  O_13
REMARK    6  A    between atoms: O_13  and  C_14
REMARK    7  A    between atoms: C_18  and  C_19
REMARK    8  A    between atoms: C_19  and  O_20
REMARK    9  A    between atoms: C_19  and  C_21
REMARK   10  A    between atoms: C_19  and  C_25
REMARK                            x       y       z     vdW  Elec       q    Type
REMARK                         _______ _______ _______ _____ _____    ______ ____
ROOT
ATOM      1  N   UNL     1      -1.449  11.806  20.472  0.00  0.00    +0.000 N 
ATOM      2  C   UNL     1      -1.378  11.229  19.200  0.00  0.00    +0.000 A 
ATOM      3  O   UNL     1      -0.370  10.662  18.778  0.00  0.00    +0.000 OA
ATOM      4  C   UNL     1      -2.550  11.339  18.310  0.00  0.00    +0.000 A 
ATOM      5  C   UNL     1      -2.364  10.907  16.977  0.00  0.00    +0.000 A 
ATOM      6  C   UNL     1      -3.405  10.970  16.069  0.00  0.00    +0.000 A 
ATOM      7  C   UNL     1      -4.634  11.458  16.483  0.00  0.00    +0.000 A 
ATOM      8  C   UNL     1      -4.830  11.901  17.804  0.00  0.00    +0.000 A 
ATOM      9  C   UNL     1      -3.772  11.858  18.765  0.00  0.00    +0.000 A 
ATOM     10  C   UNL     1      -3.841  12.317  20.188  0.00  0.00    +0.000 A 
ATOM     11  C   UNL     1      -5.036  12.788  20.779  0.00  0.00    +0.000 A 
ATOM     12  C   UNL     1      -5.147  13.224  22.112  0.00  0.00    +0.000 A 
ATOM     13  C   UNL     1      -3.993  13.181  22.887  0.00  0.00    +0.000 A 
ATOM     14  C   UNL     1      -2.785  12.735  22.341  0.00  0.00    +0.000 A 
ATOM     15  C   UNL     1      -2.683  12.301  21.003  0.00  0.00    +0.000 A 
ENDROOT
BRANCH   8  16
ATOM     16  O   UNL     1      -6.049  12.390  18.202  0.00  0.00    +0.000 OA
ATOM     17  C   UNL     1      -6.688  13.413  17.460  0.00  0.00    +0.000 C 
ENDBRANCH   8  16
BRANCH   1  18
ATOM     18  C   UNL     1      -0.178  11.850  21.207  0.00  0.00    +0.000 C 
BRANCH  18  19
ATOM     19  C   UNL     1      -0.177  10.868  22.392  0.00  0.00    +0.000 C 
BRANCH  19  21
ATOM     20  C   UNL     1      -0.222   8.502  21.566  0.00  0.00    +0.000 C 
ATOM     21  C   UNL     1       0.656   9.619  22.114  0.00  0.00    +0.000 C 
ENDBRANCH  19  21
ENDBRANCH  18  19
ENDBRANCH   1  18
BRANCH  12  22
ATOM     22  C   UNL     1      -6.511  13.727  22.637  0.00  0.00    +0.000 C 
BRANCH  22  23
ATOM     23  C   UNL     1      -7.044  12.846  23.804  0.00  0.00    +0.000 C 
ATOM     24  F   UNL     1      -7.916  13.516  24.602  0.00  0.00    +0.000 F 
ATOM     25  F   UNL     1      -7.649  11.694  23.475  0.00  0.00    +0.000 F 
ATOM     26  F   UNL     1      -6.007  12.515  24.628  0.00  0.00    +0.000 F 
ENDBRANCH  22  23
BRANCH  22  27
ATOM     27  C   UNL     1      -6.445  15.220  23.084  0.00  0.00    +0.000 C 
ATOM     28  F   UNL     1      -5.684  15.978  22.251  0.00  0.00    +0.000 F 
ATOM     29  F   UNL     1      -7.676  15.795  23.073  0.00  0.00    +0.000 F 
ATOM     30  F   UNL     1      -5.949  15.435  24.320  0.00  0.00    +0.000 F 
ENDBRANCH  22  27
BRANCH  22  31
ATOM     31  O   UNL     1      -7.433  13.614  21.492  0.00  0.00    +0.000 OA
ATOM     32  H   UNL     1      -8.191  14.204  21.674  0.00  0.00    +0.000 HD
ENDBRANCH  22  31
ENDBRANCH  12  22
TORSDOF 8
ENDMDL
MODEL 8
REMARK VINA RESULT:      -6.3      1.441      2.680
REMARK  Name = 
REMARK  10 active torsions:
REMARK  status: ('A' for Active; 'I' for Inactive)
REMARK    1  A    between atoms: C_1  and  C_2
REMARK    2  A    between atoms: C_2  and  C_3
REMARK    3  A    between atoms: C_3  and  C_4
REMARK    4  A    between atoms: C_4  and  N_5
REMARK    5  A    between atoms: C_12  and  O_13
REMARK    6  A    between atoms: O_13  and  C_14
REMARK    7  A    between atoms: C_18  and  C_19
REMARK    8  A    between atoms: C_19  and  O_20
REMARK    9  A    between atoms: C_19  and  C_21
REMARK   10  A    between atoms: C_19  and  C_25
REMARK                            x       y       z     vdW  Elec       q    Type
REMARK                         _______ _______ _______ _____ _____    ______ ____
ROOT
ATOM      1  N   UNL     1      -0.641  11.454  19.977  0.00  0.00    +0.000 N 
ATOM      2  C   UNL     1      -0.787  10.751  18.777  0.00  0.00    +0.000 A 
ATOM      3  O   UNL     1       0.100  10.038  18.307  0.00  0.00    +0.000 OA
ATOM      4  C   UNL     1      -2.045  10.902  18.021  0.00  0.00    +0.000 A 
ATOM      5  C   UNL     1      -2.072  10.325  16.731  0.00  0.00    +0.000 A 
ATOM      6  C   UNL     1      -3.208  10.412  15.948  0.00  0.00    +0.000 A 
ATOM      7  C   UNL     1      -4.321  11.071  16.444  0.00  0.00    +0.000 A 
ATOM      8  C   UNL     1      -4.306  11.658  17.722  0.00  0.00    +0.000 A 
ATOM      9  C   UNL     1      -3.145  11.593  18.554  0.00  0.00    +0.000 A 
ATOM     10  C   UNL     1      -2.988  12.194  19.917  0.00  0.00    +0.000 A 
ATOM     11  C   UNL     1      -4.049  12.848  20.586  0.00  0.00    +0.000 A 
ATOM     12  C   UNL     1      -3.948  13.421  21.866  0.00  0.00    +0.000 A 
ATOM     13  C   UNL     1      -2.715  13.328  22.504  0.00  0.00    +0.000 A 
ATOM     14  C   UNL     1      -1.635  12.701  21.875  0.00  0.00    +0.000 A 
ATOM     15  C   UNL     1      -1.744  12.130  20.590  0.00  0.00    +0.000 A 
ENDROOT
BRANCH   8  16
ATOM     16  O   UNL     1      -5.412  12.315  18.202  0.00  0.00    +0.000 OA
ATOM     17  C   UNL     1      -6.479  12.651  17.334  0.00  0.00    +0.000 C 
ENDBRANCH   8  16
BRANCH   1  18
ATOM     18  C   UNL     1       0.710  11.429  20.552  0.00  0.00    +0.000 C 
BRANCH  18  19
ATOM     19  C   UNL     1       1.384  12.810  20.474  0.00  0.00    +0.000 C 
BRANCH  19  21
ATOM     20  C   UNL     1       2.472  12.655  18.222  0.00  0.00    +0.000 C 
ATOM     21  C   UNL     1       1.413  13.366  19.053  0.00  0.00    +0.000 C 
ENDBRANCH  19  21
ENDBRANCH  18  19
ENDBRANCH   1  18
BRANCH  12  22
ATOM     22  C   UNL     1      -5.179  14.120  22.486  0.00  0.00    +0.000 C 
BRANCH  22  23
ATOM     23  C   UNL     1      -5.960  13.175  23.447  0.00  0.00    +0.000 C 
ATOM     24  F   UNL     1      -5.134  12.444  24.239  0.00  0.00    +0.000 F 
ATOM     25  F   UNL     1      -6.859  13.743  24.267  0.00  0.00    +0.000 F 
ATOM     26  F   UNL     1      -6.642  12.249  22.711  0.00  0.00    +0.000 F 
ENDBRANCH  22  23
BRANCH  22  27
ATOM     27  C   UNL     1      -4.787  15.431  23.233  0.00  0.00    +0.000 C 
ATOM     28  F   UNL     1      -3.817  16.128  22.584  0.00  0.00    +0.000 F 
ATOM     29  F   UNL     1      -5.842  16.283  23.326  0.00  0.00    +0.000 F 
ATOM     30  F   UNL     1      -4.332  15.270  24.493  0.00  0.00    +0.000 F 
ENDBRANCH  22  27
BRANCH  22  31
ATOM     31  O   UNL     1      -6.046  14.463  21.344  0.00  0.00    +0.000 OA
ATOM     32  H   UNL     1      -6.915  14.719  21.711  0.00  0.00    +0.000 HD
ENDBRANCH  22  31
ENDBRANCH  12  22
TORSDOF 8
ENDMDL
MODEL 9
REMARK VINA RESULT:      -6.3      3.954      6.424
REMARK  Name = 
REMARK  10 active torsions:
REMARK  status: ('A' for Active; 'I' for Inactive)
REMARK    1  A    between atoms: C_1  and  C_2
REMARK    2  A    between atoms: C_2  and  C_3
REMARK    3  A    between atoms: C_3  and  C_4
REMARK    4  A    between atoms: C_4  and  N_5
REMARK    5  A    between atoms: C_12  and  O_13
REMARK    6  A    between atoms: O_13  and  C_14
REMARK    7  A    between atoms: C_18  and  C_19
REMARK    8  A    between atoms: C_19  and  O_20
REMARK    9  A    between atoms: C_19  and  C_21
REMARK   10  A    between atoms: C_19  and  C_25
REMARK                            x       y       z     vdW  Elec       q    Type
REMARK                         _______ _______ _______ _____ _____    ______ ____
ROOT
ATOM      1  N   UNL     1      -4.756  13.552  21.740  0.00  0.00    +0.000 N 
ATOM      2  C   UNL     1      -5.765  13.691  20.782  0.00  0.00    +0.000 A 
ATOM      3  O   UNL     1      -6.811  14.304  20.995  0.00  0.00    +0.000 OA
ATOM      4  C   UNL     1      -5.585  13.039  19.470  0.00  0.00    +0.000 A 
ATOM      5  C   UNL     1      -6.706  13.051  18.608  0.00  0.00    +0.000 A 
ATOM      6  C   UNL     1      -6.633  12.467  17.357  0.00  0.00    +0.000 A 
ATOM      7  C   UNL     1      -5.447  11.874  16.956  0.00  0.00    +0.000 A 
ATOM      8  C   UNL     1      -4.326  11.847  17.807  0.00  0.00    +0.000 A 
ATOM      9  C   UNL     1      -4.371  12.433  19.110  0.00  0.00    +0.000 A 
ATOM     10  C   UNL     1      -3.264  12.452  20.118  0.00  0.00    +0.000 A 
ATOM     11  C   UNL     1      -1.976  11.939  19.843  0.00  0.00    +0.000 A 
ATOM     12  C   UNL     1      -0.907  11.941  20.757  0.00  0.00    +0.000 A 
ATOM     13  C   UNL     1      -1.151  12.489  22.012  0.00  0.00    +0.000 A 
ATOM     14  C   UNL     1      -2.414  12.996  22.333  0.00  0.00    +0.000 A 
ATOM     15  C   UNL     1      -3.481  12.989  21.410  0.00  0.00    +0.000 A 
ENDROOT
BRANCH   8  16
ATOM     16  O   UNL     1      -3.158  11.250  17.404  0.00  0.00    +0.000 OA
ATOM     17  C   UNL     1      -2.977  10.868  16.052  0.00  0.00    +0.000 C 
ENDBRANCH   8  16
BRANCH   1  18
ATOM     18  C   UNL     1      -5.102  14.034  23.083  0.00  0.00    +0.000 C 
BRANCH  18  19
ATOM     19  C   UNL     1      -5.655  12.902  23.966  0.00  0.00    +0.000 C 
BRANCH  19  21
ATOM     20  C   UNL     1      -7.882  11.961  23.306  0.00  0.00    +0.000 C 
ATOM     21  C   UNL     1      -7.166  12.998  24.160  0.00  0.00    +0.000 C 
ENDBRANCH  19  21
ENDBRANCH  18  19
ENDBRANCH   1  18
BRANCH  12  22
ATOM     22  C   UNL     1       0.454  11.339  20.338  0.00  0.00    +0.000 C 
BRANCH  22  23
ATOM     23  C   UNL     1       0.308   9.874  19.829  0.00  0.00    +0.000 C 
ATOM     24  F   UNL     1      -0.229   9.811  18.583  0.00  0.00    +0.000 F 
ATOM     25  F   UNL     1       1.421   9.124  19.795  0.00  0.00    +0.000 F 
ATOM     26  F   UNL     1      -0.581   9.209  20.623  0.00  0.00    +0.000 F 
ENDBRANCH  22  23
BRANCH  22  27
ATOM     27  C   UNL     1       1.166  12.209  19.258  0.00  0.00    +0.000 C 
ATOM     28  F   UNL     1       2.139  11.524  18.599  0.00  0.00    +0.000 F 
ATOM     29  F   UNL     1       0.296  12.615  18.296  0.00  0.00    +0.000 F 
ATOM     30  F   UNL     1       1.761  13.330  19.714  0.00  0.00    +0.000 F 
ENDBRANCH  22  27
BRANCH  22  31
ATOM     31  O   UNL     1       1.272  11.339  21.565  0.00  0.00    +0.000 OA
ATOM     32  H   UNL     1       1.979  10.676  21.438  0.00  0.00    +0.000 HD
ENDBRANCH  22  31
ENDBRANCH  12  22
TORSDOF 8
ENDMDL
