MODEL 1
REMARK VINA RESULT:      -6.7      0.000      0.000
REMARK  Name = 
REMARK  4 active torsions:
REMARK  status: ('A' for Active; 'I' for Inactive)
REMARK    1  A    between atoms: N_1  and  S_2
REMARK    2  A    between atoms: S_2  and  C_5
REMARK    3  A    between atoms: C_8  and  C_9
REMARK    4  A    between atoms: C_15  and  S_16
REMARK                            x       y       z     vdW  Elec       q    Type
REMARK                         _______ _______ _______ _____ _____    ______ ____
ROOT
ATOM      1  C   UNL     1       5.458   5.374  16.922  0.00  0.00    +0.000 A 
ATOM      2  C   UNL     1       5.049   6.675  16.641  0.00  0.00    +0.000 A 
ATOM      3  C   UNL     1       4.066   7.266  17.437  0.00  0.00    +0.000 A 
ATOM      4  C   UNL     1       3.477   6.570  18.510  0.00  0.00    +0.000 A 
ATOM      5  C   UNL     1       3.894   5.257  18.775  0.00  0.00    +0.000 A 
ATOM      6  C   UNL     1       4.886   4.661  17.981  0.00  0.00    +0.000 A 
ENDROOT
BRANCH   4   7
ATOM      7  C   UNL     1       2.412   7.291  19.279  0.00  0.00    +0.000 C 
ATOM      8  O   UNL     1       1.913   6.701  20.235  0.00  0.00    +0.000 OA
ATOM      9  N   UNL     1       2.043   8.547  18.850  0.00  0.00    +0.000 N 
ATOM     10  C   UNL     1       1.082   9.252  19.535  0.00  0.00    +0.000 A 
ATOM     11  N   UNL     1       0.509   8.992  20.685  0.00  0.00    +0.000 NA
ATOM     12  N   UNL     1      -0.447   9.932  21.012  0.00  0.00    +0.000 NA
ATOM     13  C   UNL     1      -0.551  10.857  20.084  0.00  0.00    +0.000 A 
ATOM     14  S   UNL     1       0.540  10.683  18.773  0.00  0.00    +0.000 S 
ATOM     15  H   UNL     1       2.378   8.954  17.993  0.00  0.00    +0.000 HD
BRANCH  13  16
ATOM     16  S   UNL     1      -1.725  12.135  20.223  0.00  0.00    +0.000 S 
ATOM     17  H   UNL     1      -1.723  12.462  18.921  0.00  0.00    +0.000 HD
ENDBRANCH  13  16
ENDBRANCH   4   7
BRANCH   1  18
ATOM     18  S   UNL     1       6.712   4.630  15.921  0.00  0.00    +0.000 S 
ATOM     19  O   UNL     1       7.331   5.658  15.115  0.00  0.00    +0.000 OA
ATOM     20  O   UNL     1       6.204   3.399  15.362  0.00  0.00    +0.000 OA
BRANCH  18  21
ATOM     21  N   UNL     1       7.850   4.167  17.063  0.00  0.00    +0.000 NA
ATOM     22  H   UNL     1       7.827   4.813  17.855  0.00  0.00    +0.000 HD
ATOM     23  H   UNL     1       8.772   4.087  16.628  0.00  0.00    +0.000 HD
ENDBRANCH  18  21
ENDBRANCH   1  18
TORSDOF 4
ENDMDL
MODEL 2
REMARK VINA RESULT:      -6.6      1.318      1.322
REMARK  Name = 
REMARK  4 active torsions:
REMARK  status: ('A' for Active; 'I' for Inactive)
REMARK    1  A    between atoms: N_1  and  S_2
REMARK    2  A    between atoms: S_2  and  C_5
REMARK    3  A    between atoms: C_8  and  C_9
REMARK    4  A    between atoms: C_15  and  S_16
REMARK                            x       y       z     vdW  Elec       q    Type
REMARK                         _______ _______ _______ _____ _____    ______ ____
ROOT
ATOM      1  C   UNL     1       5.473   5.316  17.468  0.00  0.00    +0.000 A 
ATOM      2  C   UNL     1       4.588   6.303  17.040  0.00  0.00    +0.000 A 
ATOM      3  C   UNL     1       3.572   6.724  17.899  0.00  0.00    +0.000 A 
ATOM      4  C   UNL     1       3.420   6.165  19.182  0.00  0.00    +0.000 A 
ATOM      5  C   UNL     1       4.314   5.166  19.596  0.00  0.00    +0.000 A 
ATOM      6  C   UNL     1       5.341   4.745  18.738  0.00  0.00    +0.000 A 
ENDROOT
BRANCH   4   7
ATOM      7  C   UNL     1       2.277   6.672  20.009  0.00  0.00    +0.000 C 
ATOM      8  O   UNL     1       1.463   5.844  20.411  0.00  0.00    +0.000 OA
ATOM      9  N   UNL     1       2.196   8.029  20.237  0.00  0.00    +0.000 N 
ATOM     10  C   UNL     1       1.174   8.537  21.003  0.00  0.00    +0.000 A 
ATOM     11  N   UNL     1       0.275   7.913  21.725  0.00  0.00    +0.000 NA
ATOM     12  N   UNL     1      -0.614   8.789  22.315  0.00  0.00    +0.000 NA
ATOM     13  C   UNL     1      -0.343  10.035  22.003  0.00  0.00    +0.000 A 
ATOM     14  S   UNL     1       1.042  10.241  21.013  0.00  0.00    +0.000 S 
ATOM     15  H   UNL     1       2.804   8.697  19.793  0.00  0.00    +0.000 HD
BRANCH  13  16
ATOM     16  S   UNL     1      -1.346  11.339  22.571  0.00  0.00    +0.000 S 
ATOM     17  H   UNL     1      -2.392  10.568  22.907  0.00  0.00    +0.000 HD
ENDBRANCH  13  16
ENDBRANCH   4   7
BRANCH   1  18
ATOM     18  S   UNL     1       6.769   4.793  16.384  0.00  0.00    +0.000 S 
ATOM     19  O   UNL     1       7.379   5.961  15.794  0.00  0.00    +0.000 OA
ATOM     20  O   UNL     1       6.305   3.672  15.600  0.00  0.00    +0.000 OA
BRANCH  18  21
ATOM     21  N   UNL     1       7.891   4.155  17.455  0.00  0.00    +0.000 NA
ATOM     22  H   UNL     1       7.666   4.450  18.408  0.00  0.00    +0.000 HD
ATOM     23  H   UNL     1       8.838   4.407  17.163  0.00  0.00    +0.000 HD
ENDBRANCH  18  21
ENDBRANCH   1  18
TORSDOF 4
ENDMDL
MODEL 3
REMARK VINA RESULT:      -6.6      0.852      1.483
REMARK  Name = 
REMARK  4 active torsions:
REMARK  status: ('A' for Active; 'I' for Inactive)
REMARK    1  A    between atoms: N_1  and  S_2
REMARK    2  A    between atoms: S_2  and  C_5
REMARK    3  A    between atoms: C_8  and  C_9
REMARK    4  A    between atoms: C_15  and  S_16
REMARK                            x       y       z     vdW  Elec       q    Type
REMARK                         _______ _______ _______ _____ _____    ______ ____
ROOT
ATOM      1  C   UNL     1       5.724   5.465  16.908  0.00  0.00    +0.000 A 
ATOM      2  C   UNL     1       5.315   4.993  18.153  0.00  0.00    +0.000 A 
ATOM      3  C   UNL     1       4.272   5.640  18.818  0.00  0.00    +0.000 A 
ATOM      4  C   UNL     1       3.635   6.764  18.258  0.00  0.00    +0.000 A 
ATOM      5  C   UNL     1       4.063   7.234  17.008  0.00  0.00    +0.000 A 
ATOM      6  C   UNL     1       5.107   6.582  16.334  0.00  0.00    +0.000 A 
ENDROOT
BRANCH   4   7
ATOM      7  C   UNL     1       2.547   7.398  19.072  0.00  0.00    +0.000 C 
ATOM      8  O   UNL     1       2.078   6.737  19.995  0.00  0.00    +0.000 OA
ATOM      9  N   UNL     1       2.124   8.660  18.715  0.00  0.00    +0.000 N 
ATOM     10  C   UNL     1       1.140   9.287  19.442  0.00  0.00    +0.000 A 
ATOM     11  N   UNL     1       0.586   8.940  20.578  0.00  0.00    +0.000 NA
ATOM     12  N   UNL     1      -0.405   9.821  20.961  0.00  0.00    +0.000 NA
ATOM     13  C   UNL     1      -0.552  10.791  20.087  0.00  0.00    +0.000 A 
ATOM     14  S   UNL     1       0.536  10.734  18.764  0.00  0.00    +0.000 S 
ATOM     15  H   UNL     1       2.438   9.128  17.880  0.00  0.00    +0.000 HD
BRANCH  13  16
ATOM     16  S   UNL     1      -1.776  12.011  20.302  0.00  0.00    +0.000 S 
ATOM     17  H   UNL     1      -2.260  11.937  19.053  0.00  0.00    +0.000 HD
ENDBRANCH  13  16
ENDBRANCH   4   7
BRANCH   1  18
ATOM     18  S   UNL     1       7.036   4.636  16.062  0.00  0.00    +0.000 S 
ATOM     19  O   UNL     1       8.000   4.180  17.036  0.00  0.00    +0.000 OA
ATOM     20  O   UNL     1       7.407   5.404  14.896  0.00  0.00    +0.000 OA
BRANCH  18  21
ATOM     21  N   UNL     1       6.268   3.268  15.470  0.00  0.00    +0.000 NA
ATOM     22  H   UNL     1       6.107   2.606  16.231  0.00  0.00    +0.000 HD
ATOM     23  H   UNL     1       6.802   2.874  14.692  0.00  0.00    +0.000 HD
ENDBRANCH  18  21
ENDBRANCH   1  18
TORSDOF 4
ENDMDL
MODEL 4
REMARK VINA RESULT:      -6.6      0.836      1.496
REMARK  Name = 
REMARK  4 active torsions:
REMARK  status: ('A' for Active; 'I' for Inactive)
REMARK    1  A    between atoms: N_1  and  S_2
REMARK    2  A    between atoms: S_2  and  C_5
REMARK    3  A    between atoms: C_8  and  C_9
REMARK    4  A    between atoms: C_15  and  S_16
REMARK                            x       y       z     vdW  Elec       q    Type
REMARK                         _______ _______ _______ _____ _____    ______ ____
ROOT
ATOM      1  C   UNL     1       5.589   5.330  16.990  0.00  0.00    +0.000 A 
ATOM      2  C   UNL     1       5.144   4.849  18.219  0.00  0.00    +0.000 A 
ATOM      3  C   UNL     1       4.125   5.529  18.888  0.00  0.00    +0.000 A 
ATOM      4  C   UNL     1       3.548   6.695  18.350  0.00  0.00    +0.000 A 
ATOM      5  C   UNL     1       4.013   7.173  17.115  0.00  0.00    +0.000 A 
ATOM      6  C   UNL     1       5.032   6.488  16.436  0.00  0.00    +0.000 A 
ENDROOT
BRANCH   4   7
ATOM      7  C   UNL     1       2.482   7.360  19.167  0.00  0.00    +0.000 C 
ATOM      8  O   UNL     1       2.010   6.720  20.104  0.00  0.00    +0.000 OA
ATOM      9  N   UNL     1       2.081   8.627  18.799  0.00  0.00    +0.000 N 
ATOM     10  C   UNL     1       1.118   9.282  19.529  0.00  0.00    +0.000 A 
ATOM     11  N   UNL     1       0.569   8.960  20.676  0.00  0.00    +0.000 NA
ATOM     12  N   UNL     1      -0.399   9.865  21.058  0.00  0.00    +0.000 NA
ATOM     13  C   UNL     1      -0.537  10.827  20.174  0.00  0.00    +0.000 A 
ATOM     14  S   UNL     1       0.536  10.733  18.840  0.00  0.00    +0.000 S 
ATOM     15  H   UNL     1       2.394   9.077  17.956  0.00  0.00    +0.000 HD
BRANCH  13  16
ATOM     16  S   UNL     1      -1.733  12.074  20.387  0.00  0.00    +0.000 S 
ATOM     17  H   UNL     1      -2.102  12.129  19.098  0.00  0.00    +0.000 HD
ENDBRANCH  13  16
ENDBRANCH   4   7
BRANCH   1  18
ATOM     18  S   UNL     1       6.870   4.460  16.137  0.00  0.00    +0.000 S 
ATOM     19  O   UNL     1       6.269   3.416  15.340  0.00  0.00    +0.000 OA
ATOM     20  O   UNL     1       7.964   4.217  17.048  0.00  0.00    +0.000 OA
BRANCH  18  21
ATOM     21  N   UNL     1       7.432   5.620  15.063  0.00  0.00    +0.000 NA
ATOM     22  H   UNL     1       6.641   6.085  14.612  0.00  0.00    +0.000 HD
ATOM     23  H   UNL     1       8.089   5.198  14.403  0.00  0.00    +0.000 HD
ENDBRANCH  18  21
ENDBRANCH   1  18
TORSDOF 4
ENDMDL
MODEL 5
REMARK VINA RESULT:      -6.6      1.558      1.559
REMARK  Name = 
REMARK  4 active torsions:
REMARK  status: ('A' for Active; 'I' for Inactive)
REMARK    1  A    between atoms: N_1  and  S_2
REMARK    2  A    between atoms: S_2  and  C_5
REMARK    3  A    between atoms: C_8  and  C_9
REMARK    4  A    between atoms: C_15  and  S_16
REMARK                            x       y       z     vdW  Elec       q    Type
REMARK                         _______ _______ _______ _____ _____    ______ ____
ROOT
ATOM      1  C   UNL     1       5.338   5.532  16.793  0.00  0.00    +0.000 A 
ATOM      2  C   UNL     1       5.378   6.900  16.534  0.00  0.00    +0.000 A 
ATOM      3  C   UNL     1       4.377   7.721  17.055  0.00  0.00    +0.000 A 
ATOM      4  C   UNL     1       3.326   7.192  17.829  0.00  0.00    +0.000 A 
ATOM      5  C   UNL     1       3.294   5.811  18.075  0.00  0.00    +0.000 A 
ATOM      6  C   UNL     1       4.302   4.983  17.557  0.00  0.00    +0.000 A 
ENDROOT
BRANCH   4   7
ATOM      7  C   UNL     1       2.291   8.162  18.314  0.00  0.00    +0.000 C 
ATOM      8  O   UNL     1       1.818   8.939  17.488  0.00  0.00    +0.000 OA
ATOM      9  N   UNL     1       1.962   8.140  19.653  0.00  0.00    +0.000 N 
ATOM     10  C   UNL     1       1.006   8.999  20.139  0.00  0.00    +0.000 A 
ATOM     11  N   UNL     1       0.190   9.799  19.496  0.00  0.00    +0.000 NA
ATOM     12  N   UNL     1      -0.596  10.538  20.357  0.00  0.00    +0.000 NA
ATOM     13  C   UNL     1      -0.328  10.261  21.613  0.00  0.00    +0.000 A 
ATOM     14  S   UNL     1       0.859   9.046  21.841  0.00  0.00    +0.000 S 
ATOM     15  H   UNL     1       2.453   7.580  20.329  0.00  0.00    +0.000 HD
BRANCH  13  16
ATOM     16  S   UNL     1      -1.141  11.096  22.906  0.00  0.00    +0.000 S 
ATOM     17  H   UNL     1      -0.023  11.528  23.511  0.00  0.00    +0.000 HD
ENDBRANCH  13  16
ENDBRANCH   4   7
BRANCH   1  18
ATOM     18  S   UNL     1       6.613   4.494  16.143  0.00  0.00    +0.000 S 
ATOM     19  O   UNL     1       7.506   5.303  15.346  0.00  0.00    +0.000 OA
ATOM     20  O   UNL     1       6.023   3.269  15.656  0.00  0.00    +0.000 OA
BRANCH  18  21
ATOM     21  N   UNL     1       7.460   4.064  17.525  0.00  0.00    +0.000 NA
ATOM     22  H   UNL     1       6.815   3.688  18.222  0.00  0.00    +0.000 HD
ATOM     23  H   UNL     1       8.008   4.859  17.862  0.00  0.00    +0.000 HD
ENDBRANCH  18  21
ENDBRANCH   1  18
TORSDOF 4
ENDMDL
MODEL 6
REMARK VINA RESULT:      -6.5      0.826      1.057
REMARK  Name = 
REMARK  4 active torsions:
REMARK  status: ('A' for Active; 'I' for Inactive)
REMARK    1  A    between atoms: N_1  and  S_2
REMARK    2  A    between atoms: S_2  and  C_5
REMARK    3  A    between atoms: C_8  and  C_9
REMARK    4  A    between atoms: C_15  and  S_16
REMARK                            x       y       z     vdW  Elec       q    Type
REMARK                         _______ _______ _______ _____ _____    ______ ____
ROOT
ATOM      1  C   UNL     1       5.405   5.261  17.021  0.00  0.00    +0.000 A 
ATOM      2  C   UNL     1       4.889   6.491  16.621  0.00  0.00    +0.000 A 
ATOM      3  C   UNL     1       3.924   7.114  17.414  0.00  0.00    +0.000 A 
ATOM      4  C   UNL     1       3.458   6.519  18.602  0.00  0.00    +0.000 A 
ATOM      5  C   UNL     1       3.982   5.276  18.988  0.00  0.00    +0.000 A 
ATOM      6  C   UNL     1       4.957   4.649  18.196  0.00  0.00    +0.000 A 
ENDROOT
BRANCH   4   7
ATOM      7  C   UNL     1       2.401   7.263  19.360  0.00  0.00    +0.000 C 
ATOM      8  O   UNL     1       1.900   6.696  20.329  0.00  0.00    +0.000 OA
ATOM      9  N   UNL     1       2.038   8.513  18.907  0.00  0.00    +0.000 N 
ATOM     10  C   UNL     1       1.085   9.239  19.580  0.00  0.00    +0.000 A 
ATOM     11  N   UNL     1       0.513   9.005  20.737  0.00  0.00    +0.000 NA
ATOM     12  N   UNL     1      -0.435   9.959  21.048  0.00  0.00    +0.000 NA
ATOM     13  C   UNL     1      -0.535  10.865  20.102  0.00  0.00    +0.000 A 
ATOM     14  S   UNL     1       0.550  10.657  18.792  0.00  0.00    +0.000 S 
ATOM     15  H   UNL     1       2.374   8.901  18.041  0.00  0.00    +0.000 HD
BRANCH  13  16
ATOM     16  S   UNL     1      -1.701  12.154  20.218  0.00  0.00    +0.000 S 
ATOM     17  H   UNL     1      -0.884  13.115  19.761  0.00  0.00    +0.000 HD
ENDBRANCH  13  16
ENDBRANCH   4   7
BRANCH   1  18
ATOM     18  S   UNL     1       6.637   4.478  16.022  0.00  0.00    +0.000 S 
ATOM     19  O   UNL     1       6.046   3.333  15.370  0.00  0.00    +0.000 OA
ATOM     20  O   UNL     1       7.872   4.403  16.766  0.00  0.00    +0.000 OA
BRANCH  18  21
ATOM     21  N   UNL     1       6.904   5.624  14.826  0.00  0.00    +0.000 NA
ATOM     22  H   UNL     1       7.550   6.338  15.170  0.00  0.00    +0.000 HD
ATOM     23  H   UNL     1       6.013   6.004  14.499  0.00  0.00    +0.000 HD
ENDBRANCH  18  21
ENDBRANCH   1  18
TORSDOF 4
ENDMDL
MODEL 7
REMARK VINA RESULT:      -6.5      2.294      2.688
REMARK  Name = 
REMARK  4 active torsions:
REMARK  status: ('A' for Active; 'I' for Inactive)
REMARK    1  A    between atoms: N_1  and  S_2
REMARK    2  A    between atoms: S_2  and  C_5
REMARK    3  A    between atoms: C_8  and  C_9
REMARK    4  A    between atoms: C_15  and  S_16
REMARK                            x       y       z     vdW  Elec       q    Type
REMARK                         _______ _______ _______ _____ _____    ______ ____
ROOT
ATOM      1  C   UNL     1       4.238   5.438  18.616  0.00  0.00    +0.000 A 
ATOM      2  C   UNL     1       4.356   6.375  17.593  0.00  0.00    +0.000 A 
ATOM      3  C   UNL     1       3.522   7.495  17.596  0.00  0.00    +0.000 A 
ATOM      4  C   UNL     1       2.562   7.689  18.608  0.00  0.00    +0.000 A 
ATOM      5  C   UNL     1       2.450   6.731  19.628  0.00  0.00    +0.000 A 
ATOM      6  C   UNL     1       3.290   5.608  19.631  0.00  0.00    +0.000 A 
ENDROOT
BRANCH   4   7
ATOM      7  C   UNL     1       1.702   8.911  18.498  0.00  0.00    +0.000 C 
ATOM      8  O   UNL     1       1.717   9.514  17.427  0.00  0.00    +0.000 OA
ATOM      9  N   UNL     1       0.979   9.295  19.606  0.00  0.00    +0.000 N 
ATOM     10  C   UNL     1       0.164  10.400  19.546  0.00  0.00    +0.000 A 
ATOM     11  N   UNL     1      -0.187  11.130  18.515  0.00  0.00    +0.000 NA
ATOM     12  N   UNL     1      -0.992  12.190  18.880  0.00  0.00    +0.000 NA
ATOM     13  C   UNL     1      -1.205  12.209  20.177  0.00  0.00    +0.000 A 
ATOM     14  S   UNL     1      -0.488  10.913  21.040  0.00  0.00    +0.000 S 
ATOM     15  H   UNL     1       1.080   8.856  20.506  0.00  0.00    +0.000 HD
BRANCH  13  16
ATOM     16  S   UNL     1      -2.145  13.478  20.910  0.00  0.00    +0.000 S 
ATOM     17  H   UNL     1      -3.338  13.012  20.508  0.00  0.00    +0.000 HD
ENDBRANCH  13  16
ENDBRANCH   4   7
BRANCH   1  18
ATOM     18  S   UNL     1       5.303   4.026  18.617  0.00  0.00    +0.000 S 
ATOM     19  O   UNL     1       4.866   3.117  19.650  0.00  0.00    +0.000 OA
ATOM     20  O   UNL     1       6.673   4.467  18.492  0.00  0.00    +0.000 OA
BRANCH  18  21
ATOM     21  N   UNL     1       4.931   3.301  17.151  0.00  0.00    +0.000 NA
ATOM     22  H   UNL     1       5.637   3.549  16.454  0.00  0.00    +0.000 HD
ATOM     23  H   UNL     1       3.978   3.543  16.871  0.00  0.00    +0.000 HD
ENDBRANCH  18  21
ENDBRANCH   1  18
TORSDOF 4
ENDMDL
MODEL 8
REMARK VINA RESULT:      -6.4      1.706      1.811
REMARK  Name = 
REMARK  4 active torsions:
REMARK  status: ('A' for Active; 'I' for Inactive)
REMARK    1  A    between atoms: N_1  and  S_2
REMARK    2  A    between atoms: S_2  and  C_5
REMARK    3  A    between atoms: C_8  and  C_9
REMARK    4  A    between atoms: C_15  and  S_16
REMARK                            x       y       z     vdW  Elec       q    Type
REMARK                         _______ _______ _______ _____ _____    ______ ____
ROOT
ATOM      1  C   UNL     1       5.314   5.532  17.202  0.00  0.00    +0.000 A 
ATOM      2  C   UNL     1       5.118   6.781  16.616  0.00  0.00    +0.000 A 
ATOM      3  C   UNL     1       4.099   7.605  17.096  0.00  0.00    +0.000 A 
ATOM      4  C   UNL     1       3.262   7.195  18.152  0.00  0.00    +0.000 A 
ATOM      5  C   UNL     1       3.467   5.931  18.726  0.00  0.00    +0.000 A 
ATOM      6  C   UNL     1       4.494   5.102  18.250  0.00  0.00    +0.000 A 
ENDROOT
BRANCH   4   7
ATOM      7  C   UNL     1       2.183   8.148  18.567  0.00  0.00    +0.000 C 
ATOM      8  O   UNL     1       1.635   8.798  17.680  0.00  0.00    +0.000 OA
ATOM      9  N   UNL     1       1.897   8.255  19.912  0.00  0.00    +0.000 N 
ATOM     10  C   UNL     1       0.904   9.104  20.337  0.00  0.00    +0.000 A 
ATOM     11  N   UNL     1       0.018   9.776  19.642  0.00  0.00    +0.000 NA
ATOM     12  N   UNL     1      -0.786  10.558  20.447  0.00  0.00    +0.000 NA
ATOM     13  C   UNL     1      -0.462  10.439  21.714  0.00  0.00    +0.000 A 
ATOM     14  S   UNL     1       0.807   9.330  22.028  0.00  0.00    +0.000 S 
ATOM     15  H   UNL     1       2.444   7.804  20.626  0.00  0.00    +0.000 HD
BRANCH  13  16
ATOM     16  S   UNL     1      -1.286  11.362  22.939  0.00  0.00    +0.000 S 
ATOM     17  H   UNL     1      -0.289  11.318  23.835  0.00  0.00    +0.000 HD
ENDBRANCH  13  16
ENDBRANCH   4   7
BRANCH   1  18
ATOM     18  S   UNL     1       6.614   4.494  16.602  0.00  0.00    +0.000 S 
ATOM     19  O   UNL     1       6.032   3.433  15.813  0.00  0.00    +0.000 OA
ATOM     20  O   UNL     1       7.555   4.250  17.669  0.00  0.00    +0.000 OA
BRANCH  18  21
ATOM     21  N   UNL     1       7.410   5.508  15.528  0.00  0.00    +0.000 NA
ATOM     22  H   UNL     1       8.394   5.587  15.792  0.00  0.00    +0.000 HD
ATOM     23  H   UNL     1       6.928   6.408  15.472  0.00  0.00    +0.000 HD
ENDBRANCH  18  21
ENDBRANCH   1  18
TORSDOF 4
ENDMDL
MODEL 9
REMARK VINA RESULT:      -6.4      1.137      1.588
REMARK  Name = 
REMARK  4 active torsions:
REMARK  status: ('A' for Active; 'I' for Inactive)
REMARK    1  A    between atoms: N_1  and  S_2
REMARK    2  A    between atoms: S_2  and  C_5
REMARK    3  A    between atoms: C_8  and  C_9
REMARK    4  A    between atoms: C_15  and  S_16
REMARK                            x       y       z     vdW  Elec       q    Type
REMARK                         _______ _______ _______ _____ _____    ______ ____
ROOT
ATOM      1  C   UNL     1       5.010   5.409  16.931  0.00  0.00    +0.000 A 
ATOM      2  C   UNL     1       4.518   4.620  17.968  0.00  0.00    +0.000 A 
ATOM      3  C   UNL     1       3.597   5.168  18.862  0.00  0.00    +0.000 A 
ATOM      4  C   UNL     1       3.164   6.502  18.739  0.00  0.00    +0.000 A 
ATOM      5  C   UNL     1       3.674   7.287  17.695  0.00  0.00    +0.000 A 
ATOM      6  C   UNL     1       4.597   6.738  16.791  0.00  0.00    +0.000 A 
ENDROOT
BRANCH   4   7
ATOM      7  C   UNL     1       2.194   6.995  19.771  0.00  0.00    +0.000 C 
ATOM      8  O   UNL     1       1.653   6.151  20.482  0.00  0.00    +0.000 OA
ATOM      9  N   UNL     1       1.950   8.350  19.834  0.00  0.00    +0.000 N 
ATOM     10  C   UNL     1       1.081   8.848  20.775  0.00  0.00    +0.000 A 
ATOM     11  N   UNL     1       0.504   8.247  21.788  0.00  0.00    +0.000 NA
ATOM     12  N   UNL     1      -0.342   9.092  22.477  0.00  0.00    +0.000 NA
ATOM     13  C   UNL     1      -0.366  10.292  21.944  0.00  0.00    +0.000 A 
ATOM     14  S   UNL     1       0.678  10.499  20.599  0.00  0.00    +0.000 S 
ATOM     15  H   UNL     1       2.311   9.004  19.160  0.00  0.00    +0.000 HD
BRANCH  13  16
ATOM     16  S   UNL     1      -1.397  11.538  22.588  0.00  0.00    +0.000 S 
ATOM     17  H   UNL     1      -2.032  10.747  23.466  0.00  0.00    +0.000 HD
ENDBRANCH  13  16
ENDBRANCH   4   7
BRANCH   1  18
ATOM     18  S   UNL     1       6.168   4.710  15.792  0.00  0.00    +0.000 S 
ATOM     19  O   UNL     1       6.371   5.642  14.707  0.00  0.00    +0.000 OA
ATOM     20  O   UNL     1       5.841   3.320  15.577  0.00  0.00    +0.000 OA
BRANCH  18  21
ATOM     21  N   UNL     1       7.586   4.702  16.688  0.00  0.00    +0.000 NA
ATOM     22  H   UNL     1       7.625   5.533  17.281  0.00  0.00    +0.000 HD
ATOM     23  H   UNL     1       8.393   4.604  16.068  0.00  0.00    +0.000 HD
ENDBRANCH  18  21
ENDBRANCH   1  18
TORSDOF 4
ENDMDL
