MODEL 1
REMARK VINA RESULT:      -5.3      0.000      0.000
REMARK  Name = 
REMARK  6 active torsions:
REMARK  status: ('A' for Active; 'I' for Inactive)
REMARK    1  A    between atoms: C_1  and  N_2
REMARK    2  A    between atoms: C_3  and  C_5
REMARK    3  A    between atoms: C_5  and  N_6
REMARK    4  A    between atoms: N_6  and  C_7
REMARK    5  A    between atoms: N_6  and  C_8
REMARK    6  A    between atoms: C_8  and  C_9
REMARK                            x       y       z     vdW  Elec       q    Type
REMARK                         _______ _______ _______ _____ _____    ______ ____
ROOT
ATOM      1  N   UNL     1       5.463   5.271  18.447  0.00  0.00    +0.000 NA
ATOM      2  C   UNL     1       6.653   5.480  19.289  0.00  0.00    +0.000 C 
ENDROOT
BRANCH   1   3
ATOM      3  C   UNL     1       5.314   6.403  17.492  0.00  0.00    +0.000 C 
BRANCH   3   6
ATOM      4  C   UNL     1       5.970   4.020  14.601  0.00  0.00    +0.000 C 
ATOM      5  N   UNL     1       5.758   4.599  15.899  0.00  0.00    +0.000 N 
ATOM      6  C   UNL     1       5.463   5.940  16.041  0.00  0.00    +0.000 C 
ATOM      7  O   UNL     1       5.297   6.700  15.088  0.00  0.00    +0.000 OA
ATOM      8  H   UNL     1       6.037   4.096  16.734  0.00  0.00    +0.000 HD
ENDBRANCH   3   6
ENDBRANCH   1   3
BRANCH   1   9
ATOM      9  C   UNL     1       4.281   5.181  19.335  0.00  0.00    +0.000 C 
BRANCH   9  10
ATOM     10  C   UNL     1       3.383   4.049  18.954  0.00  0.00    +0.000 A 
ATOM     11  N   UNL     1       3.847   3.138  18.002  0.00  0.00    +0.000 NA
ATOM     12  N   UNL     1       2.969   2.176  17.764  0.00  0.00    +0.000 NA
ATOM     13  S   UNL     1       1.570   2.340  18.673  0.00  0.00    +0.000 S 
ATOM     14  C   UNL     1       2.122   3.758  19.428  0.00  0.00    +0.000 A 
ATOM     15 CL   UNL     1       1.168   4.569  20.591  0.00  0.00    +0.000 Cl
ENDBRANCH   9  10
ENDBRANCH   1   9
TORSDOF 4
ENDMDL
MODEL 2
REMARK VINA RESULT:      -5.2      1.169      1.169
REMARK  Name = 
REMARK  6 active torsions:
REMARK  status: ('A' for Active; 'I' for Inactive)
REMARK    1  A    between atoms: C_1  and  N_2
REMARK    2  A    between atoms: C_3  and  C_5
REMARK    3  A    between atoms: C_5  and  N_6
REMARK    4  A    between atoms: N_6  and  C_7
REMARK    5  A    between atoms: N_6  and  C_8
REMARK    6  A    between atoms: C_8  and  C_9
REMARK                            x       y       z     vdW  Elec       q    Type
REMARK                         _______ _______ _______ _____ _____    ______ ____
ROOT
ATOM      1  N   UNL     1       5.054   5.286  17.808  0.00  0.00    +0.000 NA
ATOM      2  C   UNL     1       5.653   5.292  19.154  0.00  0.00    +0.000 C 
ENDROOT
BRANCH   1   3
ATOM      3  C   UNL     1       5.776   6.247  16.929  0.00  0.00    +0.000 C 
BRANCH   3   6
ATOM      4  C   UNL     1       6.119   3.917  13.942  0.00  0.00    +0.000 C 
ATOM      5  N   UNL     1       5.621   4.688  15.049  0.00  0.00    +0.000 N 
ATOM      6  C   UNL     1       6.451   5.537  15.753  0.00  0.00    +0.000 C 
ATOM      7  O   UNL     1       7.625   5.741  15.449  0.00  0.00    +0.000 OA
ATOM      8  H   UNL     1       4.728   4.460  15.469  0.00  0.00    +0.000 HD
ENDBRANCH   3   6
ENDBRANCH   1   3
BRANCH   1   9
ATOM      9  C   UNL     1       3.630   5.670  17.937  0.00  0.00    +0.000 C 
BRANCH   9  10
ATOM     10  C   UNL     1       2.753   4.483  18.176  0.00  0.00    +0.000 A 
ATOM     11  N   UNL     1       2.780   3.451  17.234  0.00  0.00    +0.000 NA
ATOM     12  N   UNL     1       1.974   2.453  17.567  0.00  0.00    +0.000 NA
ATOM     13  S   UNL     1       1.169   2.728  19.011  0.00  0.00    +0.000 S 
ATOM     14  C   UNL     1       1.897   4.247  19.230  0.00  0.00    +0.000 A 
ATOM     15 CL   UNL     1       1.551   5.203  20.603  0.00  0.00    +0.000 Cl
ENDBRANCH   9  10
ENDBRANCH   1   9
TORSDOF 4
ENDMDL
MODEL 3
REMARK VINA RESULT:      -5.2      1.884      2.086
REMARK  Name = 
REMARK  6 active torsions:
REMARK  status: ('A' for Active; 'I' for Inactive)
REMARK    1  A    between atoms: C_1  and  N_2
REMARK    2  A    between atoms: C_3  and  C_5
REMARK    3  A    between atoms: C_5  and  N_6
REMARK    4  A    between atoms: N_6  and  C_7
REMARK    5  A    between atoms: N_6  and  C_8
REMARK    6  A    between atoms: C_8  and  C_9
REMARK                            x       y       z     vdW  Elec       q    Type
REMARK                         _______ _______ _______ _____ _____    ______ ____
ROOT
ATOM      1  N   UNL     1       5.930   4.584  16.943  0.00  0.00    +0.000 NA
ATOM      2  C   UNL     1       7.350   4.455  17.312  0.00  0.00    +0.000 C 
ENDROOT
BRANCH   1   3
ATOM      3  C   UNL     1       5.787   5.536  15.807  0.00  0.00    +0.000 C 
BRANCH   3   6
ATOM      4  C   UNL     1       6.341   3.475  12.659  0.00  0.00    +0.000 C 
ATOM      5  N   UNL     1       5.789   4.081  13.839  0.00  0.00    +0.000 N 
ATOM      6  C   UNL     1       6.499   5.026  14.552  0.00  0.00    +0.000 C 
ATOM      7  O   UNL     1       7.596   5.457  14.198  0.00  0.00    +0.000 OA
ATOM      8  H   UNL     1       4.980   3.672  14.292  0.00  0.00    +0.000 HD
ENDBRANCH   3   6
ENDBRANCH   1   3
BRANCH   1   9
ATOM      9  C   UNL     1       5.189   5.075  18.128  0.00  0.00    +0.000 C 
BRANCH   9  10
ATOM     10  C   UNL     1       4.382   3.993  18.768  0.00  0.00    +0.000 A 
ATOM     11  N   UNL     1       5.019   3.162  19.693  0.00  0.00    +0.000 NA
ATOM     12  N   UNL     1       4.195   2.257  20.200  0.00  0.00    +0.000 NA
ATOM     13  S   UNL     1       2.642   2.380  19.581  0.00  0.00    +0.000 S 
ATOM     14  C   UNL     1       3.051   3.688  18.577  0.00  0.00    +0.000 A 
ATOM     15 CL   UNL     1       1.885   4.427  17.570  0.00  0.00    +0.000 Cl
ENDBRANCH   9  10
ENDBRANCH   1   9
TORSDOF 4
ENDMDL
MODEL 4
REMARK VINA RESULT:      -5.1      3.781      5.231
REMARK  Name = 
REMARK  6 active torsions:
REMARK  status: ('A' for Active; 'I' for Inactive)
REMARK    1  A    between atoms: C_1  and  N_2
REMARK    2  A    between atoms: C_3  and  C_5
REMARK    3  A    between atoms: C_5  and  N_6
REMARK    4  A    between atoms: N_6  and  C_7
REMARK    5  A    between atoms: N_6  and  C_8
REMARK    6  A    between atoms: C_8  and  C_9
REMARK                            x       y       z     vdW  Elec       q    Type
REMARK                         _______ _______ _______ _____ _____    ______ ____
ROOT
ATOM      1  N   UNL     1       3.497   2.969  18.477  0.00  0.00    +0.000 NA
ATOM      2  C   UNL     1       3.476   1.498  18.401  0.00  0.00    +0.000 C 
ENDROOT
BRANCH   1   3
ATOM      3  C   UNL     1       2.118   3.505  18.310  0.00  0.00    +0.000 C 
BRANCH   3   6
ATOM      4  C   UNL     1       2.235   6.921  19.977  0.00  0.00    +0.000 C 
ATOM      5  N   UNL     1       2.399   5.811  19.079  0.00  0.00    +0.000 N 
ATOM      6  C   UNL     1       1.807   4.592  19.341  0.00  0.00    +0.000 C 
ATOM      7  O   UNL     1       1.062   4.394  20.299  0.00  0.00    +0.000 OA
ATOM      8  H   UNL     1       3.120   5.831  18.367  0.00  0.00    +0.000 HD
ENDBRANCH   3   6
ENDBRANCH   1   3
BRANCH   1   9
ATOM      9  C   UNL     1       4.384   3.472  17.404  0.00  0.00    +0.000 C 
BRANCH   9  10
ATOM     10  C   UNL     1       5.517   4.279  17.950  0.00  0.00    +0.000 A 
ATOM     11  N   UNL     1       5.507   4.580  19.314  0.00  0.00    +0.000 NA
ATOM     12  N   UNL     1       6.570   5.283  19.677  0.00  0.00    +0.000 NA
ATOM     13  S   UNL     1       7.603   5.599  18.395  0.00  0.00    +0.000 S 
ATOM     14  C   UNL     1       6.614   4.781  17.282  0.00  0.00    +0.000 A 
ATOM     15 CL   UNL     1       7.053   4.655  15.635  0.00  0.00    +0.000 Cl
ENDBRANCH   9  10
ENDBRANCH   1   9
TORSDOF 4
ENDMDL
MODEL 5
REMARK VINA RESULT:      -5.1      1.922      2.530
REMARK  Name = 
REMARK  6 active torsions:
REMARK  status: ('A' for Active; 'I' for Inactive)
REMARK    1  A    between atoms: C_1  and  N_2
REMARK    2  A    between atoms: C_3  and  C_5
REMARK    3  A    between atoms: C_5  and  N_6
REMARK    4  A    between atoms: N_6  and  C_7
REMARK    5  A    between atoms: N_6  and  C_8
REMARK    6  A    between atoms: C_8  and  C_9
REMARK                            x       y       z     vdW  Elec       q    Type
REMARK                         _______ _______ _______ _____ _____    ______ ____
ROOT
ATOM      1  N   UNL     1       4.042   6.325  17.903  0.00  0.00    +0.000 NA
ATOM      2  C   UNL     1       3.047   7.409  17.987  0.00  0.00    +0.000 C 
ENDROOT
BRANCH   1   3
ATOM      3  C   UNL     1       5.000   6.603  16.798  0.00  0.00    +0.000 C 
BRANCH   3   6
ATOM      4  C   UNL     1       7.885   5.693  19.103  0.00  0.00    +0.000 C 
ATOM      5  N   UNL     1       6.586   5.943  18.541  0.00  0.00    +0.000 N 
ATOM      6  C   UNL     1       6.445   6.334  17.225  0.00  0.00    +0.000 C 
ATOM      7  O   UNL     1       7.389   6.427  16.441  0.00  0.00    +0.000 OA
ATOM      8  H   UNL     1       5.781   6.055  19.145  0.00  0.00    +0.000 HD
ENDBRANCH   3   6
ENDBRANCH   1   3
BRANCH   1   9
ATOM      9  C   UNL     1       3.319   5.056  17.658  0.00  0.00    +0.000 C 
BRANCH   9  10
ATOM     10  C   UNL     1       3.500   4.086  18.781  0.00  0.00    +0.000 A 
ATOM     11  N   UNL     1       4.735   3.441  18.895  0.00  0.00    +0.000 NA
ATOM     12  N   UNL     1       4.774   2.623  19.935  0.00  0.00    +0.000 NA
ATOM     13  S   UNL     1       3.338   2.607  20.800  0.00  0.00    +0.000 S 
ATOM     14  C   UNL     1       2.599   3.729  19.760  0.00  0.00    +0.000 A 
ATOM     15 CL   UNL     1       0.997   4.260  20.029  0.00  0.00    +0.000 Cl
ENDBRANCH   9  10
ENDBRANCH   1   9
TORSDOF 4
ENDMDL
MODEL 6
REMARK VINA RESULT:      -5.0      1.866      1.969
REMARK  Name = 
REMARK  6 active torsions:
REMARK  status: ('A' for Active; 'I' for Inactive)
REMARK    1  A    between atoms: C_1  and  N_2
REMARK    2  A    between atoms: C_3  and  C_5
REMARK    3  A    between atoms: C_5  and  N_6
REMARK    4  A    between atoms: N_6  and  C_7
REMARK    5  A    between atoms: N_6  and  C_8
REMARK    6  A    between atoms: C_8  and  C_9
REMARK                            x       y       z     vdW  Elec       q    Type
REMARK                         _______ _______ _______ _____ _____    ______ ____
ROOT
ATOM      1  N   UNL     1       5.244   4.780  17.066  0.00  0.00    +0.000 NA
ATOM      2  C   UNL     1       6.483   4.626  17.848  0.00  0.00    +0.000 C 
ENDROOT
BRANCH   1   3
ATOM      3  C   UNL     1       5.462   5.750  15.958  0.00  0.00    +0.000 C 
BRANCH   3   6
ATOM      4  C   UNL     1       6.231   3.579  12.931  0.00  0.00    +0.000 C 
ATOM      5  N   UNL     1       5.584   4.268  14.014  0.00  0.00    +0.000 N 
ATOM      6  C   UNL     1       6.288   5.135  14.826  0.00  0.00    +0.000 C 
ATOM      7  O   UNL     1       7.469   5.425  14.642  0.00  0.00    +0.000 OA
ATOM      8  H   UNL     1       4.673   3.968  14.339  0.00  0.00    +0.000 HD
ENDBRANCH   3   6
ENDBRANCH   1   3
BRANCH   1   9
ATOM      9  C   UNL     1       4.182   5.263  17.978  0.00  0.00    +0.000 C 
BRANCH   9  10
ATOM     10  C   UNL     1       3.133   4.225  18.212  0.00  0.00    +0.000 A 
ATOM     11  N   UNL     1       1.913   4.368  17.547  0.00  0.00    +0.000 NA
ATOM     12  N   UNL     1       1.077   3.378  17.824  0.00  0.00    +0.000 NA
ATOM     13  S   UNL     1       1.732   2.257  18.883  0.00  0.00    +0.000 S 
ATOM     14  C   UNL     1       3.199   3.103  19.010  0.00  0.00    +0.000 A 
ATOM     15 CL   UNL     1       4.475   2.518  19.985  0.00  0.00    +0.000 Cl
ENDBRANCH   9  10
ENDBRANCH   1   9
TORSDOF 4
ENDMDL
MODEL 7
REMARK VINA RESULT:      -5.0      1.449      1.449
REMARK  Name = 
REMARK  6 active torsions:
REMARK  status: ('A' for Active; 'I' for Inactive)
REMARK    1  A    between atoms: C_1  and  N_2
REMARK    2  A    between atoms: C_3  and  C_5
REMARK    3  A    between atoms: C_5  and  N_6
REMARK    4  A    between atoms: N_6  and  C_7
REMARK    5  A    between atoms: N_6  and  C_8
REMARK    6  A    between atoms: C_8  and  C_9
REMARK                            x       y       z     vdW  Elec       q    Type
REMARK                         _______ _______ _______ _____ _____    ______ ____
ROOT
ATOM      1  N   UNL     1       5.470   5.411  18.404  0.00  0.00    +0.000 NA
ATOM      2  C   UNL     1       6.610   5.458  19.337  0.00  0.00    +0.000 C 
ENDROOT
BRANCH   1   3
ATOM      3  C   UNL     1       5.555   6.545  17.444  0.00  0.00    +0.000 C 
BRANCH   3   6
ATOM      4  C   UNL     1       5.911   4.139  14.519  0.00  0.00    +0.000 C 
ATOM      5  N   UNL     1       5.862   4.733  15.827  0.00  0.00    +0.000 N 
ATOM      6  C   UNL     1       5.514   6.058  15.993  0.00  0.00    +0.000 C 
ATOM      7  O   UNL     1       5.162   6.787  15.066  0.00  0.00    +0.000 OA
ATOM      8  H   UNL     1       6.291   4.266  16.617  0.00  0.00    +0.000 HD
ENDBRANCH   3   6
ENDBRANCH   1   3
BRANCH   1   9
ATOM      9  C   UNL     1       4.223   5.494  19.198  0.00  0.00    +0.000 C 
BRANCH   9  10
ATOM     10  C   UNL     1       3.228   4.459  18.783  0.00  0.00    +0.000 A 
ATOM     11  N   UNL     1       2.167   4.863  17.968  0.00  0.00    +0.000 NA
ATOM     12  N   UNL     1       1.367   3.854  17.657  0.00  0.00    +0.000 NA
ATOM     13  S   UNL     1       1.866   2.403  18.332  0.00  0.00    +0.000 S 
ATOM     14  C   UNL     1       3.208   3.116  19.091  0.00  0.00    +0.000 A 
ATOM     15 CL   UNL     1       4.290   2.184  20.030  0.00  0.00    +0.000 Cl
ENDBRANCH   9  10
ENDBRANCH   1   9
TORSDOF 4
ENDMDL
MODEL 8
REMARK VINA RESULT:      -4.9      3.495      4.638
REMARK  Name = 
REMARK  6 active torsions:
REMARK  status: ('A' for Active; 'I' for Inactive)
REMARK    1  A    between atoms: C_1  and  N_2
REMARK    2  A    between atoms: C_3  and  C_5
REMARK    3  A    between atoms: C_5  and  N_6
REMARK    4  A    between atoms: N_6  and  C_7
REMARK    5  A    between atoms: N_6  and  C_8
REMARK    6  A    between atoms: C_8  and  C_9
REMARK                            x       y       z     vdW  Elec       q    Type
REMARK                         _______ _______ _______ _____ _____    ______ ____
ROOT
ATOM      1  N   UNL     1       3.463   5.678  18.551  0.00  0.00    +0.000 NA
ATOM      2  C   UNL     1       2.545   6.537  19.319  0.00  0.00    +0.000 C 
ENDROOT
BRANCH   1   3
ATOM      3  C   UNL     1       4.450   5.045  19.469  0.00  0.00    +0.000 C 
BRANCH   3   6
ATOM      4  C   UNL     1       3.331   1.616  18.264  0.00  0.00    +0.000 C 
ATOM      5  N   UNL     1       3.522   3.030  18.437  0.00  0.00    +0.000 N 
ATOM      6  C   UNL     1       4.400   3.518  19.383  0.00  0.00    +0.000 C 
ATOM      7  O   UNL     1       5.114   2.798  20.079  0.00  0.00    +0.000 OA
ATOM      8  H   UNL     1       2.864   3.687  18.034  0.00  0.00    +0.000 HD
ENDBRANCH   3   6
ENDBRANCH   1   3
BRANCH   1   9
ATOM      9  C   UNL     1       4.152   6.523  17.549  0.00  0.00    +0.000 C 
BRANCH   9  10
ATOM     10  C   UNL     1       5.124   5.736  16.731  0.00  0.00    +0.000 A 
ATOM     11  N   UNL     1       4.622   4.706  15.931  0.00  0.00    +0.000 NA
ATOM     12  N   UNL     1       5.578   4.097  15.246  0.00  0.00    +0.000 NA
ATOM     13  S   UNL     1       7.096   4.743  15.541  0.00  0.00    +0.000 S 
ATOM     14  C   UNL     1       6.491   5.888  16.641  0.00  0.00    +0.000 A 
ATOM     15 CL   UNL     1       7.528   7.007  17.412  0.00  0.00    +0.000 Cl
ENDBRANCH   9  10
ENDBRANCH   1   9
TORSDOF 4
ENDMDL
MODEL 9
REMARK VINA RESULT:      -4.9      2.260      3.052
REMARK  Name = 
REMARK  6 active torsions:
REMARK  status: ('A' for Active; 'I' for Inactive)
REMARK    1  A    between atoms: C_1  and  N_2
REMARK    2  A    between atoms: C_3  and  C_5
REMARK    3  A    between atoms: C_5  and  N_6
REMARK    4  A    between atoms: N_6  and  C_7
REMARK    5  A    between atoms: N_6  and  C_8
REMARK    6  A    between atoms: C_8  and  C_9
REMARK                            x       y       z     vdW  Elec       q    Type
REMARK                         _______ _______ _______ _____ _____    ______ ____
ROOT
ATOM      1  N   UNL     1       4.611   4.647  17.530  0.00  0.00    +0.000 NA
ATOM      2  C   UNL     1       3.985   5.970  17.364  0.00  0.00    +0.000 C 
ENDROOT
BRANCH   1   3
ATOM      3  C   UNL     1       5.858   4.572  16.719  0.00  0.00    +0.000 C 
BRANCH   3   6
ATOM      4  C   UNL     1       7.985   5.514  19.728  0.00  0.00    +0.000 C 
ATOM      5  N   UNL     1       6.900   5.302  18.810  0.00  0.00    +0.000 N 
ATOM      6  C   UNL     1       7.107   4.677  17.596  0.00  0.00    +0.000 C 
ATOM      7  O   UNL     1       8.192   4.209  17.253  0.00  0.00    +0.000 OA
ATOM      8  H   UNL     1       6.024   5.796  18.931  0.00  0.00    +0.000 HD
ENDBRANCH   3   6
ENDBRANCH   1   3
BRANCH   1   9
ATOM      9  C   UNL     1       3.641   3.620  17.087  0.00  0.00    +0.000 C 
BRANCH   9  10
ATOM     10  C   UNL     1       2.705   3.228  18.184  0.00  0.00    +0.000 A 
ATOM     11  N   UNL     1       1.333   3.365  17.953  0.00  0.00    +0.000 NA
ATOM     12  N   UNL     1       0.612   2.970  18.992  0.00  0.00    +0.000 NA
ATOM     13  S   UNL     1       1.558   2.426  20.265  0.00  0.00    +0.000 S 
ATOM     14  C   UNL     1       3.007   2.725  19.431  0.00  0.00    +0.000 A 
ATOM     15 CL   UNL     1       4.523   2.380  20.142  0.00  0.00    +0.000 Cl
ENDBRANCH   9  10
ENDBRANCH   1   9
TORSDOF 4
ENDMDL
