MODEL 1
REMARK VINA RESULT:      -8.1      0.000      0.000
REMARK  Name = 
REMARK  10 active torsions:
REMARK  status: ('A' for Active; 'I' for Inactive)
REMARK    1  A    between atoms: C_1  and  O_2
REMARK    2  A    between atoms: O_2  and  C_3
REMARK    3  A    between atoms: C_6  and  O_7
REMARK    4  A    between atoms: O_7  and  C_8
REMARK    5  A    between atoms: C_9  and  C_10
REMARK    6  A    between atoms: C_12  and  C_13
REMARK    7  A    between atoms: N_15  and  C_16
REMARK    8  A    between atoms: C_16  and  C_17
REMARK    9  A    between atoms: C_20  and  C_21
REMARK   10  A    between atoms: N_28  and  C_29
REMARK                            x       y       z     vdW  Elec       q    Type
REMARK                         _______ _______ _______ _____ _____    ______ ____
ROOT
ATOM      1  C   UNL     1       2.310   7.293  18.536  0.00  0.00    +0.000 A 
ATOM      2  C   UNL     1       1.928   8.486  17.875  0.00  0.00    +0.000 A 
ATOM      3  C   UNL     1       1.447   9.365  18.836  0.00  0.00    +0.000 A 
ATOM      4  N   UNL     1       1.513   8.643  20.002  0.00  0.00    +0.000 N 
ATOM      5  C   UNL     1       1.054   8.977  21.332  0.00  0.00    +0.000 C 
ATOM      6  N   UNL     1       2.062   7.421  19.850  0.00  0.00    +0.000 NA
ENDROOT
BRANCH   1  11
ATOM      7  C   UNL     1       2.593   3.648  17.596  0.00  0.00    +0.000 A 
ATOM      8  C   UNL     1       3.850   3.592  17.008  0.00  0.00    +0.000 A 
ATOM      9  C   UNL     1       4.637   4.738  16.910  0.00  0.00    +0.000 A 
ATOM     10  C   UNL     1       4.188   5.969  17.418  0.00  0.00    +0.000 A 
ATOM     11  C   UNL     1       2.900   6.052  17.988  0.00  0.00    +0.000 A 
ATOM     12  C   UNL     1       2.120   4.874  18.061  0.00  0.00    +0.000 A 
BRANCH   7  14
ATOM     13  C   UNL     1       0.955   2.312  18.678  0.00  0.00    +0.000 C 
ATOM     14  O   UNL     1       1.937   2.452  17.659  0.00  0.00    +0.000 OA
ENDBRANCH   7  14
BRANCH  10  15
ATOM     15  O   UNL     1       4.963   7.098  17.330  0.00  0.00    +0.000 OA
ATOM     16  C   UNL     1       6.371   6.891  17.235  0.00  0.00    +0.000 C 
ENDBRANCH  10  15
ENDBRANCH   1  11
BRANCH   3  17
ATOM     17  C   UNL     1       0.948  10.715  18.673  0.00  0.00    +0.000 C 
ATOM     18  O   UNL     1       1.596  11.724  18.931  0.00  0.00    +0.000 OA
ATOM     19  N   UNL     1      -0.343  10.789  18.195  0.00  0.00    +0.000 N 
ATOM     20  H   UNL     1      -0.770   9.961  17.808  0.00  0.00    +0.000 HD
BRANCH  19  21
ATOM     21  C   UNL     1      -1.019  12.041  17.957  0.00  0.00    +0.000 C 
BRANCH  21  22
ATOM     22  C   UNL     1      -2.282  12.143  18.780  0.00  0.00    +0.000 A 
ATOM     23  C   UNL     1      -2.249  12.663  20.082  0.00  0.00    +0.000 A 
ATOM     24  C   UNL     1      -3.424  12.784  20.838  0.00  0.00    +0.000 A 
ATOM     25  C   UNL     1      -4.659  12.384  20.312  0.00  0.00    +0.000 A 
ATOM     26  C   UNL     1      -4.689  11.864  19.010  0.00  0.00    +0.000 A 
ATOM     27  C   UNL     1      -3.515  11.743  18.254  0.00  0.00    +0.000 A 
BRANCH  25  28
ATOM     28  C   UNL     1      -5.878  12.519  21.101  0.00  0.00    +0.000 A 
ATOM     29  C   UNL     1      -7.082  11.758  21.078  0.00  0.00    +0.000 A 
ATOM     30  C   UNL     1      -7.913  12.305  22.029  0.00  0.00    +0.000 A 
ATOM     31  O   UNL     1      -7.310  13.360  22.633  0.00  0.00    +0.000 OA
ATOM     32  C   UNL     1      -6.083  13.486  22.066  0.00  0.00    +0.000 A 
ENDBRANCH  25  28
ENDBRANCH  21  22
ENDBRANCH  19  21
ENDBRANCH   3  17
TORSDOF 7
ENDMDL
MODEL 2
REMARK VINA RESULT:      -8.0      1.722      3.072
REMARK  Name = 
REMARK  10 active torsions:
REMARK  status: ('A' for Active; 'I' for Inactive)
REMARK    1  A    between atoms: C_1  and  O_2
REMARK    2  A    between atoms: O_2  and  C_3
REMARK    3  A    between atoms: C_6  and  O_7
REMARK    4  A    between atoms: O_7  and  C_8
REMARK    5  A    between atoms: C_9  and  C_10
REMARK    6  A    between atoms: C_12  and  C_13
REMARK    7  A    between atoms: N_15  and  C_16
REMARK    8  A    between atoms: C_16  and  C_17
REMARK    9  A    between atoms: C_20  and  C_21
REMARK   10  A    between atoms: N_28  and  C_29
REMARK                            x       y       z     vdW  Elec       q    Type
REMARK                         _______ _______ _______ _____ _____    ______ ____
ROOT
ATOM      1  C   UNL     1       2.578   7.069  18.591  0.00  0.00    +0.000 A 
ATOM      2  C   UNL     1       2.041   8.237  17.997  0.00  0.00    +0.000 A 
ATOM      3  C   UNL     1       1.425   8.975  18.998  0.00  0.00    +0.000 A 
ATOM      4  N   UNL     1       1.575   8.194  20.119  0.00  0.00    +0.000 N 
ATOM      5  C   UNL     1       1.054   8.373  21.455  0.00  0.00    +0.000 C 
ATOM      6  N   UNL     1       2.295   7.075  19.904  0.00  0.00    +0.000 NA
ENDROOT
BRANCH   1  11
ATOM      7  C   UNL     1       5.521   5.222  17.116  0.00  0.00    +0.000 A 
ATOM      8  C   UNL     1       4.971   3.983  16.815  0.00  0.00    +0.000 A 
ATOM      9  C   UNL     1       3.628   3.722  17.079  0.00  0.00    +0.000 A 
ATOM     10  C   UNL     1       2.796   4.708  17.637  0.00  0.00    +0.000 A 
ATOM     11  C   UNL     1       3.346   5.962  17.981  0.00  0.00    +0.000 A 
ATOM     12  C   UNL     1       4.716   6.191  17.712  0.00  0.00    +0.000 A 
BRANCH   7  14
ATOM     13  C   UNL     1       7.770   4.551  17.485  0.00  0.00    +0.000 C 
ATOM     14  O   UNL     1       6.838   5.361  16.779  0.00  0.00    +0.000 OA
ENDBRANCH   7  14
BRANCH  10  15
ATOM     15  O   UNL     1       1.471   4.458  17.892  0.00  0.00    +0.000 OA
ATOM     16  C   UNL     1       1.184   3.280  18.644  0.00  0.00    +0.000 C 
ENDBRANCH  10  15
ENDBRANCH   1  11
BRANCH   3  17
ATOM     17  C   UNL     1       0.742  10.249  18.909  0.00  0.00    +0.000 C 
ATOM     18  O   UNL     1      -0.222  10.463  18.181  0.00  0.00    +0.000 OA
ATOM     19  N   UNL     1       1.264  11.232  19.722  0.00  0.00    +0.000 N 
ATOM     20  H   UNL     1       1.917  10.973  20.446  0.00  0.00    +0.000 HD
BRANCH  19  21
ATOM     21  C   UNL     1       0.720  12.567  19.784  0.00  0.00    +0.000 C 
BRANCH  21  22
ATOM     22  C   UNL     1      -0.525  12.608  20.639  0.00  0.00    +0.000 A 
ATOM     23  C   UNL     1      -1.688  13.243  20.180  0.00  0.00    +0.000 A 
ATOM     24  C   UNL     1      -2.854  13.259  20.959  0.00  0.00    +0.000 A 
ATOM     25  C   UNL     1      -2.884  12.645  22.218  0.00  0.00    +0.000 A 
ATOM     26  C   UNL     1      -1.720  12.011  22.674  0.00  0.00    +0.000 A 
ATOM     27  C   UNL     1      -0.554  11.994  21.896  0.00  0.00    +0.000 A 
BRANCH  25  28
ATOM     28  C   UNL     1      -4.101  12.659  23.020  0.00  0.00    +0.000 A 
ATOM     29  C   UNL     1      -5.422  13.076  22.687  0.00  0.00    +0.000 A 
ATOM     30  C   UNL     1      -6.194  12.876  23.810  0.00  0.00    +0.000 A 
ATOM     31  O   UNL     1      -5.439  12.374  24.819  0.00  0.00    +0.000 OA
ATOM     32  C   UNL     1      -4.175  12.248  24.337  0.00  0.00    +0.000 A 
ENDBRANCH  25  28
ENDBRANCH  21  22
ENDBRANCH  19  21
ENDBRANCH   3  17
TORSDOF 7
ENDMDL
MODEL 3
REMARK VINA RESULT:      -7.8      3.662      5.653
REMARK  Name = 
REMARK  10 active torsions:
REMARK  status: ('A' for Active; 'I' for Inactive)
REMARK    1  A    between atoms: C_1  and  O_2
REMARK    2  A    between atoms: O_2  and  C_3
REMARK    3  A    between atoms: C_6  and  O_7
REMARK    4  A    between atoms: O_7  and  C_8
REMARK    5  A    between atoms: C_9  and  C_10
REMARK    6  A    between atoms: C_12  and  C_13
REMARK    7  A    between atoms: N_15  and  C_16
REMARK    8  A    between atoms: C_16  and  C_17
REMARK    9  A    between atoms: C_20  and  C_21
REMARK   10  A    between atoms: N_28  and  C_29
REMARK                            x       y       z     vdW  Elec       q    Type
REMARK                         _______ _______ _______ _____ _____    ______ ____
ROOT
ATOM      1  C   UNL     1       4.611   4.554  17.752  0.00  0.00    +0.000 A 
ATOM      2  C   UNL     1       3.583   5.432  18.176  0.00  0.00    +0.000 A 
ATOM      3  C   UNL     1       3.034   4.909  19.339  0.00  0.00    +0.000 A 
ATOM      4  N   UNL     1       3.716   3.730  19.521  0.00  0.00    +0.000 N 
ATOM      5  C   UNL     1       3.525   2.685  20.502  0.00  0.00    +0.000 C 
ATOM      6  N   UNL     1       4.687   3.522  18.609  0.00  0.00    +0.000 NA
ENDROOT
BRANCH   1  11
ATOM      7  C   UNL     1       5.851   4.142  14.212  0.00  0.00    +0.000 A 
ATOM      8  C   UNL     1       7.108   4.730  14.269  0.00  0.00    +0.000 A 
ATOM      9  C   UNL     1       7.583   5.268  15.463  0.00  0.00    +0.000 A 
ATOM     10  C   UNL     1       6.814   5.213  16.638  0.00  0.00    +0.000 A 
ATOM     11  C   UNL     1       5.521   4.650  16.590  0.00  0.00    +0.000 A 
ATOM     12  C   UNL     1       5.061   4.124  15.360  0.00  0.00    +0.000 A 
BRANCH   7  14
ATOM     13  C   UNL     1       6.574   3.452  12.057  0.00  0.00    +0.000 C 
ATOM     14  O   UNL     1       5.517   3.624  12.993  0.00  0.00    +0.000 OA
ENDBRANCH   7  14
BRANCH  10  15
ATOM     15  O   UNL     1       7.282   5.735  17.818  0.00  0.00    +0.000 OA
ATOM     16  C   UNL     1       7.545   7.137  17.827  0.00  0.00    +0.000 C 
ENDBRANCH  10  15
ENDBRANCH   1  11
BRANCH   3  17
ATOM     17  C   UNL     1       1.967   5.435  20.165  0.00  0.00    +0.000 C 
ATOM     18  O   UNL     1       1.030   4.765  20.588  0.00  0.00    +0.000 OA
ATOM     19  N   UNL     1       2.081   6.779  20.451  0.00  0.00    +0.000 N 
ATOM     20  H   UNL     1       2.953   7.248  20.261  0.00  0.00    +0.000 HD
BRANCH  19  21
ATOM     21  C   UNL     1       1.124   7.489  21.265  0.00  0.00    +0.000 C 
BRANCH  21  22
ATOM     22  C   UNL     1       0.986   8.925  20.814  0.00  0.00    +0.000 A 
ATOM     23  C   UNL     1       1.249   9.287  19.485  0.00  0.00    +0.000 A 
ATOM     24  C   UNL     1       1.095  10.613  19.057  0.00  0.00    +0.000 A 
ATOM     25  C   UNL     1       0.679  11.611  19.949  0.00  0.00    +0.000 A 
ATOM     26  C   UNL     1       0.417  11.246  21.278  0.00  0.00    +0.000 A 
ATOM     27  C   UNL     1       0.571   9.920  21.706  0.00  0.00    +0.000 A 
BRANCH  25  28
ATOM     28  C   UNL     1       0.514  12.987  19.497  0.00  0.00    +0.000 A 
ATOM     29  C   UNL     1       1.443  13.874  18.882  0.00  0.00    +0.000 A 
ATOM     30  C   UNL     1       0.771  15.055  18.655  0.00  0.00    +0.000 A 
ATOM     31  O   UNL     1      -0.508  14.962  19.097  0.00  0.00    +0.000 OA
ATOM     32  C   UNL     1      -0.657  13.713  19.607  0.00  0.00    +0.000 A 
ENDBRANCH  25  28
ENDBRANCH  21  22
ENDBRANCH  19  21
ENDBRANCH   3  17
TORSDOF 7
ENDMDL
MODEL 4
REMARK VINA RESULT:      -7.8      0.439      1.113
REMARK  Name = 
REMARK  10 active torsions:
REMARK  status: ('A' for Active; 'I' for Inactive)
REMARK    1  A    between atoms: C_1  and  O_2
REMARK    2  A    between atoms: O_2  and  C_3
REMARK    3  A    between atoms: C_6  and  O_7
REMARK    4  A    between atoms: O_7  and  C_8
REMARK    5  A    between atoms: C_9  and  C_10
REMARK    6  A    between atoms: C_12  and  C_13
REMARK    7  A    between atoms: N_15  and  C_16
REMARK    8  A    between atoms: C_16  and  C_17
REMARK    9  A    between atoms: C_20  and  C_21
REMARK   10  A    between atoms: N_28  and  C_29
REMARK                            x       y       z     vdW  Elec       q    Type
REMARK                         _______ _______ _______ _____ _____    ______ ____
ROOT
ATOM      1  C   UNL     1       2.366   7.207  18.594  0.00  0.00    +0.000 A 
ATOM      2  C   UNL     1       2.033   8.390  17.890  0.00  0.00    +0.000 A 
ATOM      3  C   UNL     1       1.578   9.319  18.816  0.00  0.00    +0.000 A 
ATOM      4  N   UNL     1       1.609   8.635  20.007  0.00  0.00    +0.000 N 
ATOM      5  C   UNL     1       1.155   9.031  21.321  0.00  0.00    +0.000 C 
ATOM      6  N   UNL     1       2.115   7.389  19.901  0.00  0.00    +0.000 NA
ENDROOT
BRANCH   1  11
ATOM      7  C   UNL     1       2.643   3.489  18.005  0.00  0.00    +0.000 A 
ATOM      8  C   UNL     1       3.798   3.397  17.240  0.00  0.00    +0.000 A 
ATOM      9  C   UNL     1       4.517   4.542  16.903  0.00  0.00    +0.000 A 
ATOM     10  C   UNL     1       4.104   5.811  17.344  0.00  0.00    +0.000 A 
ATOM     11  C   UNL     1       2.913   5.927  18.094  0.00  0.00    +0.000 A 
ATOM     12  C   UNL     1       2.199   4.748  18.407  0.00  0.00    +0.000 A 
BRANCH   7  14
ATOM     13  C   UNL     1       0.704   2.337  18.748  0.00  0.00    +0.000 C 
ATOM     14  O   UNL     1       2.050   2.293  18.292  0.00  0.00    +0.000 OA
ENDBRANCH   7  14
BRANCH  10  15
ATOM     15  O   UNL     1       4.813   6.941  17.021  0.00  0.00    +0.000 OA
ATOM     16  C   UNL     1       6.224   6.879  17.223  0.00  0.00    +0.000 C 
ENDBRANCH  10  15
ENDBRANCH   1  11
BRANCH   3  17
ATOM     17  C   UNL     1       1.130  10.679  18.603  0.00  0.00    +0.000 C 
ATOM     18  O   UNL     1       1.866  11.660  18.640  0.00  0.00    +0.000 OA
ATOM     19  N   UNL     1      -0.220  10.799  18.350  0.00  0.00    +0.000 N 
ATOM     20  H   UNL     1      -0.753   9.971  18.130  0.00  0.00    +0.000 HD
BRANCH  19  21
ATOM     21  C   UNL     1      -0.860  12.068  18.104  0.00  0.00    +0.000 C 
BRANCH  21  22
ATOM     22  C   UNL     1      -2.134  12.200  18.906  0.00  0.00    +0.000 A 
ATOM     23  C   UNL     1      -3.348  11.705  18.409  0.00  0.00    +0.000 A 
ATOM     24  C   UNL     1      -4.527  11.801  19.163  0.00  0.00    +0.000 A 
ATOM     25  C   UNL     1      -4.520  12.400  20.431  0.00  0.00    +0.000 A 
ATOM     26  C   UNL     1      -3.305  12.894  20.924  0.00  0.00    +0.000 A 
ATOM     27  C   UNL     1      -2.127  12.798  20.171  0.00  0.00    +0.000 A 
BRANCH  25  28
ATOM     28  C   UNL     1      -5.747  12.491  21.213  0.00  0.00    +0.000 A 
ATOM     29  C   UNL     1      -6.012  13.164  22.439  0.00  0.00    +0.000 A 
ATOM     30  C   UNL     1      -7.336  12.931  22.739  0.00  0.00    +0.000 A 
ATOM     31  O   UNL     1      -7.906  12.151  21.787  0.00  0.00    +0.000 OA
ATOM     32  C   UNL     1      -6.941  11.886  20.869  0.00  0.00    +0.000 A 
ENDBRANCH  25  28
ENDBRANCH  21  22
ENDBRANCH  19  21
ENDBRANCH   3  17
TORSDOF 7
ENDMDL
MODEL 5
REMARK VINA RESULT:      -7.7      2.385     10.421
REMARK  Name = 
REMARK  10 active torsions:
REMARK  status: ('A' for Active; 'I' for Inactive)
REMARK    1  A    between atoms: C_1  and  O_2
REMARK    2  A    between atoms: O_2  and  C_3
REMARK    3  A    between atoms: C_6  and  O_7
REMARK    4  A    between atoms: O_7  and  C_8
REMARK    5  A    between atoms: C_9  and  C_10
REMARK    6  A    between atoms: C_12  and  C_13
REMARK    7  A    between atoms: N_15  and  C_16
REMARK    8  A    between atoms: C_16  and  C_17
REMARK    9  A    between atoms: C_20  and  C_21
REMARK   10  A    between atoms: N_28  and  C_29
REMARK                            x       y       z     vdW  Elec       q    Type
REMARK                         _______ _______ _______ _____ _____    ______ ____
ROOT
ATOM      1  C   UNL     1      -1.757  11.260  19.044  0.00  0.00    +0.000 A 
ATOM      2  C   UNL     1      -1.283  10.043  19.594  0.00  0.00    +0.000 A 
ATOM      3  C   UNL     1       0.011  10.260  20.047  0.00  0.00    +0.000 A 
ATOM      4  N   UNL     1       0.265  11.564  19.699  0.00  0.00    +0.000 N 
ATOM      5  C   UNL     1       1.482  12.338  19.809  0.00  0.00    +0.000 C 
ATOM      6  N   UNL     1      -0.790  12.188  19.138  0.00  0.00    +0.000 NA
ENDROOT
BRANCH   1  11
ATOM      7  C   UNL     1      -5.335  12.442  18.840  0.00  0.00    +0.000 A 
ATOM      8  C   UNL     1      -5.632  12.254  17.497  0.00  0.00    +0.000 A 
ATOM      9  C   UNL     1      -4.676  11.733  16.627  0.00  0.00    +0.000 A 
ATOM     10  C   UNL     1      -3.400  11.368  17.090  0.00  0.00    +0.000 A 
ATOM     11  C   UNL     1      -3.070  11.583  18.445  0.00  0.00    +0.000 A 
ATOM     12  C   UNL     1      -4.058  12.126  19.300  0.00  0.00    +0.000 A 
BRANCH   7  14
ATOM     13  C   UNL     1      -7.533  12.119  19.680  0.00  0.00    +0.000 C 
ATOM     14  O   UNL     1      -6.367  12.928  19.591  0.00  0.00    +0.000 OA
ENDBRANCH   7  14
BRANCH  10  15
ATOM     15  O   UNL     1      -2.458  10.847  16.238  0.00  0.00    +0.000 OA
ATOM     16  C   UNL     1      -2.948  10.288  15.021  0.00  0.00    +0.000 C 
ENDBRANCH  10  15
ENDBRANCH   1  11
BRANCH   3  17
ATOM     17  C   UNL     1       0.920   9.338  20.697  0.00  0.00    +0.000 C 
ATOM     18  O   UNL     1       1.432   9.536  21.794  0.00  0.00    +0.000 OA
ATOM     19  N   UNL     1       1.175   8.190  19.978  0.00  0.00    +0.000 N 
ATOM     20  H   UNL     1       0.590   7.968  19.186  0.00  0.00    +0.000 HD
BRANCH  19  21
ATOM     21  C   UNL     1       2.046   7.145  20.456  0.00  0.00    +0.000 C 
BRANCH  21  22
ATOM     22  C   UNL     1       2.996   6.690  19.372  0.00  0.00    +0.000 A 
ATOM     23  C   UNL     1       3.720   5.497  19.509  0.00  0.00    +0.000 A 
ATOM     24  C   UNL     1       4.582   5.058  18.493  0.00  0.00    +0.000 A 
ATOM     25  C   UNL     1       4.744   5.805  17.318  0.00  0.00    +0.000 A 
ATOM     26  C   UNL     1       4.019   6.997  17.185  0.00  0.00    +0.000 A 
ATOM     27  C   UNL     1       3.157   7.436  18.200  0.00  0.00    +0.000 A 
BRANCH  25  28
ATOM     28  C   UNL     1       5.636   5.340  16.263  0.00  0.00    +0.000 A 
ATOM     29  C   UNL     1       5.410   4.417  15.202  0.00  0.00    +0.000 A 
ATOM     30  C   UNL     1       6.585   4.340  14.488  0.00  0.00    +0.000 A 
ATOM     31  O   UNL     1       7.526   5.145  15.040  0.00  0.00    +0.000 OA
ATOM     32  C   UNL     1       6.949   5.744  16.114  0.00  0.00    +0.000 A 
ENDBRANCH  25  28
ENDBRANCH  21  22
ENDBRANCH  19  21
ENDBRANCH   3  17
TORSDOF 7
ENDMDL
MODEL 6
REMARK VINA RESULT:      -7.7      3.857      5.589
REMARK  Name = 
REMARK  10 active torsions:
REMARK  status: ('A' for Active; 'I' for Inactive)
REMARK    1  A    between atoms: C_1  and  O_2
REMARK    2  A    between atoms: O_2  and  C_3
REMARK    3  A    between atoms: C_6  and  O_7
REMARK    4  A    between atoms: O_7  and  C_8
REMARK    5  A    between atoms: C_9  and  C_10
REMARK    6  A    between atoms: C_12  and  C_13
REMARK    7  A    between atoms: N_15  and  C_16
REMARK    8  A    between atoms: C_16  and  C_17
REMARK    9  A    between atoms: C_20  and  C_21
REMARK   10  A    between atoms: N_28  and  C_29
REMARK                            x       y       z     vdW  Elec       q    Type
REMARK                         _______ _______ _______ _____ _____    ______ ____
ROOT
ATOM      1  C   UNL     1       4.539   4.649  17.826  0.00  0.00    +0.000 A 
ATOM      2  C   UNL     1       3.530   5.542  18.263  0.00  0.00    +0.000 A 
ATOM      3  C   UNL     1       2.946   4.997  19.399  0.00  0.00    +0.000 A 
ATOM      4  N   UNL     1       3.590   3.793  19.551  0.00  0.00    +0.000 N 
ATOM      5  C   UNL     1       3.351   2.722  20.492  0.00  0.00    +0.000 C 
ATOM      6  N   UNL     1       4.570   3.587  18.648  0.00  0.00    +0.000 NA
ENDROOT
BRANCH   1  11
ATOM      7  C   UNL     1       5.963   4.060  14.381  0.00  0.00    +0.000 A 
ATOM      8  C   UNL     1       7.120   4.828  14.404  0.00  0.00    +0.000 A 
ATOM      9  C   UNL     1       7.466   5.551  15.544  0.00  0.00    +0.000 A 
ATOM     10  C   UNL     1       6.667   5.505  16.700  0.00  0.00    +0.000 A 
ATOM     11  C   UNL     1       5.470   4.757  16.682  0.00  0.00    +0.000 A 
ATOM     12  C   UNL     1       5.140   4.045  15.505  0.00  0.00    +0.000 A 
BRANCH   7  14
ATOM     13  C   UNL     1       6.643   3.654  12.142  0.00  0.00    +0.000 C 
ATOM     14  O   UNL     1       5.755   3.376  13.217  0.00  0.00    +0.000 OA
ENDBRANCH   7  14
BRANCH  10  15
ATOM     15  O   UNL     1       7.008   6.209  17.828  0.00  0.00    +0.000 OA
ATOM     16  C   UNL     1       7.846   5.534  18.763  0.00  0.00    +0.000 C 
ENDBRANCH  10  15
ENDBRANCH   1  11
BRANCH   3  17
ATOM     17  C   UNL     1       1.881   5.527  20.225  0.00  0.00    +0.000 C 
ATOM     18  O   UNL     1       0.958   4.854  20.672  0.00  0.00    +0.000 OA
ATOM     19  N   UNL     1       1.980   6.878  20.481  0.00  0.00    +0.000 N 
ATOM     20  H   UNL     1       2.845   7.354  20.272  0.00  0.00    +0.000 HD
BRANCH  19  21
ATOM     21  C   UNL     1       1.024   7.593  21.291  0.00  0.00    +0.000 C 
BRANCH  21  22
ATOM     22  C   UNL     1       0.880   9.024  20.826  0.00  0.00    +0.000 A 
ATOM     23  C   UNL     1       0.534  10.039  21.730  0.00  0.00    +0.000 A 
ATOM     24  C   UNL     1       0.426  11.371  21.307  0.00  0.00    +0.000 A 
ATOM     25  C   UNL     1       0.657  11.721  19.970  0.00  0.00    +0.000 A 
ATOM     26  C   UNL     1       1.003  10.704  19.069  0.00  0.00    +0.000 A 
ATOM     27  C   UNL     1       1.110   9.371  19.490  0.00  0.00    +0.000 A 
BRANCH  25  28
ATOM     28  C   UNL     1       0.550  13.109  19.538  0.00  0.00    +0.000 A 
ATOM     29  C   UNL     1      -0.549  13.820  18.978  0.00  0.00    +0.000 A 
ATOM     30  C   UNL     1      -0.115  15.107  18.755  0.00  0.00    +0.000 A 
ATOM     31  O   UNL     1       1.182  15.240  19.130  0.00  0.00    +0.000 OA
ATOM     32  C   UNL     1       1.579  14.029  19.599  0.00  0.00    +0.000 A 
ENDBRANCH  25  28
ENDBRANCH  21  22
ENDBRANCH  19  21
ENDBRANCH   3  17
TORSDOF 7
ENDMDL
MODEL 7
REMARK VINA RESULT:      -7.7      3.767      5.911
REMARK  Name = 
REMARK  10 active torsions:
REMARK  status: ('A' for Active; 'I' for Inactive)
REMARK    1  A    between atoms: C_1  and  O_2
REMARK    2  A    between atoms: O_2  and  C_3
REMARK    3  A    between atoms: C_6  and  O_7
REMARK    4  A    between atoms: O_7  and  C_8
REMARK    5  A    between atoms: C_9  and  C_10
REMARK    6  A    between atoms: C_12  and  C_13
REMARK    7  A    between atoms: N_15  and  C_16
REMARK    8  A    between atoms: C_16  and  C_17
REMARK    9  A    between atoms: C_20  and  C_21
REMARK   10  A    between atoms: N_28  and  C_29
REMARK                            x       y       z     vdW  Elec       q    Type
REMARK                         _______ _______ _______ _____ _____    ______ ____
ROOT
ATOM      1  C   UNL     1       4.584   4.217  16.867  0.00  0.00    +0.000 A 
ATOM      2  C   UNL     1       3.750   5.164  17.510  0.00  0.00    +0.000 A 
ATOM      3  C   UNL     1       3.052   4.502  18.511  0.00  0.00    +0.000 A 
ATOM      4  N   UNL     1       3.457   3.195  18.382  0.00  0.00    +0.000 N 
ATOM      5  C   UNL     1       3.004   2.008  19.070  0.00  0.00    +0.000 C 
ATOM      6  N   UNL     1       4.400   3.014  17.435  0.00  0.00    +0.000 NA
ENDROOT
BRANCH   1  11
ATOM      7  C   UNL     1       6.031   3.953  13.390  0.00  0.00    +0.000 A 
ATOM      8  C   UNL     1       7.237   4.629  13.521  0.00  0.00    +0.000 A 
ATOM      9  C   UNL     1       7.610   5.181  14.745  0.00  0.00    +0.000 A 
ATOM     10  C   UNL     1       6.787   5.052  15.877  0.00  0.00    +0.000 A 
ATOM     11  C   UNL     1       5.543   4.397  15.755  0.00  0.00    +0.000 A 
ATOM     12  C   UNL     1       5.187   3.859  14.496  0.00  0.00    +0.000 A 
BRANCH   7  14
ATOM     13  C   UNL     1       4.439   3.321  11.745  0.00  0.00    +0.000 C 
ATOM     14  O   UNL     1       5.798   3.433  12.149  0.00  0.00    +0.000 OA
ENDBRANCH   7  14
BRANCH  10  15
ATOM     15  O   UNL     1       7.154   5.587  17.087  0.00  0.00    +0.000 OA
ATOM     16  C   UNL     1       7.083   7.007  17.195  0.00  0.00    +0.000 C 
ENDBRANCH  10  15
ENDBRANCH   1  11
BRANCH   3  17
ATOM     17  C   UNL     1       2.088   5.027  19.455  0.00  0.00    +0.000 C 
ATOM     18  O   UNL     1       1.047   4.456  19.765  0.00  0.00    +0.000 OA
ATOM     19  N   UNL     1       2.431   6.246  19.998  0.00  0.00    +0.000 N 
ATOM     20  H   UNL     1       3.373   6.588  19.879  0.00  0.00    +0.000 HD
BRANCH  19  21
ATOM     21  C   UNL     1       1.608   6.932  20.964  0.00  0.00    +0.000 C 
BRANCH  21  22
ATOM     22  C   UNL     1       1.339   8.357  20.537  0.00  0.00    +0.000 A 
ATOM     23  C   UNL     1       0.949   9.324  21.474  0.00  0.00    +0.000 A 
ATOM     24  C   UNL     1       0.726  10.653  21.086  0.00  0.00    +0.000 A 
ATOM     25  C   UNL     1       0.883  11.046  19.750  0.00  0.00    +0.000 A 
ATOM     26  C   UNL     1       1.273  10.076  18.815  0.00  0.00    +0.000 A 
ATOM     27  C   UNL     1       1.496   8.748  19.203  0.00  0.00    +0.000 A 
BRANCH  25  28
ATOM     28  C   UNL     1       0.656  12.430  19.353  0.00  0.00    +0.000 A 
ATOM     29  C   UNL     1       1.346  13.621  19.721  0.00  0.00    +0.000 A 
ATOM     30  C   UNL     1       0.726  14.656  19.058  0.00  0.00    +0.000 A 
ATOM     31  O   UNL     1      -0.307  14.190  18.314  0.00  0.00    +0.000 OA
ATOM     32  C   UNL     1      -0.347  12.845  18.497  0.00  0.00    +0.000 A 
ENDBRANCH  25  28
ENDBRANCH  21  22
ENDBRANCH  19  21
ENDBRANCH   3  17
TORSDOF 7
ENDMDL
MODEL 8
REMARK VINA RESULT:      -7.6      1.335      2.795
REMARK  Name = 
REMARK  10 active torsions:
REMARK  status: ('A' for Active; 'I' for Inactive)
REMARK    1  A    between atoms: C_1  and  O_2
REMARK    2  A    between atoms: O_2  and  C_3
REMARK    3  A    between atoms: C_6  and  O_7
REMARK    4  A    between atoms: O_7  and  C_8
REMARK    5  A    between atoms: C_9  and  C_10
REMARK    6  A    between atoms: C_12  and  C_13
REMARK    7  A    between atoms: N_15  and  C_16
REMARK    8  A    between atoms: C_16  and  C_17
REMARK    9  A    between atoms: C_20  and  C_21
REMARK   10  A    between atoms: N_28  and  C_29
REMARK                            x       y       z     vdW  Elec       q    Type
REMARK                         _______ _______ _______ _____ _____    ______ ____
ROOT
ATOM      1  C   UNL     1       2.617   7.207  18.651  0.00  0.00    +0.000 A 
ATOM      2  C   UNL     1       2.200   8.502  18.255  0.00  0.00    +0.000 A 
ATOM      3  C   UNL     1       1.612   9.111  19.355  0.00  0.00    +0.000 A 
ATOM      4  N   UNL     1       1.656   8.142  20.328  0.00  0.00    +0.000 N 
ATOM      5  C   UNL     1       1.104   8.138  21.664  0.00  0.00    +0.000 C 
ATOM      6  N   UNL     1       2.288   7.016  19.940  0.00  0.00    +0.000 NA
ENDROOT
BRANCH   1  11
ATOM      7  C   UNL     1       5.238   5.603  16.460  0.00  0.00    +0.000 A 
ATOM      8  C   UNL     1       4.774   4.299  16.352  0.00  0.00    +0.000 A 
ATOM      9  C   UNL     1       3.594   3.913  16.985  0.00  0.00    +0.000 A 
ATOM     10  C   UNL     1       2.838   4.834  17.729  0.00  0.00    +0.000 A 
ATOM     11  C   UNL     1       3.312   6.156  17.877  0.00  0.00    +0.000 A 
ATOM     12  C   UNL     1       4.520   6.513  17.234  0.00  0.00    +0.000 A 
BRANCH   7  14
ATOM     13  C   UNL     1       6.841   4.847  14.879  0.00  0.00    +0.000 C 
ATOM     14  O   UNL     1       6.387   5.861  15.767  0.00  0.00    +0.000 OA
ENDBRANCH   7  14
BRANCH  10  15
ATOM     15  O   UNL     1       1.671   4.460  18.348  0.00  0.00    +0.000 OA
ATOM     16  C   UNL     1       1.771   3.396  19.293  0.00  0.00    +0.000 C 
ENDBRANCH  10  15
ENDBRANCH   1  11
BRANCH   3  17
ATOM     17  C   UNL     1       1.041  10.437  19.470  0.00  0.00    +0.000 C 
ATOM     18  O   UNL     1       0.943  11.055  20.525  0.00  0.00    +0.000 OA
ATOM     19  N   UNL     1       0.602  10.971  18.277  0.00  0.00    +0.000 N 
ATOM     20  H   UNL     1       0.876  10.530  17.412  0.00  0.00    +0.000 HD
BRANCH  19  21
ATOM     21  C   UNL     1       0.010  12.283  18.178  0.00  0.00    +0.000 C 
BRANCH  21  22
ATOM     22  C   UNL     1      -1.452  12.250  18.560  0.00  0.00    +0.000 A 
ATOM     23  C   UNL     1      -2.380  11.543  17.782  0.00  0.00    +0.000 A 
ATOM     24  C   UNL     1      -3.733  11.489  18.149  0.00  0.00    +0.000 A 
ATOM     25  C   UNL     1      -4.190  12.144  19.300  0.00  0.00    +0.000 A 
ATOM     26  C   UNL     1      -3.260  12.850  20.076  0.00  0.00    +0.000 A 
ATOM     27  C   UNL     1      -1.908  12.905  19.710  0.00  0.00    +0.000 A 
BRANCH  25  28
ATOM     28  C   UNL     1      -5.596  12.077  19.680  0.00  0.00    +0.000 A 
ATOM     29  C   UNL     1      -6.207  12.095  20.966  0.00  0.00    +0.000 A 
ATOM     30  C   UNL     1      -7.566  12.011  20.760  0.00  0.00    +0.000 A 
ATOM     31  O   UNL     1      -7.838  11.932  19.433  0.00  0.00    +0.000 OA
ATOM     32  C   UNL     1      -6.645  11.970  18.786  0.00  0.00    +0.000 A 
ENDBRANCH  25  28
ENDBRANCH  21  22
ENDBRANCH  19  21
ENDBRANCH   3  17
TORSDOF 7
ENDMDL
MODEL 9
REMARK VINA RESULT:      -7.6      1.112      2.413
REMARK  Name = 
REMARK  10 active torsions:
REMARK  status: ('A' for Active; 'I' for Inactive)
REMARK    1  A    between atoms: C_1  and  O_2
REMARK    2  A    between atoms: O_2  and  C_3
REMARK    3  A    between atoms: C_6  and  O_7
REMARK    4  A    between atoms: O_7  and  C_8
REMARK    5  A    between atoms: C_9  and  C_10
REMARK    6  A    between atoms: C_12  and  C_13
REMARK    7  A    between atoms: N_15  and  C_16
REMARK    8  A    between atoms: C_16  and  C_17
REMARK    9  A    between atoms: C_20  and  C_21
REMARK   10  A    between atoms: N_28  and  C_29
REMARK                            x       y       z     vdW  Elec       q    Type
REMARK                         _______ _______ _______ _____ _____    ______ ____
ROOT
ATOM      1  C   UNL     1       2.373   7.012  18.631  0.00  0.00    +0.000 A 
ATOM      2  C   UNL     1       1.985   8.163  17.902  0.00  0.00    +0.000 A 
ATOM      3  C   UNL     1       1.506   9.097  18.811  0.00  0.00    +0.000 A 
ATOM      4  N   UNL     1       1.579   8.445  20.018  0.00  0.00    +0.000 N 
ATOM      5  C   UNL     1       1.126   8.857  21.328  0.00  0.00    +0.000 C 
ATOM      6  N   UNL     1       2.131   7.218  19.936  0.00  0.00    +0.000 NA
ENDROOT
BRANCH   1  11
ATOM      7  C   UNL     1       4.824   4.681  16.956  0.00  0.00    +0.000 A 
ATOM      8  C   UNL     1       4.240   3.439  17.166  0.00  0.00    +0.000 A 
ATOM      9  C   UNL     1       3.032   3.332  17.851  0.00  0.00    +0.000 A 
ATOM     10  C   UNL     1       2.368   4.475  18.330  0.00  0.00    +0.000 A 
ATOM     11  C   UNL     1       2.964   5.742  18.155  0.00  0.00    +0.000 A 
ATOM     12  C   UNL     1       4.197   5.817  17.467  0.00  0.00    +0.000 A 
BRANCH   7  14
ATOM     13  C   UNL     1       5.967   5.253  14.954  0.00  0.00    +0.000 C 
ATOM     14  O   UNL     1       5.989   4.652  16.243  0.00  0.00    +0.000 OA
ENDBRANCH   7  14
BRANCH  10  15
ATOM     15  O   UNL     1       1.174   4.375  18.999  0.00  0.00    +0.000 OA
ATOM     16  C   UNL     1       1.193   3.629  20.215  0.00  0.00    +0.000 C 
ENDBRANCH  10  15
ENDBRANCH   1  11
BRANCH   3  17
ATOM     17  C   UNL     1       1.002  10.433  18.571  0.00  0.00    +0.000 C 
ATOM     18  O   UNL     1       1.677  11.452  18.675  0.00  0.00    +0.000 OA
ATOM     19  N   UNL     1      -0.327  10.482  18.207  0.00  0.00    +0.000 N 
ATOM     20  H   UNL     1      -0.793   9.628  17.938  0.00  0.00    +0.000 HD
BRANCH  19  21
ATOM     21  C   UNL     1      -1.014  11.717  17.917  0.00  0.00    +0.000 C 
BRANCH  21  22
ATOM     22  C   UNL     1      -2.079  12.002  18.950  0.00  0.00    +0.000 A 
ATOM     23  C   UNL     1      -1.730  12.364  20.258  0.00  0.00    +0.000 A 
ATOM     24  C   UNL     1      -2.716  12.657  21.212  0.00  0.00    +0.000 A 
ATOM     25  C   UNL     1      -4.076  12.590  20.880  0.00  0.00    +0.000 A 
ATOM     26  C   UNL     1      -4.422  12.227  19.571  0.00  0.00    +0.000 A 
ATOM     27  C   UNL     1      -3.437  11.935  18.618  0.00  0.00    +0.000 A 
BRANCH  25  28
ATOM     28  C   UNL     1      -5.096  12.902  21.874  0.00  0.00    +0.000 A 
ATOM     29  C   UNL     1      -6.480  12.569  21.911  0.00  0.00    +0.000 A 
ATOM     30  C   UNL     1      -6.984  13.106  23.074  0.00  0.00    +0.000 A 
ATOM     31  O   UNL     1      -6.009  13.759  23.755  0.00  0.00    +0.000 OA
ATOM     32  C   UNL     1      -4.871  13.634  23.023  0.00  0.00    +0.000 A 
ENDBRANCH  25  28
ENDBRANCH  21  22
ENDBRANCH  19  21
ENDBRANCH   3  17
TORSDOF 7
ENDMDL
