MODEL 1
REMARK VINA RESULT:      -8.0      0.000      0.000
REMARK  Name = 
REMARK  8 active torsions:
REMARK  status: ('A' for Active; 'I' for Inactive)
REMARK    1  A    between atoms: C_1  and  O_2
REMARK    2  A    between atoms: O_2  and  C_3
REMARK    3  A    between atoms: C_6  and  C_7
REMARK    4  A    between atoms: C_7  and  N_8
REMARK    5  A    between atoms: C_9  and  C_11
REMARK    6  A    between atoms: C_11  and  N_12
REMARK    7  A    between atoms: C_15  and  C_16
REMARK    8  A    between atoms: C_15  and  C_17
REMARK                            x       y       z     vdW  Elec       q    Type
REMARK                         _______ _______ _______ _____ _____    ______ ____
ROOT
ATOM      1  C   UNL     1       2.190   7.863  19.656  0.00  0.00    +0.000 C 
ENDROOT
BRANCH   1   2
ATOM      2  N   UNL     1       2.426   6.607  18.975  0.00  0.00    +0.000 N 
ATOM      3  C   UNL     1       2.038   5.419  19.640  0.00  0.00    +0.000 C 
ATOM      4  O   UNL     1       1.513   5.317  20.743  0.00  0.00    +0.000 OA
ATOM      5  C   UNL     1       2.462   4.286  18.723  0.00  0.00    +0.000 C 
ATOM      6  C   UNL     1       2.556   2.931  19.398  0.00  0.00    +0.000 C 
ATOM      7  C   UNL     1       1.429   4.234  17.566  0.00  0.00    +0.000 C 
ATOM      8  C   UNL     1       3.731   4.891  18.194  0.00  0.00    +0.000 A 
ATOM      9  C   UNL     1       4.931   4.294  17.851  0.00  0.00    +0.000 A 
ATOM     10  C   UNL     1       5.862   5.081  17.192  0.00  0.00    +0.000 A 
ATOM     11 CL   UNL     1       7.403   4.415  16.804  0.00  0.00    +0.000 Cl
ATOM     12  C   UNL     1       5.552   6.406  16.845  0.00  0.00    +0.000 A 
ATOM     13  C   UNL     1       4.392   7.041  17.351  0.00  0.00    +0.000 A 
ATOM     14  C   UNL     1       3.538   6.282  18.129  0.00  0.00    +0.000 A 
ENDBRANCH   1   2
BRANCH   1  16
ATOM     15  N   UNL     1       0.815   9.924  19.328  0.00  0.00    +0.000 N 
ATOM     16  C   UNL     1       1.552   8.935  18.705  0.00  0.00    +0.000 C 
ATOM     17  O   UNL     1       1.666   8.868  17.481  0.00  0.00    +0.000 OA
ATOM     18  H   UNL     1       0.447   9.722  20.256  0.00  0.00    +0.000 HD
BRANCH  15  19
ATOM     19  C   UNL     1       0.190  11.053  18.634  0.00  0.00    +0.000 C 
BRANCH  19  23
ATOM     20  C   UNL     1      -4.068  10.829  17.708  0.00  0.00    +0.000 A 
ATOM     21  C   UNL     1      -3.592  11.747  18.638  0.00  0.00    +0.000 A 
ATOM     22  C   UNL     1      -2.227  11.803  18.966  0.00  0.00    +0.000 A 
ATOM     23  C   UNL     1      -1.301  10.932  18.371  0.00  0.00    +0.000 A 
ATOM     24  C   UNL     1      -1.793  10.008  17.442  0.00  0.00    +0.000 A 
ATOM     25  C   UNL     1      -3.160   9.963  17.105  0.00  0.00    +0.000 A 
BRANCH  20  27
ATOM     26  C   UNL     1      -6.249  11.290  18.552  0.00  0.00    +0.000 C 
ATOM     27  O   UNL     1      -5.420  10.880  17.472  0.00  0.00    +0.000 OA
ENDBRANCH  20  27
ENDBRANCH  19  23
ENDBRANCH  15  19
ENDBRANCH   1  16
TORSDOF 5
ENDMDL
MODEL 2
REMARK VINA RESULT:      -7.5      2.413      2.860
REMARK  Name = 
REMARK  8 active torsions:
REMARK  status: ('A' for Active; 'I' for Inactive)
REMARK    1  A    between atoms: C_1  and  O_2
REMARK    2  A    between atoms: O_2  and  C_3
REMARK    3  A    between atoms: C_6  and  C_7
REMARK    4  A    between atoms: C_7  and  N_8
REMARK    5  A    between atoms: C_9  and  C_11
REMARK    6  A    between atoms: C_11  and  N_12
REMARK    7  A    between atoms: C_15  and  C_16
REMARK    8  A    between atoms: C_15  and  C_17
REMARK                            x       y       z     vdW  Elec       q    Type
REMARK                         _______ _______ _______ _____ _____    ______ ____
ROOT
ATOM      1  C   UNL     1       2.394   7.490  19.804  0.00  0.00    +0.000 C 
ENDROOT
BRANCH   1   2
ATOM      2  N   UNL     1       2.516   6.321  18.957  0.00  0.00    +0.000 N 
ATOM      3  C   UNL     1       2.197   5.064  19.527  0.00  0.00    +0.000 C 
ATOM      4  O   UNL     1       1.819   4.835  20.670  0.00  0.00    +0.000 OA
ATOM      5  C   UNL     1       2.477   4.045  18.437  0.00  0.00    +0.000 C 
ATOM      6  C   UNL     1       2.634   2.621  18.932  0.00  0.00    +0.000 C 
ATOM      7  C   UNL     1       1.300   4.131  17.429  0.00  0.00    +0.000 C 
ATOM      8  C   UNL     1       3.675   4.704  17.818  0.00  0.00    +0.000 A 
ATOM      9  C   UNL     1       4.809   4.148  17.252  0.00  0.00    +0.000 A 
ATOM     10  C   UNL     1       5.660   5.005  16.571  0.00  0.00    +0.000 A 
ATOM     11 CL   UNL     1       7.124   4.384  15.908  0.00  0.00    +0.000 Cl
ATOM     12  C   UNL     1       5.331   6.362  16.424  0.00  0.00    +0.000 A 
ATOM     13  C   UNL     1       4.259   6.937  17.148  0.00  0.00    +0.000 A 
ATOM     14  C   UNL     1       3.501   6.094  17.940  0.00  0.00    +0.000 A 
ENDBRANCH   1   2
BRANCH   1  16
ATOM     15  N   UNL     1       0.734   9.347  20.009  0.00  0.00    +0.000 N 
ATOM     16  C   UNL     1       1.513   8.605  19.141  0.00  0.00    +0.000 C 
ATOM     17  O   UNL     1       1.489   8.774  17.922  0.00  0.00    +0.000 OA
ATOM     18  H   UNL     1       0.508   8.931  20.910  0.00  0.00    +0.000 HD
BRANCH  15  19
ATOM     19  C   UNL     1      -0.111  10.474  19.606  0.00  0.00    +0.000 C 
BRANCH  19  23
ATOM     20  C   UNL     1      -2.272  12.469  22.829  0.00  0.00    +0.000 A 
ATOM     21  C   UNL     1      -2.419  12.888  21.511  0.00  0.00    +0.000 A 
ATOM     22  C   UNL     1      -1.702  12.272  20.472  0.00  0.00    +0.000 A 
ATOM     23  C   UNL     1      -0.810  11.220  20.729  0.00  0.00    +0.000 A 
ATOM     24  C   UNL     1      -0.665  10.812  22.060  0.00  0.00    +0.000 A 
ATOM     25  C   UNL     1      -1.394  11.423  23.099  0.00  0.00    +0.000 A 
BRANCH  20  27
ATOM     26  C   UNL     1      -4.080  12.423  24.381  0.00  0.00    +0.000 C 
ATOM     27  O   UNL     1      -3.032  13.148  23.749  0.00  0.00    +0.000 OA
ENDBRANCH  20  27
ENDBRANCH  19  23
ENDBRANCH  15  19
ENDBRANCH   1  16
TORSDOF 5
ENDMDL
MODEL 3
REMARK VINA RESULT:      -7.5      3.559      8.937
REMARK  Name = 
REMARK  8 active torsions:
REMARK  status: ('A' for Active; 'I' for Inactive)
REMARK    1  A    between atoms: C_1  and  O_2
REMARK    2  A    between atoms: O_2  and  C_3
REMARK    3  A    between atoms: C_6  and  C_7
REMARK    4  A    between atoms: C_7  and  N_8
REMARK    5  A    between atoms: C_9  and  C_11
REMARK    6  A    between atoms: C_11  and  N_12
REMARK    7  A    between atoms: C_15  and  C_16
REMARK    8  A    between atoms: C_15  and  C_17
REMARK                            x       y       z     vdW  Elec       q    Type
REMARK                         _______ _______ _______ _____ _____    ______ ____
ROOT
ATOM      1  C   UNL     1       0.680   9.757  19.948  0.00  0.00    +0.000 C 
ENDROOT
BRANCH   1   2
ATOM      2  N   UNL     1      -0.147  10.902  19.627  0.00  0.00    +0.000 N 
ATOM      3  C   UNL     1      -0.303  11.896  20.624  0.00  0.00    +0.000 C 
ATOM      4  O   UNL     1       0.185  11.912  21.748  0.00  0.00    +0.000 OA
ATOM      5  C   UNL     1      -1.256  12.918  20.028  0.00  0.00    +0.000 C 
ATOM      6  C   UNL     1      -1.916  13.830  21.044  0.00  0.00    +0.000 C 
ATOM      7  C   UNL     1      -0.435  13.757  19.013  0.00  0.00    +0.000 C 
ATOM      8  C   UNL     1      -2.138  11.978  19.258  0.00  0.00    +0.000 A 
ATOM      9  C   UNL     1      -3.497  12.032  19.005  0.00  0.00    +0.000 A 
ATOM     10  C   UNL     1      -4.004  11.128  18.085  0.00  0.00    +0.000 A 
ATOM     11 CL   UNL     1      -5.700  11.098  17.782  0.00  0.00    +0.000 Cl
ATOM     12  C   UNL     1      -3.145  10.247  17.408  0.00  0.00    +0.000 A 
ATOM     13  C   UNL     1      -1.793  10.097  17.803  0.00  0.00    +0.000 A 
ATOM     14  C   UNL     1      -1.334  10.908  18.824  0.00  0.00    +0.000 A 
ENDBRANCH   1   2
BRANCH   1  16
ATOM     15  N   UNL     1       2.199   8.121  18.825  0.00  0.00    +0.000 N 
ATOM     16  C   UNL     1       1.655   9.390  18.775  0.00  0.00    +0.000 C 
ATOM     17  O   UNL     1       1.946  10.200  17.895  0.00  0.00    +0.000 OA
ATOM     18  H   UNL     1       2.230   7.658  19.731  0.00  0.00    +0.000 HD
BRANCH  15  19
ATOM     19  C   UNL     1       3.080   7.557  17.799  0.00  0.00    +0.000 C 
BRANCH  19  23
ATOM     20  C   UNL     1       3.478   3.216  17.605  0.00  0.00    +0.000 A 
ATOM     21  C   UNL     1       2.263   3.802  17.946  0.00  0.00    +0.000 A 
ATOM     22  C   UNL     1       2.136   5.198  18.043  0.00  0.00    +0.000 A 
ATOM     23  C   UNL     1       3.229   6.045  17.805  0.00  0.00    +0.000 A 
ATOM     24  C   UNL     1       4.448   5.443  17.469  0.00  0.00    +0.000 A 
ATOM     25  C   UNL     1       4.570   4.044  17.361  0.00  0.00    +0.000 A 
BRANCH  20  27
ATOM     26  C   UNL     1       3.755   1.139  18.741  0.00  0.00    +0.000 C 
ATOM     27  O   UNL     1       3.470   1.845  17.539  0.00  0.00    +0.000 OA
ENDBRANCH  20  27
ENDBRANCH  19  23
ENDBRANCH  15  19
ENDBRANCH   1  16
TORSDOF 5
ENDMDL
MODEL 4
REMARK VINA RESULT:      -7.4      3.452      8.320
REMARK  Name = 
REMARK  8 active torsions:
REMARK  status: ('A' for Active; 'I' for Inactive)
REMARK    1  A    between atoms: C_1  and  O_2
REMARK    2  A    between atoms: O_2  and  C_3
REMARK    3  A    between atoms: C_6  and  C_7
REMARK    4  A    between atoms: C_7  and  N_8
REMARK    5  A    between atoms: C_9  and  C_11
REMARK    6  A    between atoms: C_11  and  N_12
REMARK    7  A    between atoms: C_15  and  C_16
REMARK    8  A    between atoms: C_15  and  C_17
REMARK                            x       y       z     vdW  Elec       q    Type
REMARK                         _______ _______ _______ _____ _____    ______ ____
ROOT
ATOM      1  C   UNL     1       1.278   9.715  21.872  0.00  0.00    +0.000 C 
ENDROOT
BRANCH   1   2
ATOM      2  N   UNL     1       0.445  10.716  21.237  0.00  0.00    +0.000 N 
ATOM      3  C   UNL     1      -0.486  11.404  22.053  0.00  0.00    +0.000 C 
ATOM      4  O   UNL     1      -0.680  11.258  23.254  0.00  0.00    +0.000 OA
ATOM      5  C   UNL     1      -1.242  12.325  21.111  0.00  0.00    +0.000 C 
ATOM      6  C   UNL     1      -2.565  12.831  21.654  0.00  0.00    +0.000 C 
ATOM      7  C   UNL     1      -0.302  13.520  20.802  0.00  0.00    +0.000 C 
ATOM      8  C   UNL     1      -1.279  11.431  19.906  0.00  0.00    +0.000 A 
ATOM      9  C   UNL     1      -2.257  11.271  18.941  0.00  0.00    +0.000 A 
ATOM     10  C   UNL     1      -1.926  10.519  17.824  0.00  0.00    +0.000 A 
ATOM     11 CL   UNL     1      -3.125  10.224  16.623  0.00  0.00    +0.000 Cl
ATOM     12  C   UNL     1      -0.627  10.005  17.675  0.00  0.00    +0.000 A 
ATOM     13  C   UNL     1       0.299  10.039  18.746  0.00  0.00    +0.000 A 
ATOM     14  C   UNL     1      -0.097  10.670  19.911  0.00  0.00    +0.000 A 
ENDBRANCH   1   2
BRANCH   1  16
ATOM     15  N   UNL     1       1.800   7.474  20.894  0.00  0.00    +0.000 N 
ATOM     16  C   UNL     1       0.834   8.258  21.495  0.00  0.00    +0.000 C 
ATOM     17  O   UNL     1      -0.316   7.860  21.686  0.00  0.00    +0.000 OA
ATOM     18  H   UNL     1       2.570   7.952  20.430  0.00  0.00    +0.000 HD
BRANCH  15  19
ATOM     19  C   UNL     1       1.613   6.070  20.522  0.00  0.00    +0.000 C 
BRANCH  19  23
ATOM     20  C   UNL     1       3.923   4.569  17.138  0.00  0.00    +0.000 A 
ATOM     21  C   UNL     1       4.316   5.723  17.808  0.00  0.00    +0.000 A 
ATOM     22  C   UNL     1       3.559   6.230  18.878  0.00  0.00    +0.000 A 
ATOM     23  C   UNL     1       2.381   5.595  19.300  0.00  0.00    +0.000 A 
ATOM     24  C   UNL     1       1.993   4.439  18.614  0.00  0.00    +0.000 A 
ATOM     25  C   UNL     1       2.760   3.924  17.550  0.00  0.00    +0.000 A 
BRANCH  20  27
ATOM     26  C   UNL     1       5.478   5.195  15.443  0.00  0.00    +0.000 C 
ATOM     27  O   UNL     1       4.751   4.174  16.116  0.00  0.00    +0.000 OA
ENDBRANCH  20  27
ENDBRANCH  19  23
ENDBRANCH  15  19
ENDBRANCH   1  16
TORSDOF 5
ENDMDL
MODEL 5
REMARK VINA RESULT:      -7.3      2.515      4.004
REMARK  Name = 
REMARK  8 active torsions:
REMARK  status: ('A' for Active; 'I' for Inactive)
REMARK    1  A    between atoms: C_1  and  O_2
REMARK    2  A    between atoms: O_2  and  C_3
REMARK    3  A    between atoms: C_6  and  C_7
REMARK    4  A    between atoms: C_7  and  N_8
REMARK    5  A    between atoms: C_9  and  C_11
REMARK    6  A    between atoms: C_11  and  N_12
REMARK    7  A    between atoms: C_15  and  C_16
REMARK    8  A    between atoms: C_15  and  C_17
REMARK                            x       y       z     vdW  Elec       q    Type
REMARK                         _______ _______ _______ _____ _____    ______ ____
ROOT
ATOM      1  C   UNL     1       2.234   7.737  19.712  0.00  0.00    +0.000 C 
ENDROOT
BRANCH   1   2
ATOM      2  N   UNL     1       2.469   6.489  19.015  0.00  0.00    +0.000 N 
ATOM      3  C   UNL     1       2.131   5.290  19.688  0.00  0.00    +0.000 C 
ATOM      4  O   UNL     1       1.652   5.172  20.810  0.00  0.00    +0.000 OA
ATOM      5  C   UNL     1       2.543   4.171  18.749  0.00  0.00    +0.000 C 
ATOM      6  C   UNL     1       2.691   2.815  19.411  0.00  0.00    +0.000 C 
ATOM      7  C   UNL     1       1.466   4.103  17.634  0.00  0.00    +0.000 C 
ATOM      8  C   UNL     1       3.776   4.805  18.173  0.00  0.00    +0.000 A 
ATOM      9  C   UNL     1       4.974   4.234  17.781  0.00  0.00    +0.000 A 
ATOM     10  C   UNL     1       5.862   5.045  17.090  0.00  0.00    +0.000 A 
ATOM     11 CL   UNL     1       7.400   4.413  16.638  0.00  0.00    +0.000 Cl
ATOM     12  C   UNL     1       5.511   6.365  16.763  0.00  0.00    +0.000 A 
ATOM     13  C   UNL     1       4.359   6.973  17.317  0.00  0.00    +0.000 A 
ATOM     14  C   UNL     1       3.552   6.192  18.125  0.00  0.00    +0.000 A 
ENDBRANCH   1   2
BRANCH   1  16
ATOM     15  N   UNL     1       0.946   9.863  19.452  0.00  0.00    +0.000 N 
ATOM     16  C   UNL     1       1.532   8.799  18.795  0.00  0.00    +0.000 C 
ATOM     17  O   UNL     1       1.472   8.663  17.573  0.00  0.00    +0.000 OA
ATOM     18  H   UNL     1       0.698   9.732  20.431  0.00  0.00    +0.000 HD
BRANCH  15  19
ATOM     19  C   UNL     1       0.295  10.993  18.784  0.00  0.00    +0.000 C 
BRANCH  19  23
ATOM     20  C   UNL     1       2.267  14.885  18.863  0.00  0.00    +0.000 A 
ATOM     21  C   UNL     1       2.904  13.779  18.310  0.00  0.00    +0.000 A 
ATOM     22  C   UNL     1       2.289  12.515  18.310  0.00  0.00    +0.000 A 
ATOM     23  C   UNL     1       1.017  12.327  18.873  0.00  0.00    +0.000 A 
ATOM     24  C   UNL     1       0.390  13.446  19.432  0.00  0.00    +0.000 A 
ATOM     25  C   UNL     1       1.003  14.714  19.419  0.00  0.00    +0.000 A 
BRANCH  20  27
ATOM     26  C   UNL     1       3.179  16.615  17.501  0.00  0.00    +0.000 C 
ATOM     27  O   UNL     1       2.971  16.062  18.795  0.00  0.00    +0.000 OA
ENDBRANCH  20  27
ENDBRANCH  19  23
ENDBRANCH  15  19
ENDBRANCH   1  16
TORSDOF 5
ENDMDL
MODEL 6
REMARK VINA RESULT:      -7.3      2.644      3.107
REMARK  Name = 
REMARK  8 active torsions:
REMARK  status: ('A' for Active; 'I' for Inactive)
REMARK    1  A    between atoms: C_1  and  O_2
REMARK    2  A    between atoms: O_2  and  C_3
REMARK    3  A    between atoms: C_6  and  C_7
REMARK    4  A    between atoms: C_7  and  N_8
REMARK    5  A    between atoms: C_9  and  C_11
REMARK    6  A    between atoms: C_11  and  N_12
REMARK    7  A    between atoms: C_15  and  C_16
REMARK    8  A    between atoms: C_15  and  C_17
REMARK                            x       y       z     vdW  Elec       q    Type
REMARK                         _______ _______ _______ _____ _____    ______ ____
ROOT
ATOM      1  C   UNL     1       3.391   5.935  20.142  0.00  0.00    +0.000 C 
ENDROOT
BRANCH   1   2
ATOM      2  N   UNL     1       3.352   5.050  18.996  0.00  0.00    +0.000 N 
ATOM      3  C   UNL     1       3.352   3.656  19.246  0.00  0.00    +0.000 C 
ATOM      4  O   UNL     1       3.379   3.091  20.334  0.00  0.00    +0.000 OA
ATOM      5  C   UNL     1       3.372   3.001  17.876  0.00  0.00    +0.000 C 
ATOM      6  C   UNL     1       3.815   1.551  17.879  0.00  0.00    +0.000 C 
ATOM      7  C   UNL     1       1.935   3.117  17.303  0.00  0.00    +0.000 C 
ATOM      8  C   UNL     1       4.245   3.995  17.166  0.00  0.00    +0.000 A 
ATOM      9  C   UNL     1       5.191   3.806  16.175  0.00  0.00    +0.000 A 
ATOM     10  C   UNL     1       5.696   4.942  15.560  0.00  0.00    +0.000 A 
ATOM     11 CL   UNL     1       6.929   4.775  14.369  0.00  0.00    +0.000 Cl
ATOM     12  C   UNL     1       5.207   6.213  15.905  0.00  0.00    +0.000 A 
ATOM     13  C   UNL     1       4.367   6.391  17.031  0.00  0.00    +0.000 A 
ATOM     14  C   UNL     1       3.984   5.258  17.726  0.00  0.00    +0.000 A 
ENDBRANCH   1   2
BRANCH   1  16
ATOM     15  N   UNL     1       1.838   7.716  20.959  0.00  0.00    +0.000 N 
ATOM     16  C   UNL     1       1.955   6.393  20.578  0.00  0.00    +0.000 C 
ATOM     17  O   UNL     1       1.008   5.607  20.619  0.00  0.00    +0.000 OA
ATOM     18  H   UNL     1       2.684   8.193  21.264  0.00  0.00    +0.000 HD
BRANCH  15  19
ATOM     19  C   UNL     1       0.579   8.360  21.340  0.00  0.00    +0.000 C 
BRANCH  19  23
ATOM     20  C   UNL     1      -0.289  12.052  19.184  0.00  0.00    +0.000 A 
ATOM     21  C   UNL     1      -0.766  11.857  20.476  0.00  0.00    +0.000 A 
ATOM     22  C   UNL     1      -0.518  10.658  21.164  0.00  0.00    +0.000 A 
ATOM     23  C   UNL     1       0.212   9.617  20.570  0.00  0.00    +0.000 A 
ATOM     24  C   UNL     1       0.680   9.822  19.267  0.00  0.00    +0.000 A 
ATOM     25  C   UNL     1       0.441  11.030  18.583  0.00  0.00    +0.000 A 
BRANCH  20  27
ATOM     26  C   UNL     1      -0.539  14.404  19.478  0.00  0.00    +0.000 C 
ATOM     27  O   UNL     1      -0.593  13.268  18.623  0.00  0.00    +0.000 OA
ENDBRANCH  20  27
ENDBRANCH  19  23
ENDBRANCH  15  19
ENDBRANCH   1  16
TORSDOF 5
ENDMDL
MODEL 7
REMARK VINA RESULT:      -7.2      3.815      9.011
REMARK  Name = 
REMARK  8 active torsions:
REMARK  status: ('A' for Active; 'I' for Inactive)
REMARK    1  A    between atoms: C_1  and  O_2
REMARK    2  A    between atoms: O_2  and  C_3
REMARK    3  A    between atoms: C_6  and  C_7
REMARK    4  A    between atoms: C_7  and  N_8
REMARK    5  A    between atoms: C_9  and  C_11
REMARK    6  A    between atoms: C_11  and  N_12
REMARK    7  A    between atoms: C_15  and  C_16
REMARK    8  A    between atoms: C_15  and  C_17
REMARK                            x       y       z     vdW  Elec       q    Type
REMARK                         _______ _______ _______ _____ _____    ______ ____
ROOT
ATOM      1  C   UNL     1       1.872   8.737  20.789  0.00  0.00    +0.000 C 
ENDROOT
BRANCH   1   2
ATOM      2  N   UNL     1       0.708   9.514  20.417  0.00  0.00    +0.000 N 
ATOM      3  C   UNL     1       0.799  10.311  19.250  0.00  0.00    +0.000 C 
ATOM      4  O   UNL     1       1.759  10.427  18.496  0.00  0.00    +0.000 OA
ATOM      5  C   UNL     1      -0.529  11.043  19.156  0.00  0.00    +0.000 C 
ATOM      6  C   UNL     1      -0.512  12.266  18.260  0.00  0.00    +0.000 C 
ATOM      7  C   UNL     1      -1.570  10.016  18.637  0.00  0.00    +0.000 C 
ATOM      8  C   UNL     1      -0.769  11.256  20.623  0.00  0.00    +0.000 A 
ATOM      9  C   UNL     1      -1.363  12.314  21.287  0.00  0.00    +0.000 A 
ATOM     10  C   UNL     1      -1.634  12.141  22.636  0.00  0.00    +0.000 A 
ATOM     11 CL   UNL     1      -2.305  13.450  23.533  0.00  0.00    +0.000 Cl
ATOM     12  C   UNL     1      -1.363  10.914  23.262  0.00  0.00    +0.000 A 
ATOM     13  C   UNL     1      -0.607   9.911  22.608  0.00  0.00    +0.000 A 
ATOM     14  C   UNL     1      -0.218  10.156  21.304  0.00  0.00    +0.000 A 
ENDBRANCH   1   2
BRANCH   1  16
ATOM     15  N   UNL     1       2.282   7.193  18.867  0.00  0.00    +0.000 N 
ATOM     16  C   UNL     1       1.838   7.296  20.171  0.00  0.00    +0.000 C 
ATOM     17  O   UNL     1       1.400   6.331  20.798  0.00  0.00    +0.000 OA
ATOM     18  H   UNL     1       2.265   8.036  18.297  0.00  0.00    +0.000 HD
BRANCH  15  19
ATOM     19  C   UNL     1       2.392   5.934  18.126  0.00  0.00    +0.000 C 
BRANCH  19  23
ATOM     20  C   UNL     1       6.178   5.151  16.105  0.00  0.00    +0.000 A 
ATOM     21  C   UNL     1       5.344   4.102  16.477  0.00  0.00    +0.000 A 
ATOM     22  C   UNL     1       4.138   4.345  17.157  0.00  0.00    +0.000 A 
ATOM     23  C   UNL     1       3.741   5.649  17.488  0.00  0.00    +0.000 A 
ATOM     24  C   UNL     1       4.593   6.695  17.114  0.00  0.00    +0.000 A 
ATOM     25  C   UNL     1       5.795   6.451  16.421  0.00  0.00    +0.000 A 
BRANCH  20  27
ATOM     26  C   UNL     1       7.300   4.864  14.021  0.00  0.00    +0.000 C 
ATOM     27  O   UNL     1       7.323   4.782  15.441  0.00  0.00    +0.000 OA
ENDBRANCH  20  27
ENDBRANCH  19  23
ENDBRANCH  15  19
ENDBRANCH   1  16
TORSDOF 5
ENDMDL
MODEL 8
REMARK VINA RESULT:      -7.2      1.155      1.600
REMARK  Name = 
REMARK  8 active torsions:
REMARK  status: ('A' for Active; 'I' for Inactive)
REMARK    1  A    between atoms: C_1  and  O_2
REMARK    2  A    between atoms: O_2  and  C_3
REMARK    3  A    between atoms: C_6  and  C_7
REMARK    4  A    between atoms: C_7  and  N_8
REMARK    5  A    between atoms: C_9  and  C_11
REMARK    6  A    between atoms: C_11  and  N_12
REMARK    7  A    between atoms: C_15  and  C_16
REMARK    8  A    between atoms: C_15  and  C_17
REMARK                            x       y       z     vdW  Elec       q    Type
REMARK                         _______ _______ _______ _____ _____    ______ ____
ROOT
ATOM      1  C   UNL     1       2.191   7.982  19.551  0.00  0.00    +0.000 C 
ENDROOT
BRANCH   1   2
ATOM      2  N   UNL     1       2.490   6.675  19.004  0.00  0.00    +0.000 N 
ATOM      3  C   UNL     1       2.080   5.544  19.751  0.00  0.00    +0.000 C 
ATOM      4  O   UNL     1       1.489   5.530  20.825  0.00  0.00    +0.000 OA
ATOM      5  C   UNL     1       2.580   4.342  18.969  0.00  0.00    +0.000 C 
ATOM      6  C   UNL     1       2.654   3.056  19.771  0.00  0.00    +0.000 C 
ATOM      7  C   UNL     1       1.622   4.162  17.762  0.00  0.00    +0.000 C 
ATOM      8  C   UNL     1       3.869   4.924  18.465  0.00  0.00    +0.000 A 
ATOM      9  C   UNL     1       5.098   4.325  18.253  0.00  0.00    +0.000 A 
ATOM     10  C   UNL     1       6.055   5.070  17.581  0.00  0.00    +0.000 A 
ATOM     11 CL   UNL     1       7.628   4.406  17.351  0.00  0.00    +0.000 Cl
ATOM     12  C   UNL     1       5.746   6.351  17.096  0.00  0.00    +0.000 A 
ATOM     13  C   UNL     1       4.546   7.003  17.470  0.00  0.00    +0.000 A 
ATOM     14  C   UNL     1       3.657   6.299  18.261  0.00  0.00    +0.000 A 
ENDBRANCH   1   2
BRANCH   1  16
ATOM     15  N   UNL     1       0.445   9.648  18.902  0.00  0.00    +0.000 N 
ATOM     16  C   UNL     1       1.550   8.933  18.481  0.00  0.00    +0.000 C 
ATOM     17  O   UNL     1       1.981   9.000  17.330  0.00  0.00    +0.000 OA
ATOM     18  H   UNL     1      -0.077   9.283  19.696  0.00  0.00    +0.000 HD
BRANCH  15  19
ATOM     19  C   UNL     1      -0.263  10.636  18.084  0.00  0.00    +0.000 C 
BRANCH  19  23
ATOM     20  C   UNL     1      -3.592  12.554  20.152  0.00  0.00    +0.000 A 
ATOM     21  C   UNL     1      -3.797  11.877  18.954  0.00  0.00    +0.000 A 
ATOM     22  C   UNL     1      -2.725  11.285  18.266  0.00  0.00    +0.000 A 
ATOM     23  C   UNL     1      -1.414  11.362  18.759  0.00  0.00    +0.000 A 
ATOM     24  C   UNL     1      -1.219  12.052  19.961  0.00  0.00    +0.000 A 
ATOM     25  C   UNL     1      -2.297  12.634  20.657  0.00  0.00    +0.000 A 
BRANCH  20  27
ATOM     26  C   UNL     1      -5.883  12.261  20.742  0.00  0.00    +0.000 C 
ATOM     27  O   UNL     1      -4.721  13.082  20.728  0.00  0.00    +0.000 OA
ENDBRANCH  20  27
ENDBRANCH  19  23
ENDBRANCH  15  19
ENDBRANCH   1  16
TORSDOF 5
ENDMDL
MODEL 9
REMARK VINA RESULT:      -7.2      2.437      3.914
REMARK  Name = 
REMARK  8 active torsions:
REMARK  status: ('A' for Active; 'I' for Inactive)
REMARK    1  A    between atoms: C_1  and  O_2
REMARK    2  A    between atoms: O_2  and  C_3
REMARK    3  A    between atoms: C_6  and  C_7
REMARK    4  A    between atoms: C_7  and  N_8
REMARK    5  A    between atoms: C_9  and  C_11
REMARK    6  A    between atoms: C_11  and  N_12
REMARK    7  A    between atoms: C_15  and  C_16
REMARK    8  A    between atoms: C_15  and  C_17
REMARK                            x       y       z     vdW  Elec       q    Type
REMARK                         _______ _______ _______ _____ _____    ______ ____
ROOT
ATOM      1  C   UNL     1       2.208   7.775  19.757  0.00  0.00    +0.000 C 
ENDROOT
BRANCH   1   2
ATOM      2  N   UNL     1       2.445   6.531  19.053  0.00  0.00    +0.000 N 
ATOM      3  C   UNL     1       2.087   5.329  19.711  0.00  0.00    +0.000 C 
ATOM      4  O   UNL     1       1.588   5.205  20.823  0.00  0.00    +0.000 OA
ATOM      5  C   UNL     1       2.506   4.215  18.768  0.00  0.00    +0.000 C 
ATOM      6  C   UNL     1       2.633   2.852  19.422  0.00  0.00    +0.000 C 
ATOM      7  C   UNL     1       1.448   4.165  17.634  0.00  0.00    +0.000 C 
ATOM      8  C   UNL     1       3.755   4.844  18.220  0.00  0.00    +0.000 A 
ATOM      9  C   UNL     1       4.954   4.268  17.843  0.00  0.00    +0.000 A 
ATOM     10  C   UNL     1       5.860   5.077  17.175  0.00  0.00    +0.000 A 
ATOM     11 CL   UNL     1       7.401   4.437  16.744  0.00  0.00    +0.000 Cl
ATOM     12  C   UNL     1       5.525   6.402  16.853  0.00  0.00    +0.000 A 
ATOM     13  C   UNL     1       4.368   7.014  17.393  0.00  0.00    +0.000 A 
ATOM     14  C   UNL     1       3.542   6.233  18.180  0.00  0.00    +0.000 A 
ENDBRANCH   1   2
BRANCH   1  16
ATOM     15  N   UNL     1       0.790   9.823  19.546  0.00  0.00    +0.000 N 
ATOM     16  C   UNL     1       1.452   8.820  18.864  0.00  0.00    +0.000 C 
ATOM     17  O   UNL     1       1.417   8.721  17.637  0.00  0.00    +0.000 OA
ATOM     18  H   UNL     1       0.538   9.644  20.516  0.00  0.00    +0.000 HD
BRANCH  15  19
ATOM     19  C   UNL     1       0.079  10.931  18.904  0.00  0.00    +0.000 C 
BRANCH  19  23
ATOM     20  C   UNL     1       2.353  14.653  18.788  0.00  0.00    +0.000 A 
ATOM     21  C   UNL     1       1.037  14.639  19.241  0.00  0.00    +0.000 A 
ATOM     22  C   UNL     1       0.288  13.451  19.250  0.00  0.00    +0.000 A 
ATOM     23  C   UNL     1       0.839  12.242  18.799  0.00  0.00    +0.000 A 
ATOM     24  C   UNL     1       2.161  12.269  18.340  0.00  0.00    +0.000 A 
ATOM     25  C   UNL     1       2.914  13.459  18.343  0.00  0.00    +0.000 A 
BRANCH  20  27
ATOM     26  C   UNL     1       3.733  16.169  20.004  0.00  0.00    +0.000 C 
ATOM     27  O   UNL     1       2.977  15.875  18.835  0.00  0.00    +0.000 OA
ENDBRANCH  20  27
ENDBRANCH  19  23
ENDBRANCH  15  19
ENDBRANCH   1  16
TORSDOF 5
ENDMDL
