MODEL 1
REMARK VINA RESULT:      -8.0      0.000      0.000
REMARK  Name = 
REMARK  5 active torsions:
REMARK  status: ('A' for Active; 'I' for Inactive)
REMARK    1  A    between atoms: C_1  and  C_2
REMARK    2  A    between atoms: C_5  and  C_6
REMARK    3  A    between atoms: C_7  and  C_8
REMARK    4  A    between atoms: C_8  and  C_10
REMARK    5  A    between atoms: C_10  and  N_11
REMARK                            x       y       z     vdW  Elec       q    Type
REMARK                         _______ _______ _______ _____ _____    ______ ____
ROOT
ATOM      1  C   UNL     1       2.367   4.170  17.678  0.00  0.00    +0.000 C 
ATOM      2  O   UNL     1       1.336   3.680  17.220  0.00  0.00    +0.000 OA
ENDROOT
BRANCH   1   9
ATOM      3  C   UNL     1       2.054   9.159  17.962  0.00  0.00    +0.000 C 
ATOM      4  C   UNL     1       2.092   7.837  18.668  0.00  0.00    +0.000 A 
ATOM      5  C   UNL     1       1.928   7.748  20.047  0.00  0.00    +0.000 A 
ATOM      6  C   UNL     1       1.941   6.501  20.675  0.00  0.00    +0.000 A 
ATOM      7  C   UNL     1       2.110   5.313  19.938  0.00  0.00    +0.000 A 
ATOM      8  C   UNL     1       2.115   4.009  20.688  0.00  0.00    +0.000 C 
ATOM      9  C   UNL     1       2.271   5.396  18.540  0.00  0.00    +0.000 A 
ATOM     10  C   UNL     1       2.268   6.660  17.929  0.00  0.00    +0.000 A 
ENDBRANCH   1   9
BRANCH   1  11
ATOM     11  C   UNL     1       3.743   3.594  17.348  0.00  0.00    +0.000 C 
BRANCH  11  12
ATOM     12  N   UNL     1       4.807   4.598  17.447  0.00  0.00    +0.000 N 
ATOM     13  N   UNL     1       4.818   5.558  16.456  0.00  0.00    +0.000 NA
ATOM     14  C   UNL     1       5.734   6.466  16.518  0.00  0.00    +0.000 A 
ATOM     15  C   UNL     1       6.757   6.573  17.558  0.00  0.00    +0.000 A 
ATOM     16 CL   UNL     1       7.876   7.868  17.414  0.00  0.00    +0.000 Cl
ATOM     17  C   UNL     1       6.723   5.666  18.535  0.00  0.00    +0.000 A 
ATOM     18 CL   UNL     1       7.846   5.676  19.851  0.00  0.00    +0.000 Cl
ATOM     19  C   UNL     1       5.676   4.600  18.539  0.00  0.00    +0.000 A 
ATOM     20  O   UNL     1       5.587   3.808  19.474  0.00  0.00    +0.000 OA
ENDBRANCH  11  12
ENDBRANCH   1  11
TORSDOF 3
ENDMDL
MODEL 2
REMARK VINA RESULT:      -7.7      1.396      1.826
REMARK  Name = 
REMARK  5 active torsions:
REMARK  status: ('A' for Active; 'I' for Inactive)
REMARK    1  A    between atoms: C_1  and  C_2
REMARK    2  A    between atoms: C_5  and  C_6
REMARK    3  A    between atoms: C_7  and  C_8
REMARK    4  A    between atoms: C_8  and  C_10
REMARK    5  A    between atoms: C_10  and  N_11
REMARK                            x       y       z     vdW  Elec       q    Type
REMARK                         _______ _______ _______ _____ _____    ______ ____
ROOT
ATOM      1  C   UNL     1       2.430   3.585  18.245  0.00  0.00    +0.000 C 
ATOM      2  O   UNL     1       1.437   3.054  17.750  0.00  0.00    +0.000 OA
ENDROOT
BRANCH   1   9
ATOM      3  C   UNL     1       2.365   8.565  17.735  0.00  0.00    +0.000 C 
ATOM      4  C   UNL     1       2.234   7.368  18.628  0.00  0.00    +0.000 A 
ATOM      5  C   UNL     1       1.884   7.500  19.969  0.00  0.00    +0.000 A 
ATOM      6  C   UNL     1       1.743   6.367  20.771  0.00  0.00    +0.000 A 
ATOM      7  C   UNL     1       1.940   5.073  20.251  0.00  0.00    +0.000 A 
ATOM      8  C   UNL     1       1.771   3.902  21.180  0.00  0.00    +0.000 C 
ATOM      9  C   UNL     1       2.290   4.932  18.892  0.00  0.00    +0.000 A 
ATOM     10  C   UNL     1       2.440   6.086  18.105  0.00  0.00    +0.000 A 
ENDBRANCH   1   9
BRANCH   1  11
ATOM     11  C   UNL     1       3.810   2.931  18.169  0.00  0.00    +0.000 C 
BRANCH  11  12
ATOM     12  N   UNL     1       4.894   3.917  18.153  0.00  0.00    +0.000 N 
ATOM     13  N   UNL     1       5.332   4.344  19.389  0.00  0.00    +0.000 NA
ATOM     14  C   UNL     1       6.296   5.204  19.414  0.00  0.00    +0.000 A 
ATOM     15  C   UNL     1       6.973   5.758  18.241  0.00  0.00    +0.000 A 
ATOM     16 CL   UNL     1       8.222   6.899  18.535  0.00  0.00    +0.000 Cl
ATOM     17  C   UNL     1       6.573   5.317  17.048  0.00  0.00    +0.000 A 
ATOM     18 CL   UNL     1       7.293   5.853  15.570  0.00  0.00    +0.000 Cl
ATOM     19  C   UNL     1       5.479   4.304  16.946  0.00  0.00    +0.000 A 
ATOM     20  O   UNL     1       5.156   3.833  15.858  0.00  0.00    +0.000 OA
ENDBRANCH  11  12
ENDBRANCH   1  11
TORSDOF 3
ENDMDL
MODEL 3
REMARK VINA RESULT:      -7.6      0.946      2.556
REMARK  Name = 
REMARK  5 active torsions:
REMARK  status: ('A' for Active; 'I' for Inactive)
REMARK    1  A    between atoms: C_1  and  C_2
REMARK    2  A    between atoms: C_5  and  C_6
REMARK    3  A    between atoms: C_7  and  C_8
REMARK    4  A    between atoms: C_8  and  C_10
REMARK    5  A    between atoms: C_10  and  N_11
REMARK                            x       y       z     vdW  Elec       q    Type
REMARK                         _______ _______ _______ _____ _____    ______ ____
ROOT
ATOM      1  C   UNL     1       2.827   3.656  17.260  0.00  0.00    +0.000 C 
ATOM      2  O   UNL     1       1.993   3.646  16.357  0.00  0.00    +0.000 OA
ENDROOT
BRANCH   1   9
ATOM      3  C   UNL     1       1.623   2.464  21.972  0.00  0.00    +0.000 C 
ATOM      4  C   UNL     1       1.852   3.526  20.939  0.00  0.00    +0.000 A 
ATOM      5  C   UNL     1       1.798   4.878  21.267  0.00  0.00    +0.000 A 
ATOM      6  C   UNL     1       2.041   5.846  20.290  0.00  0.00    +0.000 A 
ATOM      7  C   UNL     1       2.353   5.486  18.965  0.00  0.00    +0.000 A 
ATOM      8  C   UNL     1       2.601   6.587  17.971  0.00  0.00    +0.000 C 
ATOM      9  C   UNL     1       2.415   4.118  18.628  0.00  0.00    +0.000 A 
ATOM     10  C   UNL     1       2.154   3.160  19.621  0.00  0.00    +0.000 A 
ENDBRANCH   1   9
BRANCH   1  11
ATOM     11  C   UNL     1       4.283   3.262  17.012  0.00  0.00    +0.000 C 
BRANCH  11  12
ATOM     12  N   UNL     1       5.205   4.385  17.200  0.00  0.00    +0.000 N 
ATOM     13  N   UNL     1       5.229   5.317  16.183  0.00  0.00    +0.000 NA
ATOM     14  C   UNL     1       6.021   6.327  16.320  0.00  0.00    +0.000 A 
ATOM     15  C   UNL     1       6.890   6.577  17.470  0.00  0.00    +0.000 A 
ATOM     16 CL   UNL     1       7.863   7.991  17.413  0.00  0.00    +0.000 Cl
ATOM     17  C   UNL     1       6.840   5.695  18.469  0.00  0.00    +0.000 A 
ATOM     18 CL   UNL     1       7.784   5.866  19.908  0.00  0.00    +0.000 Cl
ATOM     19  C   UNL     1       5.928   4.515  18.388  0.00  0.00    +0.000 A 
ATOM     20  O   UNL     1       5.815   3.739  19.334  0.00  0.00    +0.000 OA
ENDBRANCH  11  12
ENDBRANCH   1  11
TORSDOF 3
ENDMDL
MODEL 4
REMARK VINA RESULT:      -7.5      1.304      1.375
REMARK  Name = 
REMARK  5 active torsions:
REMARK  status: ('A' for Active; 'I' for Inactive)
REMARK    1  A    between atoms: C_1  and  C_2
REMARK    2  A    between atoms: C_5  and  C_6
REMARK    3  A    between atoms: C_7  and  C_8
REMARK    4  A    between atoms: C_8  and  C_10
REMARK    5  A    between atoms: C_10  and  N_11
REMARK                            x       y       z     vdW  Elec       q    Type
REMARK                         _______ _______ _______ _____ _____    ______ ____
ROOT
ATOM      1  C   UNL     1       2.050   3.610  18.265  0.00  0.00    +0.000 C 
ATOM      2  O   UNL     1       1.011   3.236  17.723  0.00  0.00    +0.000 OA
ENDROOT
BRANCH   1   9
ATOM      3  C   UNL     1       2.431   8.576  17.760  0.00  0.00    +0.000 C 
ATOM      4  C   UNL     1       2.246   7.392  18.660  0.00  0.00    +0.000 A 
ATOM      5  C   UNL     1       2.003   7.549  20.022  0.00  0.00    +0.000 A 
ATOM      6  C   UNL     1       1.808   6.429  20.832  0.00  0.00    +0.000 A 
ATOM      7  C   UNL     1       1.844   5.125  20.300  0.00  0.00    +0.000 A 
ATOM      8  C   UNL     1       1.626   3.970  21.239  0.00  0.00    +0.000 C 
ATOM      9  C   UNL     1       2.085   4.960  18.920  0.00  0.00    +0.000 A 
ATOM     10  C   UNL     1       2.292   6.099  18.124  0.00  0.00    +0.000 A 
ENDBRANCH   1   9
BRANCH   1  11
ATOM     11  C   UNL     1       3.318   2.757  18.241  0.00  0.00    +0.000 C 
BRANCH  11  12
ATOM     12  N   UNL     1       4.436   3.439  17.580  0.00  0.00    +0.000 N 
ATOM     13  N   UNL     1       4.339   3.556  16.210  0.00  0.00    +0.000 NA
ATOM     14  C   UNL     1       5.300   4.162  15.595  0.00  0.00    +0.000 A 
ATOM     15  C   UNL     1       6.481   4.746  16.230  0.00  0.00    +0.000 A 
ATOM     16 CL   UNL     1       7.629   5.492  15.193  0.00  0.00    +0.000 Cl
ATOM     17  C   UNL     1       6.556   4.664  17.559  0.00  0.00    +0.000 A 
ATOM     18 CL   UNL     1       7.874   5.332  18.458  0.00  0.00    +0.000 Cl
ATOM     19  C   UNL     1       5.468   3.998  18.336  0.00  0.00    +0.000 A 
ATOM     20  O   UNL     1       5.488   3.985  19.565  0.00  0.00    +0.000 OA
ENDBRANCH  11  12
ENDBRANCH   1  11
TORSDOF 3
ENDMDL
MODEL 5
REMARK VINA RESULT:      -7.5      0.835      1.296
REMARK  Name = 
REMARK  5 active torsions:
REMARK  status: ('A' for Active; 'I' for Inactive)
REMARK    1  A    between atoms: C_1  and  C_2
REMARK    2  A    between atoms: C_5  and  C_6
REMARK    3  A    between atoms: C_7  and  C_8
REMARK    4  A    between atoms: C_8  and  C_10
REMARK    5  A    between atoms: C_10  and  N_11
REMARK                            x       y       z     vdW  Elec       q    Type
REMARK                         _______ _______ _______ _____ _____    ______ ____
ROOT
ATOM      1  C   UNL     1       2.789   3.714  17.309  0.00  0.00    +0.000 C 
ATOM      2  O   UNL     1       1.935   3.577  16.434  0.00  0.00    +0.000 OA
ENDROOT
BRANCH   1   9
ATOM      3  C   UNL     1       1.985   7.882  19.966  0.00  0.00    +0.000 C 
ATOM      4  C   UNL     1       1.981   6.384  19.902  0.00  0.00    +0.000 A 
ATOM      5  C   UNL     1       1.522   5.615  20.968  0.00  0.00    +0.000 A 
ATOM      6  C   UNL     1       1.504   4.223  20.871  0.00  0.00    +0.000 A 
ATOM      7  C   UNL     1       1.936   3.565  19.703  0.00  0.00    +0.000 A 
ATOM      8  C   UNL     1       1.887   2.062  19.677  0.00  0.00    +0.000 C 
ATOM      9  C   UNL     1       2.396   4.339  18.617  0.00  0.00    +0.000 A 
ATOM     10  C   UNL     1       2.419   5.737  18.739  0.00  0.00    +0.000 A 
ENDBRANCH   1   9
BRANCH   1  11
ATOM     11  C   UNL     1       4.246   3.316  17.078  0.00  0.00    +0.000 C 
BRANCH  11  12
ATOM     12  N   UNL     1       5.167   4.442  17.256  0.00  0.00    +0.000 N 
ATOM     13  N   UNL     1       5.137   5.402  16.267  0.00  0.00    +0.000 NA
ATOM     14  C   UNL     1       5.927   6.416  16.397  0.00  0.00    +0.000 A 
ATOM     15  C   UNL     1       6.846   6.640  17.513  0.00  0.00    +0.000 A 
ATOM     16 CL   UNL     1       7.805   8.063  17.453  0.00  0.00    +0.000 Cl
ATOM     17  C   UNL     1       6.849   5.729  18.487  0.00  0.00    +0.000 A 
ATOM     18 CL   UNL     1       7.857   5.867  19.885  0.00  0.00    +0.000 Cl
ATOM     19  C   UNL     1       5.943   4.543  18.413  0.00  0.00    +0.000 A 
ATOM     20  O   UNL     1       5.880   3.739  19.340  0.00  0.00    +0.000 OA
ENDBRANCH  11  12
ENDBRANCH   1  11
TORSDOF 3
ENDMDL
MODEL 6
REMARK VINA RESULT:      -7.3      3.303      5.359
REMARK  Name = 
REMARK  5 active torsions:
REMARK  status: ('A' for Active; 'I' for Inactive)
REMARK    1  A    between atoms: C_1  and  C_2
REMARK    2  A    between atoms: C_5  and  C_6
REMARK    3  A    between atoms: C_7  and  C_8
REMARK    4  A    between atoms: C_8  and  C_10
REMARK    5  A    between atoms: C_10  and  N_11
REMARK                            x       y       z     vdW  Elec       q    Type
REMARK                         _______ _______ _______ _____ _____    ______ ____
ROOT
ATOM      1  C   UNL     1       4.569   5.755  16.957  0.00  0.00    +0.000 C 
ATOM      2  O   UNL     1       4.571   5.035  15.959  0.00  0.00    +0.000 OA
ENDROOT
BRANCH   1   9
ATOM      3  C   UNL     1       8.253   9.089  17.574  0.00  0.00    +0.000 C 
ATOM      4  C   UNL     1       7.663   7.755  17.920  0.00  0.00    +0.000 A 
ATOM      5  C   UNL     1       8.243   6.935  18.884  0.00  0.00    +0.000 A 
ATOM      6  C   UNL     1       7.657   5.709  19.206  0.00  0.00    +0.000 A 
ATOM      7  C   UNL     1       6.473   5.278  18.578  0.00  0.00    +0.000 A 
ATOM      8  C   UNL     1       5.904   3.944  18.979  0.00  0.00    +0.000 C 
ATOM      9  C   UNL     1       5.877   6.106  17.605  0.00  0.00    +0.000 A 
ATOM     10  C   UNL     1       6.489   7.329  17.285  0.00  0.00    +0.000 A 
ENDBRANCH   1   9
BRANCH   1  11
ATOM     11  C   UNL     1       3.267   6.253  17.584  0.00  0.00    +0.000 C 
BRANCH  11  12
ATOM     12  N   UNL     1       2.727   5.313  18.571  0.00  0.00    +0.000 N 
ATOM     13  N   UNL     1       3.010   5.603  19.889  0.00  0.00    +0.000 NA
ATOM     14  C   UNL     1       2.540   4.803  20.788  0.00  0.00    +0.000 A 
ATOM     15  C   UNL     1       1.721   3.619  20.529  0.00  0.00    +0.000 A 
ATOM     16 CL   UNL     1       1.224   2.706  21.896  0.00  0.00    +0.000 Cl
ATOM     17  C   UNL     1       1.418   3.360  19.256  0.00  0.00    +0.000 A 
ATOM     18 CL   UNL     1       0.436   2.015  18.790  0.00  0.00    +0.000 Cl
ATOM     19  C   UNL     1       1.908   4.257  18.166  0.00  0.00    +0.000 A 
ATOM     20  O   UNL     1       1.571   4.074  16.999  0.00  0.00    +0.000 OA
ENDBRANCH  11  12
ENDBRANCH   1  11
TORSDOF 3
ENDMDL
MODEL 7
REMARK VINA RESULT:      -7.0      2.721      3.818
REMARK  Name = 
REMARK  5 active torsions:
REMARK  status: ('A' for Active; 'I' for Inactive)
REMARK    1  A    between atoms: C_1  and  C_2
REMARK    2  A    between atoms: C_5  and  C_6
REMARK    3  A    between atoms: C_7  and  C_8
REMARK    4  A    between atoms: C_8  and  C_10
REMARK    5  A    between atoms: C_10  and  N_11
REMARK                            x       y       z     vdW  Elec       q    Type
REMARK                         _______ _______ _______ _____ _____    ______ ____
ROOT
ATOM      1  C   UNL     1       5.077   4.502  18.774  0.00  0.00    +0.000 C 
ATOM      2  O   UNL     1       5.913   3.662  19.105  0.00  0.00    +0.000 OA
ENDROOT
BRANCH   1   9
ATOM      3  C   UNL     1       1.240   6.766  21.059  0.00  0.00    +0.000 C 
ATOM      4  C   UNL     1       1.804   5.529  20.428  0.00  0.00    +0.000 A 
ATOM      5  C   UNL     1       1.031   4.383  20.265  0.00  0.00    +0.000 A 
ATOM      6  C   UNL     1       1.574   3.253  19.649  0.00  0.00    +0.000 A 
ATOM      7  C   UNL     1       2.900   3.245  19.175  0.00  0.00    +0.000 A 
ATOM      8  C   UNL     1       3.412   1.988  18.525  0.00  0.00    +0.000 C 
ATOM      9  C   UNL     1       3.686   4.405  19.333  0.00  0.00    +0.000 A 
ATOM     10  C   UNL     1       3.126   5.526  19.966  0.00  0.00    +0.000 A 
ENDBRANCH   1   9
BRANCH   1  11
ATOM     11  C   UNL     1       5.404   5.606  17.770  0.00  0.00    +0.000 C 
BRANCH  11  12
ATOM     12  N   UNL     1       5.684   5.078  16.431  0.00  0.00    +0.000 N 
ATOM     13  N   UNL     1       4.762   4.180  15.938  0.00  0.00    +0.000 NA
ATOM     14  C   UNL     1       4.969   3.704  14.756  0.00  0.00    +0.000 A 
ATOM     15  C   UNL     1       6.096   4.044  13.887  0.00  0.00    +0.000 A 
ATOM     16 CL   UNL     1       6.158   3.265  12.357  0.00  0.00    +0.000 Cl
ATOM     17  C   UNL     1       6.968   4.940  14.350  0.00  0.00    +0.000 A 
ATOM     18 CL   UNL     1       8.335   5.467  13.432  0.00  0.00    +0.000 Cl
ATOM     19  C   UNL     1       6.776   5.550  15.701  0.00  0.00    +0.000 A 
ATOM     20  O   UNL     1       7.529   6.433  16.106  0.00  0.00    +0.000 OA
ENDBRANCH  11  12
ENDBRANCH   1  11
TORSDOF 3
ENDMDL
MODEL 8
REMARK VINA RESULT:      -7.0      1.121      1.854
REMARK  Name = 
REMARK  5 active torsions:
REMARK  status: ('A' for Active; 'I' for Inactive)
REMARK    1  A    between atoms: C_1  and  C_2
REMARK    2  A    between atoms: C_5  and  C_6
REMARK    3  A    between atoms: C_7  and  C_8
REMARK    4  A    between atoms: C_8  and  C_10
REMARK    5  A    between atoms: C_10  and  N_11
REMARK                            x       y       z     vdW  Elec       q    Type
REMARK                         _______ _______ _______ _____ _____    ______ ____
ROOT
ATOM      1  C   UNL     1       2.228   4.479  17.595  0.00  0.00    +0.000 C 
ATOM      2  O   UNL     1       1.222   3.781  17.477  0.00  0.00    +0.000 OA
ENDROOT
BRANCH   1   9
ATOM      3  C   UNL     1       1.942   9.467  17.925  0.00  0.00    +0.000 C 
ATOM      4  C   UNL     1       2.003   8.140  18.619  0.00  0.00    +0.000 A 
ATOM      5  C   UNL     1       1.894   8.041  20.004  0.00  0.00    +0.000 A 
ATOM      6  C   UNL     1       1.928   6.790  20.622  0.00  0.00    +0.000 A 
ATOM      7  C   UNL     1       2.064   5.607  19.871  0.00  0.00    +0.000 A 
ATOM      8  C   UNL     1       2.094   4.297  20.611  0.00  0.00    +0.000 C 
ATOM      9  C   UNL     1       2.170   5.700  18.468  0.00  0.00    +0.000 A 
ATOM     10  C   UNL     1       2.147   6.968  17.866  0.00  0.00    +0.000 A 
ENDBRANCH   1   9
BRANCH   1  11
ATOM     11  C   UNL     1       3.515   4.165  16.833  0.00  0.00    +0.000 C 
BRANCH  11  12
ATOM     12  N   UNL     1       4.709   4.655  17.528  0.00  0.00    +0.000 N 
ATOM     13  N   UNL     1       5.079   3.946  18.651  0.00  0.00    +0.000 NA
ATOM     14  C   UNL     1       6.134   4.341  19.283  0.00  0.00    +0.000 A 
ATOM     15  C   UNL     1       6.980   5.472  18.903  0.00  0.00    +0.000 A 
ATOM     16 CL   UNL     1       8.327   5.807  19.915  0.00  0.00    +0.000 Cl
ATOM     17  C   UNL     1       6.642   6.135  17.797  0.00  0.00    +0.000 A 
ATOM     18 CL   UNL     1       7.557   7.476  17.200  0.00  0.00    +0.000 Cl
ATOM     19  C   UNL     1       5.446   5.717  17.003  0.00  0.00    +0.000 A 
ATOM     20  O   UNL     1       5.170   6.270  15.941  0.00  0.00    +0.000 OA
ENDBRANCH  11  12
ENDBRANCH   1  11
TORSDOF 3
ENDMDL
MODEL 9
REMARK VINA RESULT:      -7.0      3.292      5.665
REMARK  Name = 
REMARK  5 active torsions:
REMARK  status: ('A' for Active; 'I' for Inactive)
REMARK    1  A    between atoms: C_1  and  C_2
REMARK    2  A    between atoms: C_5  and  C_6
REMARK    3  A    between atoms: C_7  and  C_8
REMARK    4  A    between atoms: C_8  and  C_10
REMARK    5  A    between atoms: C_10  and  N_11
REMARK                            x       y       z     vdW  Elec       q    Type
REMARK                         _______ _______ _______ _____ _____    ______ ____
ROOT
ATOM      1  C   UNL     1       4.157   6.838  17.517  0.00  0.00    +0.000 C 
ATOM      2  O   UNL     1       4.586   7.946  17.836  0.00  0.00    +0.000 OA
ENDROOT
BRANCH   1   9
ATOM      3  C   UNL     1       5.852   4.170  13.634  0.00  0.00    +0.000 C 
ATOM      4  C   UNL     1       5.958   4.524  15.086  0.00  0.00    +0.000 A 
ATOM      5  C   UNL     1       6.973   4.007  15.886  0.00  0.00    +0.000 A 
ATOM      6  C   UNL     1       7.064   4.375  17.229  0.00  0.00    +0.000 A 
ATOM      7  C   UNL     1       6.146   5.275  17.804  0.00  0.00    +0.000 A 
ATOM      8  C   UNL     1       6.310   5.621  19.259  0.00  0.00    +0.000 C 
ATOM      9  C   UNL     1       5.118   5.807  16.998  0.00  0.00    +0.000 A 
ATOM     10  C   UNL     1       5.036   5.414  15.653  0.00  0.00    +0.000 A 
ENDBRANCH   1   9
BRANCH   1  11
ATOM     11  C   UNL     1       2.667   6.506  17.583  0.00  0.00    +0.000 C 
BRANCH  11  12
ATOM     12  N   UNL     1       2.371   5.466  18.573  0.00  0.00    +0.000 N 
ATOM     13  N   UNL     1       2.753   5.746  19.867  0.00  0.00    +0.000 NA
ATOM     14  C   UNL     1       2.496   4.858  20.769  0.00  0.00    +0.000 A 
ATOM     15  C   UNL     1       1.823   3.580  20.537  0.00  0.00    +0.000 A 
ATOM     16 CL   UNL     1       1.606   2.559  21.901  0.00  0.00    +0.000 Cl
ATOM     17  C   UNL     1       1.421   3.326  19.291  0.00  0.00    +0.000 A 
ATOM     18 CL   UNL     1       0.586   1.873  18.862  0.00  0.00    +0.000 Cl
ATOM     19  C   UNL     1       1.664   4.320  18.203  0.00  0.00    +0.000 A 
ATOM     20  O   UNL     1       1.230   4.132  17.068  0.00  0.00    +0.000 OA
ENDBRANCH  11  12
ENDBRANCH   1  11
TORSDOF 3
ENDMDL
