MODEL 1
REMARK VINA RESULT:      -7.5      0.000      0.000
REMARK  Name = 
REMARK  5 active torsions:
REMARK  status: ('A' for Active; 'I' for Inactive)
REMARK    1  A    between atoms: C_1  and  C_2
REMARK    2  A    between atoms: C_4  and  N_5
REMARK    3  A    between atoms: C_10  and  C_12
REMARK    4  A    between atoms: C_17  and  C_18
REMARK    5  A    between atoms: C_27  and  C_28
REMARK                            x       y       z     vdW  Elec       q    Type
REMARK                         _______ _______ _______ _____ _____    ______ ____
ROOT
ATOM      1  N   UNL     1      -5.323  11.686  18.564  0.00  0.00    +0.000 N 
ATOM      2  C   UNL     1      -6.223  10.709  19.181  0.00  0.00    +0.000 C 
ATOM      3  C   UNL     1      -7.402  11.544  19.701  0.00  0.00    +0.000 C 
ATOM      4  C   UNL     1      -7.367  11.749  21.211  0.00  0.00    +0.000 C 
ATOM      5  N   UNL     1      -6.598  12.960  21.414  0.00  0.00    +0.000 N 
ATOM      6  C   UNL     1      -5.933  13.188  22.614  0.00  0.00    +0.000 C 
ATOM      7  O   UNL     1      -6.029  12.400  23.555  0.00  0.00    +0.000 OA
ATOM      8  C   UNL     1      -6.717  13.821  20.248  0.00  0.00    +0.000 C 
ATOM      9  C   UNL     1      -7.202  12.945  19.094  0.00  0.00    +0.000 C 
ATOM     10  C   UNL     1      -6.117  12.779  18.030  0.00  0.00    +0.000 C 
ENDROOT
BRANCH   1  14
ATOM     11  C   UNL     1      -3.297  10.231  14.332  0.00  0.00    +0.000 C 
ATOM     12  C   UNL     1      -3.259  10.483  15.809  0.00  0.00    +0.000 A 
ATOM     13  C   UNL     1      -4.379  10.931  16.481  0.00  0.00    +0.000 A 
ATOM     14  C   UNL     1      -4.259  11.190  17.832  0.00  0.00    +0.000 A 
ATOM     15  N   UNL     1      -3.083  11.030  18.456  0.00  0.00    +0.000 NA
ATOM     16  C   UNL     1      -2.021  10.588  17.745  0.00  0.00    +0.000 A 
ATOM     17  N   UNL     1      -2.076  10.297  16.426  0.00  0.00    +0.000 NA
BRANCH  16  18
ATOM     18  C   UNL     1      -0.693  10.411  18.483  0.00  0.00    +0.000 C 
ATOM     19  F   UNL     1       0.253   9.726  17.767  0.00  0.00    +0.000 F 
ATOM     20  F   UNL     1      -0.099  11.599  18.812  0.00  0.00    +0.000 F 
ATOM     21  F   UNL     1      -0.816   9.723  19.660  0.00  0.00    +0.000 F 
ENDBRANCH  16  18
ENDBRANCH   1  14
BRANCH   6  22
ATOM     22  C   UNL     1      -5.080  14.408  22.792  0.00  0.00    +0.000 A 
ATOM     23  C   UNL     1      -5.731  15.629  23.056  0.00  0.00    +0.000 A 
ATOM     24  C   UNL     1      -5.026  16.826  23.167  0.00  0.00    +0.000 A 
ATOM     25  C   UNL     1      -3.643  16.816  23.084  0.00  0.00    +0.000 A 
ATOM     26  C   UNL     1      -2.975  15.606  22.898  0.00  0.00    +0.000 A 
ATOM     27  C   UNL     1      -3.666  14.380  22.755  0.00  0.00    +0.000 A 
BRANCH  27  28
ATOM     28  C   UNL     1      -2.814  13.189  22.600  0.00  0.00    +0.000 A 
ATOM     29  N   UNL     1      -1.896  13.005  21.665  0.00  0.00    +0.000 NA
ATOM     30  N   UNL     1      -1.214  11.838  21.931  0.00  0.00    +0.000 NA
ATOM     31  C   UNL     1      -1.725  11.331  23.027  0.00  0.00    +0.000 A 
ATOM     32  N   UNL     1      -2.724  12.135  23.472  0.00  0.00    +0.000 N 
ATOM     33  H   UNL     1      -3.308  12.000  24.289  0.00  0.00    +0.000 HD
ENDBRANCH  27  28
ENDBRANCH   6  22
TORSDOF 4
ENDMDL
MODEL 2
REMARK VINA RESULT:      -7.3      6.531      9.080
REMARK  Name = 
REMARK  5 active torsions:
REMARK  status: ('A' for Active; 'I' for Inactive)
REMARK    1  A    between atoms: C_1  and  C_2
REMARK    2  A    between atoms: C_4  and  N_5
REMARK    3  A    between atoms: C_10  and  C_12
REMARK    4  A    between atoms: C_17  and  C_18
REMARK    5  A    between atoms: C_27  and  C_28
REMARK                            x       y       z     vdW  Elec       q    Type
REMARK                         _______ _______ _______ _____ _____    ______ ____
ROOT
ATOM      1  N   UNL     1       2.051  13.235  20.759  0.00  0.00    +0.000 N 
ATOM      2  C   UNL     1       1.453  14.318  21.543  0.00  0.00    +0.000 C 
ATOM      3  C   UNL     1       2.404  15.507  21.349  0.00  0.00    +0.000 C 
ATOM      4  C   UNL     1       3.291  15.765  22.563  0.00  0.00    +0.000 C 
ATOM      5  N   UNL     1       4.475  14.958  22.348  0.00  0.00    +0.000 N 
ATOM      6  C   UNL     1       5.253  14.536  23.421  0.00  0.00    +0.000 C 
ATOM      7  O   UNL     1       4.992  14.885  24.573  0.00  0.00    +0.000 OA
ATOM      8  C   UNL     1       4.690  14.767  20.923  0.00  0.00    +0.000 C 
ATOM      9  C   UNL     1       3.365  15.074  20.226  0.00  0.00    +0.000 C 
ATOM     10  C   UNL     1       2.749  13.812  19.624  0.00  0.00    +0.000 C 
ENDROOT
BRANCH   1  14
ATOM     11  C   UNL     1       0.170   9.680  17.939  0.00  0.00    +0.000 C 
ATOM     12  C   UNL     1       0.379  10.364  19.256  0.00  0.00    +0.000 A 
ATOM     13  C   UNL     1       1.103  11.538  19.339  0.00  0.00    +0.000 A 
ATOM     14  C   UNL     1       1.297  12.088  20.590  0.00  0.00    +0.000 A 
ATOM     15  N   UNL     1       0.814  11.481  21.685  0.00  0.00    +0.000 NA
ATOM     16  C   UNL     1       0.113  10.334  21.541  0.00  0.00    +0.000 A 
ATOM     17  N   UNL     1      -0.131   9.755  20.343  0.00  0.00    +0.000 NA
BRANCH  16  18
ATOM     18  C   UNL     1      -0.430   9.668  22.806  0.00  0.00    +0.000 C 
ATOM     19  F   UNL     1       0.516   9.462  23.775  0.00  0.00    +0.000 F 
ATOM     20  F   UNL     1      -1.411  10.399  23.418  0.00  0.00    +0.000 F 
ATOM     21  F   UNL     1      -0.979   8.436  22.575  0.00  0.00    +0.000 F 
ENDBRANCH  16  18
ENDBRANCH   1  14
BRANCH   6  22
ATOM     22  C   UNL     1       6.435  13.642  23.200  0.00  0.00    +0.000 A 
ATOM     23  C   UNL     1       7.428  14.079  22.301  0.00  0.00    +0.000 A 
ATOM     24  C   UNL     1       8.527  13.285  21.980  0.00  0.00    +0.000 A 
ATOM     25  C   UNL     1       8.692  12.060  22.606  0.00  0.00    +0.000 A 
ATOM     26  C   UNL     1       7.760  11.643  23.556  0.00  0.00    +0.000 A 
ATOM     27  C   UNL     1       6.621  12.416  23.881  0.00  0.00    +0.000 A 
BRANCH  27  28
ATOM     28  C   UNL     1       5.753  11.851  24.928  0.00  0.00    +0.000 A 
ATOM     29  N   UNL     1       5.052  10.732  24.838  0.00  0.00    +0.000 NA
ATOM     30  N   UNL     1       4.480  10.463  26.062  0.00  0.00    +0.000 NA
ATOM     31  C   UNL     1       4.845  11.420  26.880  0.00  0.00    +0.000 A 
ATOM     32  N   UNL     1       5.631  12.306  26.215  0.00  0.00    +0.000 N 
ATOM     33  H   UNL     1       6.055  13.150  26.580  0.00  0.00    +0.000 HD
ENDBRANCH  27  28
ENDBRANCH   6  22
TORSDOF 4
ENDMDL
MODEL 3
REMARK VINA RESULT:      -7.2      4.322      6.244
REMARK  Name = 
REMARK  5 active torsions:
REMARK  status: ('A' for Active; 'I' for Inactive)
REMARK    1  A    between atoms: C_1  and  C_2
REMARK    2  A    between atoms: C_4  and  N_5
REMARK    3  A    between atoms: C_10  and  C_12
REMARK    4  A    between atoms: C_17  and  C_18
REMARK    5  A    between atoms: C_27  and  C_28
REMARK                            x       y       z     vdW  Elec       q    Type
REMARK                         _______ _______ _______ _____ _____    ______ ____
ROOT
ATOM      1  N   UNL     1       0.729  13.089  18.975  0.00  0.00    +0.000 N 
ATOM      2  C   UNL     1       1.338  11.766  19.130  0.00  0.00    +0.000 C 
ATOM      3  C   UNL     1       0.149  10.800  19.215  0.00  0.00    +0.000 C 
ATOM      4  C   UNL     1      -0.122  10.311  20.634  0.00  0.00    +0.000 C 
ATOM      5  N   UNL     1      -1.041  11.277  21.200  0.00  0.00    +0.000 N 
ATOM      6  C   UNL     1      -1.120  11.463  22.576  0.00  0.00    +0.000 C 
ATOM      7  O   UNL     1      -0.457  10.772  23.351  0.00  0.00    +0.000 OA
ATOM      8  C   UNL     1      -1.828  11.889  20.142  0.00  0.00    +0.000 C 
ATOM      9  C   UNL     1      -1.082  11.642  18.831  0.00  0.00    +0.000 C 
ATOM     10  C   UNL     1      -0.525  12.944  18.256  0.00  0.00    +0.000 C 
ENDROOT
BRANCH   1  14
ATOM     11  C   UNL     1       5.158  14.882  17.834  0.00  0.00    +0.000 C 
ATOM     12  C   UNL     1       3.696  15.032  18.124  0.00  0.00    +0.000 A 
ATOM     13  C   UNL     1       2.924  13.939  18.469  0.00  0.00    +0.000 A 
ATOM     14  C   UNL     1       1.575  14.142  18.675  0.00  0.00    +0.000 A 
ATOM     15  N   UNL     1       1.036  15.361  18.519  0.00  0.00    +0.000 NA
ATOM     16  C   UNL     1       1.841  16.393  18.181  0.00  0.00    +0.000 A 
ATOM     17  N   UNL     1       3.173  16.266  17.986  0.00  0.00    +0.000 NA
BRANCH  16  18
ATOM     18  C   UNL     1       1.201  17.772  18.016  0.00  0.00    +0.000 C 
ATOM     19  F   UNL     1       1.457  18.631  19.052  0.00  0.00    +0.000 F 
ATOM     20  F   UNL     1       1.628  18.431  16.896  0.00  0.00    +0.000 F 
ATOM     21  F   UNL     1      -0.163  17.727  17.918  0.00  0.00    +0.000 F 
ENDBRANCH  16  18
ENDBRANCH   1  14
BRANCH   6  22
ATOM     22  C   UNL     1      -2.020  12.513  23.153  0.00  0.00    +0.000 A 
ATOM     23  C   UNL     1      -3.268  12.100  23.659  0.00  0.00    +0.000 A 
ATOM     24  C   UNL     1      -4.199  13.013  24.150  0.00  0.00    +0.000 A 
ATOM     25  C   UNL     1      -3.872  14.358  24.209  0.00  0.00    +0.000 A 
ATOM     26  C   UNL     1      -2.612  14.778  23.784  0.00  0.00    +0.000 A 
ATOM     27  C   UNL     1      -1.658  13.877  23.255  0.00  0.00    +0.000 A 
BRANCH  27  28
ATOM     28  C   UNL     1      -0.364  14.474  22.883  0.00  0.00    +0.000 A 
ATOM     29  N   UNL     1       0.689  13.822  22.417  0.00  0.00    +0.000 NA
ATOM     30  N   UNL     1       1.655  14.735  22.054  0.00  0.00    +0.000 NA
ATOM     31  C   UNL     1       1.174  15.929  22.302  0.00  0.00    +0.000 A 
ATOM     32  N   UNL     1      -0.075  15.812  22.823  0.00  0.00    +0.000 N 
ATOM     33  H   UNL     1      -0.692  16.559  23.120  0.00  0.00    +0.000 HD
ENDBRANCH  27  28
ENDBRANCH   6  22
TORSDOF 4
ENDMDL
MODEL 4
REMARK VINA RESULT:      -7.1      1.753      2.366
REMARK  Name = 
REMARK  5 active torsions:
REMARK  status: ('A' for Active; 'I' for Inactive)
REMARK    1  A    between atoms: C_1  and  C_2
REMARK    2  A    between atoms: C_4  and  N_5
REMARK    3  A    between atoms: C_10  and  C_12
REMARK    4  A    between atoms: C_17  and  C_18
REMARK    5  A    between atoms: C_27  and  C_28
REMARK                            x       y       z     vdW  Elec       q    Type
REMARK                         _______ _______ _______ _____ _____    ______ ____
ROOT
ATOM      1  N   UNL     1      -5.399  11.909  18.960  0.00  0.00    +0.000 N 
ATOM      2  C   UNL     1      -6.233  10.775  19.366  0.00  0.00    +0.000 C 
ATOM      3  C   UNL     1      -7.555  11.409  19.817  0.00  0.00    +0.000 C 
ATOM      4  C   UNL     1      -7.711  11.448  21.334  0.00  0.00    +0.000 C 
ATOM      5  N   UNL     1      -7.125  12.708  21.744  0.00  0.00    +0.000 N 
ATOM      6  C   UNL     1      -6.629  12.875  23.033  0.00  0.00    +0.000 C 
ATOM      7  O   UNL     1      -6.728  11.982  23.874  0.00  0.00    +0.000 OA
ATOM      8  C   UNL     1      -7.224  13.673  20.662  0.00  0.00    +0.000 C 
ATOM      9  C   UNL     1      -7.467  12.882  19.378  0.00  0.00    +0.000 C 
ATOM     10  C   UNL     1      -6.261  12.958  18.442  0.00  0.00    +0.000 C 
ENDROOT
BRANCH   1  14
ATOM     11  C   UNL     1      -0.493  11.703  18.846  0.00  0.00    +0.000 C 
ATOM     12  C   UNL     1      -1.847  11.510  18.236  0.00  0.00    +0.000 A 
ATOM     13  C   UNL     1      -2.992  11.871  18.920  0.00  0.00    +0.000 A 
ATOM     14  C   UNL     1      -4.209  11.620  18.318  0.00  0.00    +0.000 A 
ATOM     15  N   UNL     1      -4.267  11.022  17.119  0.00  0.00    +0.000 NA
ATOM     16  C   UNL     1      -3.112  10.692  16.497  0.00  0.00    +0.000 A 
ATOM     17  N   UNL     1      -1.889  10.929  17.022  0.00  0.00    +0.000 NA
BRANCH  16  18
ATOM     18  C   UNL     1      -3.208  10.016  15.128  0.00  0.00    +0.000 C 
ATOM     19  F   UNL     1      -3.057  10.876  14.073  0.00  0.00    +0.000 F 
ATOM     20  F   UNL     1      -2.256   9.051  14.939  0.00  0.00    +0.000 F 
ATOM     21  F   UNL     1      -4.408   9.395  14.914  0.00  0.00    +0.000 F 
ENDBRANCH  16  18
ENDBRANCH   1  14
BRANCH   6  22
ATOM     22  C   UNL     1      -5.960  14.156  23.431  0.00  0.00    +0.000 A 
ATOM     23  C   UNL     1      -6.779  15.216  23.864  0.00  0.00    +0.000 A 
ATOM     24  C   UNL     1      -6.252  16.465  24.187  0.00  0.00    +0.000 A 
ATOM     25  C   UNL     1      -4.882  16.660  24.148  0.00  0.00    +0.000 A 
ATOM     26  C   UNL     1      -4.047  15.600  23.795  0.00  0.00    +0.000 A 
ATOM     27  C   UNL     1      -4.555  14.330  23.435  0.00  0.00    +0.000 A 
BRANCH  27  28
ATOM     28  C   UNL     1      -3.541  13.310  23.121  0.00  0.00    +0.000 A 
ATOM     29  N   UNL     1      -2.523  13.455  22.289  0.00  0.00    +0.000 NA
ATOM     30  N   UNL     1      -1.720  12.337  22.366  0.00  0.00    +0.000 NA
ATOM     31  C   UNL     1      -2.260  11.531  23.247  0.00  0.00    +0.000 A 
ATOM     32  N   UNL     1      -3.396  12.093  23.736  0.00  0.00    +0.000 N 
ATOM     33  H   UNL     1      -4.031  11.704  24.423  0.00  0.00    +0.000 HD
ENDBRANCH  27  28
ENDBRANCH   6  22
TORSDOF 4
ENDMDL
MODEL 5
REMARK VINA RESULT:      -7.0      5.313      7.437
REMARK  Name = 
REMARK  5 active torsions:
REMARK  status: ('A' for Active; 'I' for Inactive)
REMARK    1  A    between atoms: C_1  and  C_2
REMARK    2  A    between atoms: C_4  and  N_5
REMARK    3  A    between atoms: C_10  and  C_12
REMARK    4  A    between atoms: C_17  and  C_18
REMARK    5  A    between atoms: C_27  and  C_28
REMARK                            x       y       z     vdW  Elec       q    Type
REMARK                         _______ _______ _______ _____ _____    ______ ____
ROOT
ATOM      1  N   UNL     1       1.040   9.406  19.174  0.00  0.00    +0.000 N 
ATOM      2  C   UNL     1       0.462   9.436  20.521  0.00  0.00    +0.000 C 
ATOM      3  C   UNL     1      -0.566  10.575  20.476  0.00  0.00    +0.000 C 
ATOM      4  C   UNL     1      -0.083  11.841  21.175  0.00  0.00    +0.000 C 
ATOM      5  N   UNL     1       0.603  12.603  20.152  0.00  0.00    +0.000 N 
ATOM      6  C   UNL     1       1.583  13.529  20.492  0.00  0.00    +0.000 C 
ATOM      7  O   UNL     1       1.852  13.769  21.670  0.00  0.00    +0.000 OA
ATOM      8  C   UNL     1       0.055  12.280  18.845  0.00  0.00    +0.000 C 
ATOM      9  C   UNL     1      -0.685  10.951  18.987  0.00  0.00    +0.000 C 
ATOM     10  C   UNL     1       0.028   9.835  18.224  0.00  0.00    +0.000 C 
ENDROOT
BRANCH   1  14
ATOM     11  C   UNL     1       4.688   7.377  16.586  0.00  0.00    +0.000 C 
ATOM     12  C   UNL     1       3.617   7.337  17.633  0.00  0.00    +0.000 A 
ATOM     13  C   UNL     1       2.796   8.428  17.851  0.00  0.00    +0.000 A 
ATOM     14  C   UNL     1       1.864   8.339  18.865  0.00  0.00    +0.000 A 
ATOM     15  N   UNL     1       1.781   7.236  19.623  0.00  0.00    +0.000 NA
ATOM     16  C   UNL     1       2.611   6.201  19.362  0.00  0.00    +0.000 A 
ATOM     17  N   UNL     1       3.531   6.214  18.371  0.00  0.00    +0.000 NA
BRANCH  16  18
ATOM     18  C   UNL     1       2.491   4.953  20.239  0.00  0.00    +0.000 C 
ATOM     19  F   UNL     1       2.333   5.225  21.572  0.00  0.00    +0.000 F 
ATOM     20  F   UNL     1       1.421   4.166  19.909  0.00  0.00    +0.000 F 
ATOM     21  F   UNL     1       3.585   4.135  20.168  0.00  0.00    +0.000 F 
ENDBRANCH  16  18
ENDBRANCH   1  14
BRANCH   6  22
ATOM     22  C   UNL     1       2.340  14.263  19.427  0.00  0.00    +0.000 A 
ATOM     23  C   UNL     1       3.501  13.655  18.911  0.00  0.00    +0.000 A 
ATOM     24  C   UNL     1       4.307  14.293  17.970  0.00  0.00    +0.000 A 
ATOM     25  C   UNL     1       3.930  15.530  17.473  0.00  0.00    +0.000 A 
ATOM     26  C   UNL     1       2.744  16.116  17.915  0.00  0.00    +0.000 A 
ATOM     27  C   UNL     1       1.921  15.503  18.890  0.00  0.00    +0.000 A 
BRANCH  27  28
ATOM     28  C   UNL     1       0.687  16.234  19.224  0.00  0.00    +0.000 A 
ATOM     29  N   UNL     1       0.594  17.274  20.037  0.00  0.00    +0.000 NA
ATOM     30  N   UNL     1      -0.692  17.767  19.986  0.00  0.00    +0.000 NA
ATOM     31  C   UNL     1      -1.360  17.024  19.139  0.00  0.00    +0.000 A 
ATOM     32  N   UNL     1      -0.544  16.057  18.646  0.00  0.00    +0.000 N 
ATOM     33  H   UNL     1      -0.779  15.330  17.981  0.00  0.00    +0.000 HD
ENDBRANCH  27  28
ENDBRANCH   6  22
TORSDOF 4
ENDMDL
MODEL 6
REMARK VINA RESULT:      -7.0      2.091      4.844
REMARK  Name = 
REMARK  5 active torsions:
REMARK  status: ('A' for Active; 'I' for Inactive)
REMARK    1  A    between atoms: C_1  and  C_2
REMARK    2  A    between atoms: C_4  and  N_5
REMARK    3  A    between atoms: C_10  and  C_12
REMARK    4  A    between atoms: C_17  and  C_18
REMARK    5  A    between atoms: C_27  and  C_28
REMARK                            x       y       z     vdW  Elec       q    Type
REMARK                         _______ _______ _______ _____ _____    ______ ____
ROOT
ATOM      1  N   UNL     1      -1.450  12.498  20.373  0.00  0.00    +0.000 N 
ATOM      2  C   UNL     1      -1.148  13.906  20.105  0.00  0.00    +0.000 C 
ATOM      3  C   UNL     1      -1.397  14.616  21.443  0.00  0.00    +0.000 C 
ATOM      4  C   UNL     1      -2.705  15.399  21.468  0.00  0.00    +0.000 C 
ATOM      5  N   UNL     1      -3.702  14.459  21.938  0.00  0.00    +0.000 N 
ATOM      6  C   UNL     1      -5.046  14.629  21.622  0.00  0.00    +0.000 C 
ATOM      7  O   UNL     1      -5.431  15.612  20.987  0.00  0.00    +0.000 OA
ATOM      8  C   UNL     1      -3.074  13.453  22.779  0.00  0.00    +0.000 C 
ATOM      9  C   UNL     1      -1.578  13.485  22.472  0.00  0.00    +0.000 C 
ATOM     10  C   UNL     1      -1.130  12.209  21.760  0.00  0.00    +0.000 C 
ENDROOT
BRANCH   1  14
ATOM     11  C   UNL     1       1.565   9.146  18.423  0.00  0.00    +0.000 C 
ATOM     12  C   UNL     1       0.311   9.966  18.427  0.00  0.00    +0.000 A 
ATOM     13  C   UNL     1       0.076  10.899  19.419  0.00  0.00    +0.000 A 
ATOM     14  C   UNL     1      -1.122  11.584  19.388  0.00  0.00    +0.000 A 
ATOM     15  N   UNL     1      -2.032  11.327  18.436  0.00  0.00    +0.000 NA
ATOM     16  C   UNL     1      -1.745  10.403  17.491  0.00  0.00    +0.000 A 
ATOM     17  N   UNL     1      -0.583   9.713  17.452  0.00  0.00    +0.000 NA
BRANCH  16  18
ATOM     18  C   UNL     1      -2.798  10.134  16.415  0.00  0.00    +0.000 C 
ATOM     19  F   UNL     1      -3.154  11.246  15.698  0.00  0.00    +0.000 F 
ATOM     20  F   UNL     1      -2.387   9.225  15.478  0.00  0.00    +0.000 F 
ATOM     21  F   UNL     1      -3.971   9.642  16.917  0.00  0.00    +0.000 F 
ENDBRANCH  16  18
ENDBRANCH   1  14
BRANCH   6  22
ATOM     22  C   UNL     1      -6.064  13.617  22.050  0.00  0.00    +0.000 A 
ATOM     23  C   UNL     1      -6.475  13.630  23.397  0.00  0.00    +0.000 A 
ATOM     24  C   UNL     1      -7.364  12.683  23.902  0.00  0.00    +0.000 A 
ATOM     25  C   UNL     1      -7.915  11.739  23.050  0.00  0.00    +0.000 A 
ATOM     26  C   UNL     1      -7.578  11.756  21.697  0.00  0.00    +0.000 A 
ATOM     27  C   UNL     1      -6.658  12.688  21.162  0.00  0.00    +0.000 A 
BRANCH  27  28
ATOM     28  C   UNL     1      -6.436  12.594  19.710  0.00  0.00    +0.000 A 
ATOM     29  N   UNL     1      -7.271  13.001  18.767  0.00  0.00    +0.000 NA
ATOM     30  N   UNL     1      -6.655  12.875  17.540  0.00  0.00    +0.000 NA
ATOM     31  C   UNL     1      -5.455  12.396  17.756  0.00  0.00    +0.000 A 
ATOM     32  N   UNL     1      -5.279  12.202  19.088  0.00  0.00    +0.000 N 
ATOM     33  H   UNL     1      -4.458  11.836  19.556  0.00  0.00    +0.000 HD
ENDBRANCH  27  28
ENDBRANCH   6  22
TORSDOF 4
ENDMDL
MODEL 7
REMARK VINA RESULT:      -7.0      4.676      7.483
REMARK  Name = 
REMARK  5 active torsions:
REMARK  status: ('A' for Active; 'I' for Inactive)
REMARK    1  A    between atoms: C_1  and  C_2
REMARK    2  A    between atoms: C_4  and  N_5
REMARK    3  A    between atoms: C_10  and  C_12
REMARK    4  A    between atoms: C_17  and  C_18
REMARK    5  A    between atoms: C_27  and  C_28
REMARK                            x       y       z     vdW  Elec       q    Type
REMARK                         _______ _______ _______ _____ _____    ______ ____
ROOT
ATOM      1  N   UNL     1       1.164   8.034  20.685  0.00  0.00    +0.000 N 
ATOM      2  C   UNL     1       2.005   9.124  21.187  0.00  0.00    +0.000 C 
ATOM      3  C   UNL     1       1.033  10.054  21.925  0.00  0.00    +0.000 C 
ATOM      4  C   UNL     1       0.701  11.316  21.136  0.00  0.00    +0.000 C 
ATOM      5  N   UNL     1      -0.454  10.971  20.334  0.00  0.00    +0.000 N 
ATOM      6  C   UNL     1      -0.730  11.653  19.153  0.00  0.00    +0.000 C 
ATOM      7  O   UNL     1      -0.037  12.604  18.790  0.00  0.00    +0.000 OA
ATOM      8  C   UNL     1      -1.218   9.924  20.993  0.00  0.00    +0.000 C 
ATOM      9  C   UNL     1      -0.289   9.268  22.013  0.00  0.00    +0.000 C 
ATOM     10  C   UNL     1       0.059   7.837  21.608  0.00  0.00    +0.000 C 
ENDROOT
BRANCH   1  14
ATOM     11  C   UNL     1       4.317   6.015  17.506  0.00  0.00    +0.000 C 
ATOM     12  C   UNL     1       3.321   5.939  18.622  0.00  0.00    +0.000 A 
ATOM     13  C   UNL     1       2.677   7.074  19.078  0.00  0.00    +0.000 A 
ATOM     14  C   UNL     1       1.809   6.937  20.142  0.00  0.00    +0.000 A 
ATOM     15  N   UNL     1       1.621   5.743  20.723  0.00  0.00    +0.000 NA
ATOM     16  C   UNL     1       2.280   4.668  20.233  0.00  0.00    +0.000 A 
ATOM     17  N   UNL     1       3.127   4.729  19.181  0.00  0.00    +0.000 NA
BRANCH  16  18
ATOM     18  C   UNL     1       2.043   3.317  20.911  0.00  0.00    +0.000 C 
ATOM     19  F   UNL     1       2.615   2.259  20.255  0.00  0.00    +0.000 F 
ATOM     20  F   UNL     1       2.547   3.260  22.182  0.00  0.00    +0.000 F 
ATOM     21  F   UNL     1       0.719   2.994  21.025  0.00  0.00    +0.000 F 
ENDBRANCH  16  18
ENDBRANCH   1  14
BRANCH   6  22
ATOM     22  C   UNL     1      -1.885  11.245  18.290  0.00  0.00    +0.000 A 
ATOM     23  C   UNL     1      -1.636  10.323  17.255  0.00  0.00    +0.000 A 
ATOM     24  C   UNL     1      -2.632   9.939  16.359  0.00  0.00    +0.000 A 
ATOM     25  C   UNL     1      -3.921  10.421  16.522  0.00  0.00    +0.000 A 
ATOM     26  C   UNL     1      -4.205  11.277  17.586  0.00  0.00    +0.000 A 
ATOM     27  C   UNL     1      -3.208  11.704  18.494  0.00  0.00    +0.000 A 
BRANCH  27  28
ATOM     28  C   UNL     1      -3.678  12.579  19.580  0.00  0.00    +0.000 A 
ATOM     29  N   UNL     1      -4.759  12.391  20.320  0.00  0.00    +0.000 NA
ATOM     30  N   UNL     1      -4.788  13.340  21.319  0.00  0.00    +0.000 NA
ATOM     31  C   UNL     1      -3.723  14.089  21.174  0.00  0.00    +0.000 A 
ATOM     32  N   UNL     1      -3.008  13.655  20.104  0.00  0.00    +0.000 N 
ATOM     33  H   UNL     1      -2.144  14.040  19.741  0.00  0.00    +0.000 HD
ENDBRANCH  27  28
ENDBRANCH   6  22
TORSDOF 4
ENDMDL
MODEL 8
REMARK VINA RESULT:      -6.9      4.874      8.183
REMARK  Name = 
REMARK  5 active torsions:
REMARK  status: ('A' for Active; 'I' for Inactive)
REMARK    1  A    between atoms: C_1  and  C_2
REMARK    2  A    between atoms: C_4  and  N_5
REMARK    3  A    between atoms: C_10  and  C_12
REMARK    4  A    between atoms: C_17  and  C_18
REMARK    5  A    between atoms: C_27  and  C_28
REMARK                            x       y       z     vdW  Elec       q    Type
REMARK                         _______ _______ _______ _____ _____    ______ ____
ROOT
ATOM      1  N   UNL     1      -1.236  10.967  18.709  0.00  0.00    +0.000 N 
ATOM      2  C   UNL     1      -1.633  10.899  20.118  0.00  0.00    +0.000 C 
ATOM      3  C   UNL     1      -0.330  11.119  20.897  0.00  0.00    +0.000 C 
ATOM      4  C   UNL     1       0.233   9.832  21.492  0.00  0.00    +0.000 C 
ATOM      5  N   UNL     1       1.100   9.287  20.467  0.00  0.00    +0.000 N 
ATOM      6  C   UNL     1       1.380   7.925  20.422  0.00  0.00    +0.000 C 
ATOM      7  O   UNL     1       0.950   7.158  21.285  0.00  0.00    +0.000 OA
ATOM      8  C   UNL     1       1.613  10.360  19.632  0.00  0.00    +0.000 C 
ATOM      9  C   UNL     1       0.700  11.567  19.844  0.00  0.00    +0.000 C 
ATOM     10  C   UNL     1      -0.111  11.877  18.586  0.00  0.00    +0.000 C 
ENDROOT
BRANCH   1  14
ATOM     11  C   UNL     1      -3.028   9.932  14.254  0.00  0.00    +0.000 C 
ATOM     12  C   UNL     1      -3.138  10.512  15.631  0.00  0.00    +0.000 A 
ATOM     13  C   UNL     1      -2.063  10.490  16.499  0.00  0.00    +0.000 A 
ATOM     14  C   UNL     1      -2.250  10.998  17.768  0.00  0.00    +0.000 A 
ATOM     15  N   UNL     1      -3.447  11.474  18.145  0.00  0.00    +0.000 NA
ATOM     16  C   UNL     1      -4.461  11.470  17.251  0.00  0.00    +0.000 A 
ATOM     17  N   UNL     1      -4.339  11.007  15.986  0.00  0.00    +0.000 NA
BRANCH  16  18
ATOM     18  C   UNL     1      -5.813  12.023  17.705  0.00  0.00    +0.000 C 
ATOM     19  F   UNL     1      -6.410  12.852  16.791  0.00  0.00    +0.000 F 
ATOM     20  F   UNL     1      -6.737  11.045  17.953  0.00  0.00    +0.000 F 
ATOM     21  F   UNL     1      -5.738  12.758  18.857  0.00  0.00    +0.000 F 
ENDBRANCH  16  18
ENDBRANCH   1  14
BRANCH   6  22
ATOM     22  C   UNL     1       2.217   7.355  19.319  0.00  0.00    +0.000 A 
ATOM     23  C   UNL     1       2.806   8.257  18.411  0.00  0.00    +0.000 A 
ATOM     24  C   UNL     1       3.544   7.816  17.313  0.00  0.00    +0.000 A 
ATOM     25  C   UNL     1       3.765   6.459  17.138  0.00  0.00    +0.000 A 
ATOM     26  C   UNL     1       3.254   5.554  18.069  0.00  0.00    +0.000 A 
ATOM     27  C   UNL     1       2.479   5.972  19.177  0.00  0.00    +0.000 A 
BRANCH  27  28
ATOM     28  C   UNL     1       2.043   4.896  20.083  0.00  0.00    +0.000 A 
ATOM     29  N   UNL     1       1.162   3.950  19.801  0.00  0.00    +0.000 NA
ATOM     30  N   UNL     1       1.123   3.051  20.845  0.00  0.00    +0.000 NA
ATOM     31  C   UNL     1       1.983   3.462  21.744  0.00  0.00    +0.000 A 
ATOM     32  N   UNL     1       2.573   4.607  21.314  0.00  0.00    +0.000 N 
ATOM     33  H   UNL     1       3.271   5.161  21.796  0.00  0.00    +0.000 HD
ENDBRANCH  27  28
ENDBRANCH   6  22
TORSDOF 4
ENDMDL
MODEL 9
REMARK VINA RESULT:      -6.8      4.437      7.434
REMARK  Name = 
REMARK  5 active torsions:
REMARK  status: ('A' for Active; 'I' for Inactive)
REMARK    1  A    between atoms: C_1  and  C_2
REMARK    2  A    between atoms: C_4  and  N_5
REMARK    3  A    between atoms: C_10  and  C_12
REMARK    4  A    between atoms: C_17  and  C_18
REMARK    5  A    between atoms: C_27  and  C_28
REMARK                            x       y       z     vdW  Elec       q    Type
REMARK                         _______ _______ _______ _____ _____    ______ ____
ROOT
ATOM      1  N   UNL     1       1.159   7.990  20.818  0.00  0.00    +0.000 N 
ATOM      2  C   UNL     1       2.009   9.086  21.290  0.00  0.00    +0.000 C 
ATOM      3  C   UNL     1       1.041  10.059  21.977  0.00  0.00    +0.000 C 
ATOM      4  C   UNL     1       0.741  11.294  21.135  0.00  0.00    +0.000 C 
ATOM      5  N   UNL     1      -0.408  10.935  20.328  0.00  0.00    +0.000 N 
ATOM      6  C   UNL     1      -0.656  11.575  19.118  0.00  0.00    +0.000 C 
ATOM      7  O   UNL     1       0.057  12.501  18.730  0.00  0.00    +0.000 OA
ATOM      8  C   UNL     1      -1.198   9.926  21.015  0.00  0.00    +0.000 C 
ATOM      9  C   UNL     1      -0.294   9.297  22.075  0.00  0.00    +0.000 C 
ATOM     10  C   UNL     1       0.037   7.845  21.730  0.00  0.00    +0.000 C 
ENDROOT
BRANCH   1  14
ATOM     11  C   UNL     1       1.847   3.128  20.697  0.00  0.00    +0.000 C 
ATOM     12  C   UNL     1       2.146   4.526  20.249  0.00  0.00    +0.000 A 
ATOM     13  C   UNL     1       1.506   5.608  20.823  0.00  0.00    +0.000 A 
ATOM     14  C   UNL     1       1.794   6.864  20.328  0.00  0.00    +0.000 A 
ATOM     15  N   UNL     1       2.651   7.016  19.307  0.00  0.00    +0.000 NA
ATOM     16  C   UNL     1       3.247   5.919  18.786  0.00  0.00    +0.000 A 
ATOM     17  N   UNL     1       3.025   4.665  19.238  0.00  0.00    +0.000 NA
BRANCH  16  18
ATOM     18  C   UNL     1       4.224   6.123  17.627  0.00  0.00    +0.000 C 
ATOM     19  F   UNL     1       5.536   6.198  18.013  0.00  0.00    +0.000 F 
ATOM     20  F   UNL     1       4.182   5.110  16.707  0.00  0.00    +0.000 F 
ATOM     21  F   UNL     1       3.993   7.271  16.920  0.00  0.00    +0.000 F 
ENDBRANCH  16  18
ENDBRANCH   1  14
BRANCH   6  22
ATOM     22  C   UNL     1      -1.804  11.151  18.254  0.00  0.00    +0.000 A 
ATOM     23  C   UNL     1      -1.552  10.195  17.251  0.00  0.00    +0.000 A 
ATOM     24  C   UNL     1      -2.541   9.793  16.355  0.00  0.00    +0.000 A 
ATOM     25  C   UNL     1      -3.827  10.291  16.487  0.00  0.00    +0.000 A 
ATOM     26  C   UNL     1      -4.116  11.182  17.521  0.00  0.00    +0.000 A 
ATOM     27  C   UNL     1      -3.125  11.628  18.428  0.00  0.00    +0.000 A 
BRANCH  27  28
ATOM     28  C   UNL     1      -3.600  12.540  19.481  0.00  0.00    +0.000 A 
ATOM     29  N   UNL     1      -4.739  12.436  20.147  0.00  0.00    +0.000 NA
ATOM     30  N   UNL     1      -4.763  13.389  21.142  0.00  0.00    +0.000 NA
ATOM     31  C   UNL     1      -3.638  14.056  21.070  0.00  0.00    +0.000 A 
ATOM     32  N   UNL     1      -2.888  13.565  20.049  0.00  0.00    +0.000 N 
ATOM     33  H   UNL     1      -1.976  13.884  19.745  0.00  0.00    +0.000 HD
ENDBRANCH  27  28
ENDBRANCH   6  22
TORSDOF 4
ENDMDL
