MODEL 1
REMARK VINA RESULT:      -8.6      0.000      0.000
REMARK  Name = 
REMARK  7 active torsions:
REMARK  status: ('A' for Active; 'I' for Inactive)
REMARK    1  A    between atoms: C_1  and  O_2
REMARK    2  A    between atoms: O_2  and  C_3
REMARK    3  A    between atoms: C_6  and  C_7
REMARK    4  A    between atoms: C_9  and  N_10
REMARK    5  A    between atoms: C_11  and  C_13
REMARK    6  A    between atoms: N_21  and  C_22
REMARK    7  A    between atoms: C_22  and  C_23
REMARK                            x       y       z     vdW  Elec       q    Type
REMARK                         _______ _______ _______ _____ _____    ______ ____
ROOT
ATOM      1  C   UNL     1       2.422   7.932  18.521  0.00  0.00    +0.000 A 
ATOM      2  C   UNL     1       2.311   6.803  19.373  0.00  0.00    +0.000 A 
ATOM      3  C   UNL     1       3.262   5.731  19.302  0.00  0.00    +0.000 A 
ATOM      4  C   UNL     1       4.262   5.804  18.341  0.00  0.00    +0.000 A 
ATOM      5  C   UNL     1       4.178   6.810  17.413  0.00  0.00    +0.000 A 
ATOM      6  C   UNL     1       3.353   7.895  17.494  0.00  0.00    +0.000 A 
ATOM      7  C   UNL     1       5.142   6.572  16.386  0.00  0.00    +0.000 C 
ATOM      8  O   UNL     1       4.975   6.926  15.235  0.00  0.00    +0.000 OA
ATOM      9  N   UNL     1       6.087   5.768  16.932  0.00  0.00    +0.000 N 
ATOM     10  C   UNL     1       5.528   5.073  17.989  0.00  0.00    +0.000 C 
ATOM     11  O   UNL     1       5.925   4.061  18.550  0.00  0.00    +0.000 OA
ENDROOT
BRANCH   1  13
ATOM     12  N   UNL     1       0.785   9.484  19.553  0.00  0.00    +0.000 N 
ATOM     13  C   UNL     1       1.667   9.219  18.536  0.00  0.00    +0.000 C 
ATOM     14  O   UNL     1       1.895  10.004  17.614  0.00  0.00    +0.000 OA
ATOM     15  H   UNL     1       0.881   9.033  20.453  0.00  0.00    +0.000 HD
BRANCH  12  22
ATOM     16  C   UNL     1       0.030  11.690  20.236  0.00  0.00    +0.000 A 
ATOM     17  C   UNL     1      -0.922  12.717  20.201  0.00  0.00    +0.000 A 
ATOM     18  C   UNL     1      -2.106  12.571  19.471  0.00  0.00    +0.000 A 
ATOM     19  C   UNL     1      -2.348  11.405  18.750  0.00  0.00    +0.000 A 
ATOM     20  C   UNL     1      -3.609  11.216  17.959  0.00  0.00    +0.000 C 
ATOM     21  C   UNL     1      -1.381  10.392  18.762  0.00  0.00    +0.000 A 
ATOM     22  C   UNL     1      -0.186  10.523  19.491  0.00  0.00    +0.000 A 
BRANCH  16  24
ATOM     23  C   UNL     1       2.048  12.849  20.656  0.00  0.00    +0.000 C 
ATOM     24  O   UNL     1       1.205  11.741  20.949  0.00  0.00    +0.000 OA
ENDBRANCH  16  24
ENDBRANCH  12  22
ENDBRANCH   1  13
BRANCH   9  25
ATOM     25  C   UNL     1       7.273   5.544  16.123  0.00  0.00    +0.000 C 
BRANCH  25  26
ATOM     26  C   UNL     1       7.083   4.827  14.806  0.00  0.00    +0.000 A 
ATOM     27  C   UNL     1       6.102   3.848  14.670  0.00  0.00    +0.000 A 
ATOM     28  C   UNL     1       5.808   3.371  13.401  0.00  0.00    +0.000 A 
ATOM     29  N   UNL     1       6.427   3.779  12.272  0.00  0.00    +0.000 NA
ATOM     30  C   UNL     1       7.400   4.700  12.419  0.00  0.00    +0.000 A 
ATOM     31  C   UNL     1       7.765   5.239  13.646  0.00  0.00    +0.000 A 
ENDBRANCH  25  26
ENDBRANCH   9  25
TORSDOF 5
ENDMDL
MODEL 2
REMARK VINA RESULT:      -8.5      0.832      1.300
REMARK  Name = 
REMARK  7 active torsions:
REMARK  status: ('A' for Active; 'I' for Inactive)
REMARK    1  A    between atoms: C_1  and  O_2
REMARK    2  A    between atoms: O_2  and  C_3
REMARK    3  A    between atoms: C_6  and  C_7
REMARK    4  A    between atoms: C_9  and  N_10
REMARK    5  A    between atoms: C_11  and  C_13
REMARK    6  A    between atoms: N_21  and  C_22
REMARK    7  A    between atoms: C_22  and  C_23
REMARK                            x       y       z     vdW  Elec       q    Type
REMARK                         _______ _______ _______ _____ _____    ______ ____
ROOT
ATOM      1  C   UNL     1       2.410   7.696  18.748  0.00  0.00    +0.000 A 
ATOM      2  C   UNL     1       2.334   6.519  19.538  0.00  0.00    +0.000 A 
ATOM      3  C   UNL     1       3.289   5.461  19.377  0.00  0.00    +0.000 A 
ATOM      4  C   UNL     1       4.258   5.597  18.392  0.00  0.00    +0.000 A 
ATOM      5  C   UNL     1       4.139   6.653  17.526  0.00  0.00    +0.000 A 
ATOM      6  C   UNL     1       3.310   7.724  17.692  0.00  0.00    +0.000 A 
ATOM      7  C   UNL     1       5.073   6.481  16.458  0.00  0.00    +0.000 C 
ATOM      8  O   UNL     1       4.868   6.898  15.334  0.00  0.00    +0.000 OA
ATOM      9  N   UNL     1       6.039   5.656  16.929  0.00  0.00    +0.000 N 
ATOM     10  C   UNL     1       5.518   4.898  17.961  0.00  0.00    +0.000 C 
ATOM     11  O   UNL     1       5.939   3.859  18.452  0.00  0.00    +0.000 OA
ENDROOT
BRANCH   1  13
ATOM     12  N   UNL     1       0.735   9.142  19.868  0.00  0.00    +0.000 N 
ATOM     13  C   UNL     1       1.648   8.974  18.858  0.00  0.00    +0.000 C 
ATOM     14  O   UNL     1       1.897   9.840  18.018  0.00  0.00    +0.000 OA
ATOM     15  H   UNL     1       0.808   8.610  20.726  0.00  0.00    +0.000 HD
BRANCH  12  22
ATOM     16  C   UNL     1      -0.394  10.951  21.033  0.00  0.00    +0.000 A 
ATOM     17  C   UNL     1      -1.360  11.965  21.063  0.00  0.00    +0.000 A 
ATOM     18  C   UNL     1      -2.204  12.183  19.969  0.00  0.00    +0.000 A 
ATOM     19  C   UNL     1      -2.082  11.403  18.821  0.00  0.00    +0.000 A 
ATOM     20  C   UNL     1      -2.974  11.610  17.633  0.00  0.00    +0.000 C 
ATOM     21  C   UNL     1      -1.096  10.410  18.783  0.00  0.00    +0.000 A 
ATOM     22  C   UNL     1      -0.240  10.178  19.873  0.00  0.00    +0.000 A 
BRANCH  16  24
ATOM     23  C   UNL     1      -0.081   9.792  23.071  0.00  0.00    +0.000 C 
ATOM     24  O   UNL     1       0.455  10.653  22.073  0.00  0.00    +0.000 OA
ENDBRANCH  16  24
ENDBRANCH  12  22
ENDBRANCH   1  13
BRANCH   9  25
ATOM     25  C   UNL     1       7.202   5.488  16.073  0.00  0.00    +0.000 C 
BRANCH  25  26
ATOM     26  C   UNL     1       6.956   4.984  14.669  0.00  0.00    +0.000 A 
ATOM     27  C   UNL     1       7.689   5.487  13.599  0.00  0.00    +0.000 A 
ATOM     28  C   UNL     1       7.596   4.851  12.368  0.00  0.00    +0.000 A 
ATOM     29  N   UNL     1       6.818   3.774  12.126  0.00  0.00    +0.000 NA
ATOM     30  C   UNL     1       6.084   3.317  13.159  0.00  0.00    +0.000 A 
ATOM     31  C   UNL     1       6.110   3.884  14.428  0.00  0.00    +0.000 A 
ENDBRANCH  25  26
ENDBRANCH   9  25
TORSDOF 5
ENDMDL
MODEL 3
REMARK VINA RESULT:      -8.5      2.783     10.200
REMARK  Name = 
REMARK  7 active torsions:
REMARK  status: ('A' for Active; 'I' for Inactive)
REMARK    1  A    between atoms: C_1  and  O_2
REMARK    2  A    between atoms: O_2  and  C_3
REMARK    3  A    between atoms: C_6  and  C_7
REMARK    4  A    between atoms: C_9  and  N_10
REMARK    5  A    between atoms: C_11  and  C_13
REMARK    6  A    between atoms: N_21  and  C_22
REMARK    7  A    between atoms: C_22  and  C_23
REMARK                            x       y       z     vdW  Elec       q    Type
REMARK                         _______ _______ _______ _____ _____    ______ ____
ROOT
ATOM      1  C   UNL     1       1.474   8.569  19.967  0.00  0.00    +0.000 A 
ATOM      2  C   UNL     1       1.448   8.352  21.369  0.00  0.00    +0.000 A 
ATOM      3  C   UNL     1       0.655   9.181  22.229  0.00  0.00    +0.000 A 
ATOM      4  C   UNL     1      -0.046  10.236  21.658  0.00  0.00    +0.000 A 
ATOM      5  C   UNL     1       0.197  10.519  20.339  0.00  0.00    +0.000 A 
ATOM      6  C   UNL     1       0.866   9.712  19.466  0.00  0.00    +0.000 A 
ATOM      7  C   UNL     1      -0.424  11.764  20.013  0.00  0.00    +0.000 C 
ATOM      8  O   UNL     1       0.019  12.517  19.167  0.00  0.00    +0.000 OA
ATOM      9  N   UNL     1      -1.405  11.950  20.930  0.00  0.00    +0.000 N 
ATOM     10  C   UNL     1      -1.096  11.230  22.069  0.00  0.00    +0.000 C 
ATOM     11  O   UNL     1      -1.539  11.345  23.205  0.00  0.00    +0.000 OA
ENDROOT
BRANCH   1  13
ATOM     12  N   UNL     1       2.583   6.500  19.167  0.00  0.00    +0.000 N 
ATOM     13  C   UNL     1       2.076   7.743  18.881  0.00  0.00    +0.000 C 
ATOM     14  O   UNL     1       2.071   8.230  17.749  0.00  0.00    +0.000 OA
ATOM     15  H   UNL     1       2.258   5.981  19.971  0.00  0.00    +0.000 HD
BRANCH  12  22
ATOM     16  C   UNL     1       2.987   4.561  17.759  0.00  0.00    +0.000 A 
ATOM     17  C   UNL     1       3.818   3.833  16.898  0.00  0.00    +0.000 A 
ATOM     18  C   UNL     1       5.105   4.287  16.592  0.00  0.00    +0.000 A 
ATOM     19  C   UNL     1       5.574   5.484  17.125  0.00  0.00    +0.000 A 
ATOM     20  C   UNL     1       6.951   5.996  16.818  0.00  0.00    +0.000 C 
ATOM     21  C   UNL     1       4.731   6.225  17.962  0.00  0.00    +0.000 A 
ATOM     22  C   UNL     1       3.435   5.784  18.280  0.00  0.00    +0.000 A 
BRANCH  16  24
ATOM     23  C   UNL     1       1.554   2.781  18.365  0.00  0.00    +0.000 C 
ATOM     24  O   UNL     1       1.722   4.174  18.133  0.00  0.00    +0.000 OA
ENDBRANCH  16  24
ENDBRANCH  12  22
ENDBRANCH   1  13
BRANCH   9  25
ATOM     25  C   UNL     1      -2.299  13.068  20.682  0.00  0.00    +0.000 C 
BRANCH  25  26
ATOM     26  C   UNL     1      -3.744  12.740  20.377  0.00  0.00    +0.000 A 
ATOM     27  C   UNL     1      -4.097  12.178  19.154  0.00  0.00    +0.000 A 
ATOM     28  C   UNL     1      -5.386  11.688  18.993  0.00  0.00    +0.000 A 
ATOM     29  N   UNL     1      -6.343  11.737  19.944  0.00  0.00    +0.000 NA
ATOM     30  C   UNL     1      -6.001  12.317  21.112  0.00  0.00    +0.000 A 
ATOM     31  C   UNL     1      -4.738  12.834  21.370  0.00  0.00    +0.000 A 
ENDBRANCH  25  26
ENDBRANCH   9  25
TORSDOF 5
ENDMDL
MODEL 4
REMARK VINA RESULT:      -8.4      3.555     10.339
REMARK  Name = 
REMARK  7 active torsions:
REMARK  status: ('A' for Active; 'I' for Inactive)
REMARK    1  A    between atoms: C_1  and  O_2
REMARK    2  A    between atoms: O_2  and  C_3
REMARK    3  A    between atoms: C_6  and  C_7
REMARK    4  A    between atoms: C_9  and  N_10
REMARK    5  A    between atoms: C_11  and  C_13
REMARK    6  A    between atoms: N_21  and  C_22
REMARK    7  A    between atoms: C_22  and  C_23
REMARK                            x       y       z     vdW  Elec       q    Type
REMARK                         _______ _______ _______ _____ _____    ______ ____
ROOT
ATOM      1  C   UNL     1       1.164   8.653  20.908  0.00  0.00    +0.000 A 
ATOM      2  C   UNL     1       1.099   8.832  22.315  0.00  0.00    +0.000 A 
ATOM      3  C   UNL     1       0.252   9.836  22.891  0.00  0.00    +0.000 A 
ATOM      4  C   UNL     1      -0.462  10.662  22.034  0.00  0.00    +0.000 A 
ATOM      5  C   UNL     1      -0.185  10.578  20.694  0.00  0.00    +0.000 A 
ATOM      6  C   UNL     1       0.538   9.587  20.095  0.00  0.00    +0.000 A 
ATOM      7  C   UNL     1      -0.832  11.659  20.020  0.00  0.00    +0.000 C 
ATOM      8  O   UNL     1      -0.385  12.164  19.008  0.00  0.00    +0.000 OA
ATOM      9  N   UNL     1      -1.849  12.053  20.825  0.00  0.00    +0.000 N 
ATOM     10  C   UNL     1      -1.555  11.690  22.127  0.00  0.00    +0.000 C 
ATOM     11  O   UNL     1      -2.038  12.098  23.175  0.00  0.00    +0.000 OA
ENDROOT
BRANCH   1  13
ATOM     12  N   UNL     1       2.050   6.348  20.669  0.00  0.00    +0.000 N 
ATOM     13  C   UNL     1       1.827   7.582  20.109  0.00  0.00    +0.000 C 
ATOM     14  O   UNL     1       2.134   7.867  18.951  0.00  0.00    +0.000 OA
ATOM     15  H   UNL     1       1.485   6.021  21.441  0.00  0.00    +0.000 HD
BRANCH  12  22
ATOM     16  C   UNL     1       2.617   4.025  20.240  0.00  0.00    +0.000 A 
ATOM     17  C   UNL     1       3.480   3.061  19.705  0.00  0.00    +0.000 A 
ATOM     18  C   UNL     1       4.675   3.436  19.082  0.00  0.00    +0.000 A 
ATOM     19  C   UNL     1       5.015   4.782  18.966  0.00  0.00    +0.000 A 
ATOM     20  C   UNL     1       6.290   5.216  18.306  0.00  0.00    +0.000 C 
ATOM     21  C   UNL     1       4.135   5.745  19.474  0.00  0.00    +0.000 A 
ATOM     22  C   UNL     1       2.931   5.385  20.104  0.00  0.00    +0.000 A 
BRANCH  16  24
ATOM     23  C   UNL     1       1.442   2.546  21.664  0.00  0.00    +0.000 C 
ATOM     24  O   UNL     1       1.439   3.741  20.891  0.00  0.00    +0.000 OA
ENDBRANCH  16  24
ENDBRANCH  12  22
ENDBRANCH   1  13
BRANCH   9  25
ATOM     25  C   UNL     1      -2.768  13.023  20.256  0.00  0.00    +0.000 C 
BRANCH  25  26
ATOM     26  C   UNL     1      -4.180  12.556  19.984  0.00  0.00    +0.000 A 
ATOM     27  C   UNL     1      -4.487  11.885  18.804  0.00  0.00    +0.000 A 
ATOM     28  C   UNL     1      -5.731  11.280  18.685  0.00  0.00    +0.000 A 
ATOM     29  N   UNL     1      -6.687  11.311  19.639  0.00  0.00    +0.000 NA
ATOM     30  C   UNL     1      -6.393  11.995  20.762  0.00  0.00    +0.000 A 
ATOM     31  C   UNL     1      -5.177  12.632  20.976  0.00  0.00    +0.000 A 
ENDBRANCH  25  26
ENDBRANCH   9  25
TORSDOF 5
ENDMDL
MODEL 5
REMARK VINA RESULT:      -8.3      2.118      9.259
REMARK  Name = 
REMARK  7 active torsions:
REMARK  status: ('A' for Active; 'I' for Inactive)
REMARK    1  A    between atoms: C_1  and  O_2
REMARK    2  A    between atoms: O_2  and  C_3
REMARK    3  A    between atoms: C_6  and  C_7
REMARK    4  A    between atoms: C_9  and  N_10
REMARK    5  A    between atoms: C_11  and  C_13
REMARK    6  A    between atoms: N_21  and  C_22
REMARK    7  A    between atoms: C_22  and  C_23
REMARK                            x       y       z     vdW  Elec       q    Type
REMARK                         _______ _______ _______ _____ _____    ______ ____
ROOT
ATOM      1  C   UNL     1       2.427   7.006  19.320  0.00  0.00    +0.000 A 
ATOM      2  C   UNL     1       1.972   6.907  20.661  0.00  0.00    +0.000 A 
ATOM      3  C   UNL     1       1.088   7.893  21.213  0.00  0.00    +0.000 A 
ATOM      4  C   UNL     1       0.732   8.973  20.416  0.00  0.00    +0.000 A 
ATOM      5  C   UNL     1       1.378   9.117  19.216  0.00  0.00    +0.000 A 
ATOM      6  C   UNL     1       2.151   8.168  18.613  0.00  0.00    +0.000 A 
ATOM      7  C   UNL     1       1.054  10.397  18.668  0.00  0.00    +0.000 C 
ATOM      8  O   UNL     1       1.820  11.020  17.958  0.00  0.00    +0.000 OA
ATOM      9  N   UNL     1      -0.113  10.772  19.247  0.00  0.00    +0.000 N 
ATOM     10  C   UNL     1      -0.244  10.116  20.457  0.00  0.00    +0.000 C 
ATOM     11  O   UNL     1      -0.973  10.375  21.406  0.00  0.00    +0.000 OA
ENDROOT
BRANCH   1  13
ATOM     12  N   UNL     1       4.566   6.049  18.508  0.00  0.00    +0.000 N 
ATOM     13  C   UNL     1       3.194   6.027  18.496  0.00  0.00    +0.000 C 
ATOM     14  O   UNL     1       2.534   5.219  17.840  0.00  0.00    +0.000 OA
ATOM     15  H   UNL     1       5.071   6.438  19.294  0.00  0.00    +0.000 HD
BRANCH  12  22
ATOM     16  C   UNL     1       6.634   4.915  17.921  0.00  0.00    +0.000 A 
ATOM     17  C   UNL     1       7.441   4.265  16.979  0.00  0.00    +0.000 A 
ATOM     18  C   UNL     1       7.017   4.113  15.655  0.00  0.00    +0.000 A 
ATOM     19  C   UNL     1       5.772   4.592  15.256  0.00  0.00    +0.000 A 
ATOM     20  C   UNL     1       5.289   4.448  13.843  0.00  0.00    +0.000 C 
ATOM     21  C   UNL     1       4.954   5.215  16.207  0.00  0.00    +0.000 A 
ATOM     22  C   UNL     1       5.365   5.376  17.541  0.00  0.00    +0.000 A 
BRANCH  16  24
ATOM     23  C   UNL     1       8.107   5.982  19.432  0.00  0.00    +0.000 C 
ATOM     24  O   UNL     1       6.985   5.130  19.232  0.00  0.00    +0.000 OA
ENDBRANCH  16  24
ENDBRANCH  12  22
ENDBRANCH   1  13
BRANCH   9  25
ATOM     25  C   UNL     1      -0.736  11.965  18.699  0.00  0.00    +0.000 C 
BRANCH  25  26
ATOM     26  C   UNL     1      -2.121  11.811  18.113  0.00  0.00    +0.000 A 
ATOM     27  C   UNL     1      -2.292  11.313  16.825  0.00  0.00    +0.000 A 
ATOM     28  C   UNL     1      -3.571  10.978  16.403  0.00  0.00    +0.000 A 
ATOM     29  N   UNL     1      -4.682  11.121  17.157  0.00  0.00    +0.000 NA
ATOM     30  C   UNL     1      -4.511  11.638  18.389  0.00  0.00    +0.000 A 
ATOM     31  C   UNL     1      -3.272  12.002  18.902  0.00  0.00    +0.000 A 
ENDBRANCH  25  26
ENDBRANCH   9  25
TORSDOF 5
ENDMDL
MODEL 6
REMARK VINA RESULT:      -8.2      1.967      9.418
REMARK  Name = 
REMARK  7 active torsions:
REMARK  status: ('A' for Active; 'I' for Inactive)
REMARK    1  A    between atoms: C_1  and  O_2
REMARK    2  A    between atoms: O_2  and  C_3
REMARK    3  A    between atoms: C_6  and  C_7
REMARK    4  A    between atoms: C_9  and  N_10
REMARK    5  A    between atoms: C_11  and  C_13
REMARK    6  A    between atoms: N_21  and  C_22
REMARK    7  A    between atoms: C_22  and  C_23
REMARK                            x       y       z     vdW  Elec       q    Type
REMARK                         _______ _______ _______ _____ _____    ______ ____
ROOT
ATOM      1  C   UNL     1       2.619   7.594  18.897  0.00  0.00    +0.000 A 
ATOM      2  C   UNL     1       2.325   7.158  20.215  0.00  0.00    +0.000 A 
ATOM      3  C   UNL     1       1.355   7.844  21.019  0.00  0.00    +0.000 A 
ATOM      4  C   UNL     1       0.749   8.977  20.491  0.00  0.00    +0.000 A 
ATOM      5  C   UNL     1       1.239   9.464  19.306  0.00  0.00    +0.000 A 
ATOM      6  C   UNL     1       2.090   8.803  18.469  0.00  0.00    +0.000 A 
ATOM      7  C   UNL     1       0.659  10.746  19.061  0.00  0.00    +0.000 C 
ATOM      8  O   UNL     1       1.238  11.622  18.446  0.00  0.00    +0.000 OA
ATOM      9  N   UNL     1      -0.488  10.788  19.782  0.00  0.00    +0.000 N 
ATOM     10  C   UNL     1      -0.388   9.897  20.834  0.00  0.00    +0.000 C 
ATOM     11  O   UNL     1      -1.049   9.833  21.863  0.00  0.00    +0.000 OA
ENDROOT
BRANCH   1  13
ATOM     12  N   UNL     1       3.988   5.705  18.054  0.00  0.00    +0.000 N 
ATOM     13  C   UNL     1       3.446   6.947  17.838  0.00  0.00    +0.000 C 
ATOM     14  O   UNL     1       3.590   7.576  16.788  0.00  0.00    +0.000 OA
ATOM     15  H   UNL     1       3.574   5.069  18.723  0.00  0.00    +0.000 HD
BRANCH  12  22
ATOM     16  C   UNL     1       6.307   5.029  17.790  0.00  0.00    +0.000 A 
ATOM     17  C   UNL     1       7.341   4.504  17.005  0.00  0.00    +0.000 A 
ATOM     18  C   UNL     1       7.116   4.148  15.670  0.00  0.00    +0.000 A 
ATOM     19  C   UNL     1       5.851   4.293  15.107  0.00  0.00    +0.000 A 
ATOM     20  C   UNL     1       5.579   3.923  13.679  0.00  0.00    +0.000 C 
ATOM     21  C   UNL     1       4.812   4.790  15.904  0.00  0.00    +0.000 A 
ATOM     22  C   UNL     1       5.021   5.153  17.245  0.00  0.00    +0.000 A 
BRANCH  16  24
ATOM     23  C   UNL     1       7.762   5.825  19.476  0.00  0.00    +0.000 C 
ATOM     24  O   UNL     1       6.448   5.429  19.098  0.00  0.00    +0.000 OA
ENDBRANCH  16  24
ENDBRANCH  12  22
ENDBRANCH   1  13
BRANCH   9  25
ATOM     25  C   UNL     1      -1.348  11.934  19.538  0.00  0.00    +0.000 C 
BRANCH  25  26
ATOM     26  C   UNL     1      -2.609  11.691  18.741  0.00  0.00    +0.000 A 
ATOM     27  C   UNL     1      -3.848  12.076  19.245  0.00  0.00    +0.000 A 
ATOM     28  C   UNL     1      -4.951  12.042  18.402  0.00  0.00    +0.000 A 
ATOM     29  N   UNL     1      -4.912  11.637  17.114  0.00  0.00    +0.000 NA
ATOM     30  C   UNL     1      -3.714  11.231  16.647  0.00  0.00    +0.000 A 
ATOM     31  C   UNL     1      -2.554  11.231  17.411  0.00  0.00    +0.000 A 
ENDBRANCH  25  26
ENDBRANCH   9  25
TORSDOF 5
ENDMDL
MODEL 7
REMARK VINA RESULT:      -8.1      3.168     10.705
REMARK  Name = 
REMARK  7 active torsions:
REMARK  status: ('A' for Active; 'I' for Inactive)
REMARK    1  A    between atoms: C_1  and  O_2
REMARK    2  A    between atoms: O_2  and  C_3
REMARK    3  A    between atoms: C_6  and  C_7
REMARK    4  A    between atoms: C_9  and  N_10
REMARK    5  A    between atoms: C_11  and  C_13
REMARK    6  A    between atoms: N_21  and  C_22
REMARK    7  A    between atoms: C_22  and  C_23
REMARK                            x       y       z     vdW  Elec       q    Type
REMARK                         _______ _______ _______ _____ _____    ______ ____
ROOT
ATOM      1  C   UNL     1       1.140   9.031  19.287  0.00  0.00    +0.000 A 
ATOM      2  C   UNL     1       0.693   9.851  18.218  0.00  0.00    +0.000 A 
ATOM      3  C   UNL     1      -0.004  11.078  18.473  0.00  0.00    +0.000 A 
ATOM      4  C   UNL     1      -0.277  11.416  19.793  0.00  0.00    +0.000 A 
ATOM      5  C   UNL     1      -0.012  10.476  20.755  0.00  0.00    +0.000 A 
ATOM      6  C   UNL     1       0.727   9.342  20.574  0.00  0.00    +0.000 A 
ATOM      7  C   UNL     1      -0.578  10.911  21.993  0.00  0.00    +0.000 C 
ATOM      8  O   UNL     1      -0.979  10.136  22.840  0.00  0.00    +0.000 OA
ATOM      9  N   UNL     1      -0.715  12.256  21.894  0.00  0.00    +0.000 N 
ATOM     10  C   UNL     1      -0.793  12.602  20.558  0.00  0.00    +0.000 C 
ATOM     11  O   UNL     1      -1.203  13.635  20.045  0.00  0.00    +0.000 OA
ENDROOT
BRANCH   1  13
ATOM     12  N   UNL     1       2.507   7.355  18.072  0.00  0.00    +0.000 N 
ATOM     13  C   UNL     1       2.018   7.825  19.265  0.00  0.00    +0.000 C 
ATOM     14  O   UNL     1       2.276   7.311  20.354  0.00  0.00    +0.000 OA
ATOM     15  H   UNL     1       2.600   7.969  17.273  0.00  0.00    +0.000 HD
BRANCH  12  22
ATOM     16  C   UNL     1       4.435   5.970  17.557  0.00  0.00    +0.000 A 
ATOM     17  C   UNL     1       5.018   4.707  17.388  0.00  0.00    +0.000 A 
ATOM     18  C   UNL     1       4.256   3.542  17.531  0.00  0.00    +0.000 A 
ATOM     19  C   UNL     1       2.907   3.621  17.865  0.00  0.00    +0.000 A 
ATOM     20  C   UNL     1       2.063   2.391  18.023  0.00  0.00    +0.000 C 
ATOM     21  C   UNL     1       2.334   4.883  18.063  0.00  0.00    +0.000 A 
ATOM     22  C   UNL     1       3.084   6.064  17.922  0.00  0.00    +0.000 A 
BRANCH  16  24
ATOM     23  C   UNL     1       6.513   7.056  17.250  0.00  0.00    +0.000 C 
ATOM     24  O   UNL     1       5.103   7.162  17.408  0.00  0.00    +0.000 OA
ENDBRANCH  16  24
ENDBRANCH  12  22
ENDBRANCH   1  13
BRANCH   9  25
ATOM     25  C   UNL     1      -1.101  12.944  23.115  0.00  0.00    +0.000 C 
BRANCH  25  26
ATOM     26  C   UNL     1      -2.552  13.344  23.251  0.00  0.00    +0.000 A 
ATOM     27  C   UNL     1      -3.480  12.461  23.795  0.00  0.00    +0.000 A 
ATOM     28  C   UNL     1      -4.747  12.934  24.108  0.00  0.00    +0.000 A 
ATOM     29  N   UNL     1      -5.158  14.203  23.901  0.00  0.00    +0.000 NA
ATOM     30  C   UNL     1      -4.264  15.041  23.339  0.00  0.00    +0.000 A 
ATOM     31  C   UNL     1      -2.973  14.663  22.993  0.00  0.00    +0.000 A 
ENDBRANCH  25  26
ENDBRANCH   9  25
TORSDOF 5
ENDMDL
MODEL 8
REMARK VINA RESULT:      -8.1      2.426      3.561
REMARK  Name = 
REMARK  7 active torsions:
REMARK  status: ('A' for Active; 'I' for Inactive)
REMARK    1  A    between atoms: C_1  and  O_2
REMARK    2  A    between atoms: O_2  and  C_3
REMARK    3  A    between atoms: C_6  and  C_7
REMARK    4  A    between atoms: C_9  and  N_10
REMARK    5  A    between atoms: C_11  and  C_13
REMARK    6  A    between atoms: N_21  and  C_22
REMARK    7  A    between atoms: C_22  and  C_23
REMARK                            x       y       z     vdW  Elec       q    Type
REMARK                         _______ _______ _______ _____ _____    ______ ____
ROOT
ATOM      1  C   UNL     1       0.989   8.619  21.129  0.00  0.00    +0.000 A 
ATOM      2  C   UNL     1       0.854   7.249  21.471  0.00  0.00    +0.000 A 
ATOM      3  C   UNL     1       1.506   6.230  20.699  0.00  0.00    +0.000 A 
ATOM      4  C   UNL     1       2.228   6.618  19.578  0.00  0.00    +0.000 A 
ATOM      5  C   UNL     1       2.134   7.928  19.185  0.00  0.00    +0.000 A 
ATOM      6  C   UNL     1       1.606   8.943  19.929  0.00  0.00    +0.000 A 
ATOM      7  C   UNL     1       2.740   8.068  17.898  0.00  0.00    +0.000 C 
ATOM      8  O   UNL     1       2.372   8.895  17.086  0.00  0.00    +0.000 OA
ATOM      9  N   UNL     1       3.596   7.025  17.767  0.00  0.00    +0.000 N 
ATOM     10  C   UNL     1       3.181   5.998  18.594  0.00  0.00    +0.000 C 
ATOM     11  O   UNL     1       3.480   4.811  18.570  0.00  0.00    +0.000 OA
ENDROOT
BRANCH   1  13
ATOM     12  N   UNL     1      -0.143  10.825  21.221  0.00  0.00    +0.000 N 
ATOM     13  C   UNL     1       0.554   9.838  21.872  0.00  0.00    +0.000 C 
ATOM     14  O   UNL     1       0.840   9.886  23.069  0.00  0.00    +0.000 OA
ATOM     15  H   UNL     1      -0.676  10.618  20.386  0.00  0.00    +0.000 HD
BRANCH  12  22
ATOM     16  C   UNL     1       0.621  13.119  21.455  0.00  0.00    +0.000 A 
ATOM     17  C   UNL     1       0.467  14.407  21.984  0.00  0.00    +0.000 A 
ATOM     18  C   UNL     1      -0.594  14.704  22.847  0.00  0.00    +0.000 A 
ATOM     19  C   UNL     1      -1.526  13.724  23.179  0.00  0.00    +0.000 A 
ATOM     20  C   UNL     1      -2.672  14.009  24.103  0.00  0.00    +0.000 C 
ATOM     21  C   UNL     1      -1.386  12.446  22.623  0.00  0.00    +0.000 A 
ATOM     22  C   UNL     1      -0.327  12.131  21.756  0.00  0.00    +0.000 A 
BRANCH  16  24
ATOM     23  C   UNL     1       1.501  13.118  19.260  0.00  0.00    +0.000 C 
ATOM     24  O   UNL     1       1.647  12.737  20.623  0.00  0.00    +0.000 OA
ENDBRANCH  16  24
ENDBRANCH  12  22
ENDBRANCH   1  13
BRANCH   9  25
ATOM     25  C   UNL     1       4.469   7.064  16.606  0.00  0.00    +0.000 C 
BRANCH  25  26
ATOM     26  C   UNL     1       5.732   6.236  16.666  0.00  0.00    +0.000 A 
ATOM     27  C   UNL     1       6.593   6.340  17.755  0.00  0.00    +0.000 A 
ATOM     28  C   UNL     1       7.619   5.414  17.884  0.00  0.00    +0.000 A 
ATOM     29  N   UNL     1       7.858   4.416  17.007  0.00  0.00    +0.000 NA
ATOM     30  C   UNL     1       7.041   4.346  15.937  0.00  0.00    +0.000 A 
ATOM     31  C   UNL     1       5.987   5.224  15.721  0.00  0.00    +0.000 A 
ENDBRANCH  25  26
ENDBRANCH   9  25
TORSDOF 5
ENDMDL
MODEL 9
REMARK VINA RESULT:      -8.1      1.077      2.246
REMARK  Name = 
REMARK  7 active torsions:
REMARK  status: ('A' for Active; 'I' for Inactive)
REMARK    1  A    between atoms: C_1  and  O_2
REMARK    2  A    between atoms: O_2  and  C_3
REMARK    3  A    between atoms: C_6  and  C_7
REMARK    4  A    between atoms: C_9  and  N_10
REMARK    5  A    between atoms: C_11  and  C_13
REMARK    6  A    between atoms: N_21  and  C_22
REMARK    7  A    between atoms: C_22  and  C_23
REMARK                            x       y       z     vdW  Elec       q    Type
REMARK                         _______ _______ _______ _____ _____    ______ ____
ROOT
ATOM      1  C   UNL     1       2.284   7.788  18.321  0.00  0.00    +0.000 A 
ATOM      2  C   UNL     1       1.798   6.541  18.792  0.00  0.00    +0.000 A 
ATOM      3  C   UNL     1       2.512   5.325  18.530  0.00  0.00    +0.000 A 
ATOM      4  C   UNL     1       3.665   5.395  17.759  0.00  0.00    +0.000 A 
ATOM      5  C   UNL     1       3.954   6.592  17.157  0.00  0.00    +0.000 A 
ATOM      6  C   UNL     1       3.361   7.788  17.445  0.00  0.00    +0.000 A 
ATOM      7  C   UNL     1       5.022   6.396  16.228  0.00  0.00    +0.000 C 
ATOM      8  O   UNL     1       5.141   7.058  15.215  0.00  0.00    +0.000 OA
ATOM      9  N   UNL     1       5.672   5.276  16.630  0.00  0.00    +0.000 N 
ATOM     10  C   UNL     1       4.802   4.493  17.367  0.00  0.00    +0.000 C 
ATOM     11  O   UNL     1       4.881   3.307  17.657  0.00  0.00    +0.000 OA
ENDROOT
BRANCH   1  13
ATOM     12  N   UNL     1       0.804   9.374  19.523  0.00  0.00    +0.000 N 
ATOM     13  C   UNL     1       1.811   9.172  18.613  0.00  0.00    +0.000 C 
ATOM     14  O   UNL     1       2.379  10.088  18.015  0.00  0.00    +0.000 OA
ATOM     15  H   UNL     1       0.618   8.694  20.249  0.00  0.00    +0.000 HD
BRANCH  12  22
ATOM     16  C   UNL     1      -0.882  10.904  18.675  0.00  0.00    +0.000 A 
ATOM     17  C   UNL     1      -1.583  12.114  18.761  0.00  0.00    +0.000 A 
ATOM     18  C   UNL     1      -1.289  13.042  19.765  0.00  0.00    +0.000 A 
ATOM     19  C   UNL     1      -0.304  12.767  20.711  0.00  0.00    +0.000 A 
ATOM     20  C   UNL     1       0.036  13.742  21.798  0.00  0.00    +0.000 C 
ATOM     21  C   UNL     1       0.374  11.543  20.640  0.00  0.00    +0.000 A 
ATOM     22  C   UNL     1       0.092  10.600  19.637  0.00  0.00    +0.000 A 
BRANCH  16  24
ATOM     23  C   UNL     1      -2.386   9.947  17.121  0.00  0.00    +0.000 C 
ATOM     24  O   UNL     1      -1.089   9.952  17.705  0.00  0.00    +0.000 OA
ENDBRANCH  16  24
ENDBRANCH  12  22
ENDBRANCH   1  13
BRANCH   9  25
ATOM     25  C   UNL     1       6.917   4.984  15.939  0.00  0.00    +0.000 C 
BRANCH  25  26
ATOM     26  C   UNL     1       6.833   4.717  14.454  0.00  0.00    +0.000 A 
ATOM     27  C   UNL     1       7.728   5.323  13.576  0.00  0.00    +0.000 A 
ATOM     28  C   UNL     1       7.766   4.888  12.258  0.00  0.00    +0.000 A 
ATOM     29  N   UNL     1       6.973   3.919  11.753  0.00  0.00    +0.000 NA
ATOM     30  C   UNL     1       6.085   3.365  12.602  0.00  0.00    +0.000 A 
ATOM     31  C   UNL     1       5.972   3.730  13.938  0.00  0.00    +0.000 A 
ENDBRANCH  25  26
ENDBRANCH   9  25
TORSDOF 5
ENDMDL
