MODEL 1
REMARK VINA RESULT:      -6.3      0.000      0.000
REMARK  Name = 
REMARK  11 active torsions:
REMARK  status: ('A' for Active; 'I' for Inactive)
REMARK    1  A    between atoms: C_1  and  O_2
REMARK    2  A    between atoms: O_2  and  C_3
REMARK    3  A    between atoms: C_16  and  O_17
REMARK    4  A    between atoms: C_18  and  O_19
REMARK    5  A    between atoms: O_19  and  C_20
REMARK    6  A    between atoms: N_24  and  C_25
REMARK    7  A    between atoms: C_25  and  C_26
REMARK    8  A    between atoms: C_26  and  N_27
REMARK    9  A    between atoms: N_27  and  C_28
REMARK   10  A    between atoms: N_27  and  C_29
REMARK   11  A    between atoms: C_32  and  O_33
REMARK                            x       y       z     vdW  Elec       q    Type
REMARK                         _______ _______ _______ _____ _____    ______ ____
ROOT
ATOM      1  C   UNL     1      -7.000  14.765  23.160  0.00  0.00    +0.000 A 
ATOM      2  C   UNL     1      -6.708  14.823  21.819  0.00  0.00    +0.000 A 
ATOM      3  C   UNL     1      -6.502  13.581  21.151  0.00  0.00    +0.000 A 
ATOM      4  C   UNL     1      -7.360  12.525  21.388  0.00  0.00    +0.000 A 
ATOM      5  C   UNL     1      -7.490  11.564  20.350  0.00  0.00    +0.000 A 
ATOM      6  C   UNL     1      -6.528  11.507  19.324  0.00  0.00    +0.000 A 
ATOM      7  C   UNL     1      -5.309  12.095  19.654  0.00  0.00    +0.000 A 
ATOM      8  C   UNL     1      -3.964  12.083  19.218  0.00  0.00    +0.000 A 
ATOM      9  C   UNL     1      -3.295  11.505  18.046  0.00  0.00    +0.000 A 
ATOM     10  O   UNL     1      -3.931  10.981  17.143  0.00  0.00    +0.000 OA
ATOM     11  O   UNL     1      -1.897  11.695  17.987  0.00  0.00    +0.000 OA
ATOM     12  C   UNL     1      -1.129  12.365  18.991  0.00  0.00    +0.000 A 
ATOM     13  C   UNL     1       0.270  12.422  18.879  0.00  0.00    +0.000 A 
ATOM     14  C   UNL     1       1.004  13.029  19.919  0.00  0.00    +0.000 A 
ATOM     15  C   UNL     1       0.363  13.577  21.034  0.00  0.00    +0.000 A 
ATOM     16  C   UNL     1      -1.029  13.534  21.080  0.00  0.00    +0.000 A 
ATOM     17  C   UNL     1      -1.764  12.883  20.101  0.00  0.00    +0.000 A 
ATOM     18  C   UNL     1      -3.209  12.710  20.200  0.00  0.00    +0.000 A 
ATOM     19  N   UNL     1      -4.023  12.774  21.305  0.00  0.00    +0.000 N 
ATOM     20  C   UNL     1      -5.290  12.954  20.785  0.00  0.00    +0.000 A 
ATOM     21  C   UNL     1      -7.753  12.448  22.740  0.00  0.00    +0.000 A 
ATOM     22  C   UNL     1      -7.310  13.477  23.602  0.00  0.00    +0.000 A 
ENDROOT
BRANCH   1  24
ATOM     23  C   UNL     1      -6.234  16.917  23.859  0.00  0.00    +0.000 C 
ATOM     24  O   UNL     1      -6.203  15.503  24.028  0.00  0.00    +0.000 OA
ENDBRANCH   1  24
BRANCH  14  25
ATOM     25  O   UNL     1       2.367  13.092  19.820  0.00  0.00    +0.000 OA
ATOM     26  H   UNL     1       2.736  13.273  20.707  0.00  0.00    +0.000 HD
ENDBRANCH  14  25
BRANCH  15  27
ATOM     27  O   UNL     1       0.878  14.158  22.155  0.00  0.00    +0.000 OA
ATOM     28  C   UNL     1       1.184  15.538  22.139  0.00  0.00    +0.000 C 
ENDBRANCH  15  27
BRANCH  22  29
ATOM     29  O   UNL     1      -6.569  13.115  24.713  0.00  0.00    +0.000 OA
ATOM     30  H   UNL     1      -7.016  12.271  24.962  0.00  0.00    +0.000 HD
ENDBRANCH  22  29
BRANCH  19  31
ATOM     31  C   UNL     1      -3.491  12.481  22.628  0.00  0.00    +0.000 C 
BRANCH  31  32
ATOM     32  C   UNL     1      -3.416  13.275  23.973  0.00  0.00    +0.000 C 
BRANCH  32  33
ATOM     33  N   UNL     1      -2.545  14.443  24.190  0.00  0.00    +0.000 NA
ATOM     34  C   UNL     1      -2.861  15.519  23.235  0.00  0.00    +0.000 C 
ATOM     35  C   UNL     1      -2.768  14.991  25.545  0.00  0.00    +0.000 C 
ENDBRANCH  32  33
ENDBRANCH  31  32
ENDBRANCH  19  31
TORSDOF 7
ENDMDL
MODEL 2
REMARK VINA RESULT:      -6.3      7.629     13.183
REMARK  Name = 
REMARK  11 active torsions:
REMARK  status: ('A' for Active; 'I' for Inactive)
REMARK    1  A    between atoms: C_1  and  O_2
REMARK    2  A    between atoms: O_2  and  C_3
REMARK    3  A    between atoms: C_16  and  O_17
REMARK    4  A    between atoms: C_18  and  O_19
REMARK    5  A    between atoms: O_19  and  C_20
REMARK    6  A    between atoms: N_24  and  C_25
REMARK    7  A    between atoms: C_25  and  C_26
REMARK    8  A    between atoms: C_26  and  N_27
REMARK    9  A    between atoms: N_27  and  C_28
REMARK   10  A    between atoms: N_27  and  C_29
REMARK   11  A    between atoms: C_32  and  O_33
REMARK                            x       y       z     vdW  Elec       q    Type
REMARK                         _______ _______ _______ _____ _____    ______ ____
ROOT
ATOM      1  C   UNL     1       9.860  10.995  18.641  0.00  0.00    +0.000 A 
ATOM      2  C   UNL     1       9.444  12.032  17.842  0.00  0.00    +0.000 A 
ATOM      3  C   UNL     1       9.773  13.350  18.277  0.00  0.00    +0.000 A 
ATOM      4  C   UNL     1      11.041  13.618  18.752  0.00  0.00    +0.000 A 
ATOM      5  C   UNL     1      11.499  14.957  18.627  0.00  0.00    +0.000 A 
ATOM      6  C   UNL     1      10.577  15.992  18.381  0.00  0.00    +0.000 A 
ATOM      7  C   UNL     1       9.264  15.676  18.722  0.00  0.00    +0.000 A 
ATOM      8  C   UNL     1       8.042  16.335  18.991  0.00  0.00    +0.000 A 
ATOM      9  C   UNL     1       7.605  17.731  18.861  0.00  0.00    +0.000 A 
ATOM     10  O   UNL     1       8.320  18.576  18.341  0.00  0.00    +0.000 OA
ATOM     11  O   UNL     1       6.281  17.996  19.271  0.00  0.00    +0.000 OA
ATOM     12  C   UNL     1       5.392  17.017  19.818  0.00  0.00    +0.000 A 
ATOM     13  C   UNL     1       4.123  17.404  20.278  0.00  0.00    +0.000 A 
ATOM     14  C   UNL     1       3.298  16.429  20.876  0.00  0.00    +0.000 A 
ATOM     15  C   UNL     1       3.718  15.101  20.998  0.00  0.00    +0.000 A 
ATOM     16  C   UNL     1       4.968  14.756  20.490  0.00  0.00    +0.000 A 
ATOM     17  C   UNL     1       5.821  15.713  19.959  0.00  0.00    +0.000 A 
ATOM     18  C   UNL     1       7.183  15.396  19.546  0.00  0.00    +0.000 A 
ATOM     19  N   UNL     1       7.979  14.334  19.899  0.00  0.00    +0.000 N 
ATOM     20  C   UNL     1       8.960  14.305  18.927  0.00  0.00    +0.000 A 
ATOM     21  C   UNL     1      11.556  12.560  19.529  0.00  0.00    +0.000 A 
ATOM     22  C   UNL     1      10.774  11.386  19.622  0.00  0.00    +0.000 A 
ENDROOT
BRANCH   1  24
ATOM     23  C   UNL     1       8.268   9.315  18.048  0.00  0.00    +0.000 C 
ATOM     24  O   UNL     1       8.902  10.082  19.068  0.00  0.00    +0.000 OA
ENDBRANCH   1  24
BRANCH  14  25
ATOM     25  O   UNL     1       2.058  16.794  21.325  0.00  0.00    +0.000 OA
ATOM     26  H   UNL     1       2.105  17.712  21.656  0.00  0.00    +0.000 HD
ENDBRANCH  14  25
BRANCH  15  27
ATOM     27  O   UNL     1       3.106  14.029  21.576  0.00  0.00    +0.000 OA
ATOM     28  C   UNL     1       2.199  13.257  20.813  0.00  0.00    +0.000 C 
ENDBRANCH  15  27
BRANCH  22  29
ATOM     29  O   UNL     1      10.399  10.958  20.884  0.00  0.00    +0.000 OA
ATOM     30  H   UNL     1      10.027  10.069  20.671  0.00  0.00    +0.000 HD
ENDBRANCH  22  29
BRANCH  19  31
ATOM     31  C   UNL     1       7.777  13.654  21.171  0.00  0.00    +0.000 C 
BRANCH  31  32
ATOM     32  C   UNL     1       8.298  13.887  22.626  0.00  0.00    +0.000 C 
BRANCH  32  33
ATOM     33  N   UNL     1       7.687  13.285  23.824  0.00  0.00    +0.000 NA
ATOM     34  C   UNL     1       6.219  13.257  23.709  0.00  0.00    +0.000 C 
ATOM     35  C   UNL     1       8.134  11.883  23.965  0.00  0.00    +0.000 C 
ENDBRANCH  32  33
ENDBRANCH  31  32
ENDBRANCH  19  31
TORSDOF 7
ENDMDL
MODEL 3
REMARK VINA RESULT:      -6.3      7.848     13.398
REMARK  Name = 
REMARK  11 active torsions:
REMARK  status: ('A' for Active; 'I' for Inactive)
REMARK    1  A    between atoms: C_1  and  O_2
REMARK    2  A    between atoms: O_2  and  C_3
REMARK    3  A    between atoms: C_16  and  O_17
REMARK    4  A    between atoms: C_18  and  O_19
REMARK    5  A    between atoms: O_19  and  C_20
REMARK    6  A    between atoms: N_24  and  C_25
REMARK    7  A    between atoms: C_25  and  C_26
REMARK    8  A    between atoms: C_26  and  N_27
REMARK    9  A    between atoms: N_27  and  C_28
REMARK   10  A    between atoms: N_27  and  C_29
REMARK   11  A    between atoms: C_32  and  O_33
REMARK                            x       y       z     vdW  Elec       q    Type
REMARK                         _______ _______ _______ _____ _____    ______ ____
ROOT
ATOM      1  C   UNL     1      10.074  11.110  18.766  0.00  0.00    +0.000 A 
ATOM      2  C   UNL     1       9.640  12.113  17.935  0.00  0.00    +0.000 A 
ATOM      3  C   UNL     1       9.922  13.450  18.340  0.00  0.00    +0.000 A 
ATOM      4  C   UNL     1      11.174  13.769  18.827  0.00  0.00    +0.000 A 
ATOM      5  C   UNL     1      11.593  15.118  18.675  0.00  0.00    +0.000 A 
ATOM      6  C   UNL     1      10.645  16.118  18.389  0.00  0.00    +0.000 A 
ATOM      7  C   UNL     1       9.336  15.771  18.718  0.00  0.00    +0.000 A 
ATOM      8  C   UNL     1       8.092  16.399  18.953  0.00  0.00    +0.000 A 
ATOM      9  C   UNL     1       7.615  17.777  18.780  0.00  0.00    +0.000 A 
ATOM     10  O   UNL     1       8.312  18.631  18.250  0.00  0.00    +0.000 OA
ATOM     11  O   UNL     1       6.277  18.012  19.164  0.00  0.00    +0.000 OA
ATOM     12  C   UNL     1       5.410  17.021  19.723  0.00  0.00    +0.000 A 
ATOM     13  C   UNL     1       4.123  17.380  20.155  0.00  0.00    +0.000 A 
ATOM     14  C   UNL     1       3.318  16.396  20.765  0.00  0.00    +0.000 A 
ATOM     15  C   UNL     1       3.776  15.085  20.927  0.00  0.00    +0.000 A 
ATOM     16  C   UNL     1       5.044  14.766  20.446  0.00  0.00    +0.000 A 
ATOM     17  C   UNL     1       5.875  15.734  19.904  0.00  0.00    +0.000 A 
ATOM     18  C   UNL     1       7.252  15.449  19.519  0.00  0.00    +0.000 A 
ATOM     19  N   UNL     1       8.074  14.420  19.910  0.00  0.00    +0.000 N 
ATOM     20  C   UNL     1       9.071  14.396  18.954  0.00  0.00    +0.000 A 
ATOM     21  C   UNL     1      11.709  12.747  19.638  0.00  0.00    +0.000 A 
ATOM     22  C   UNL     1      10.961  11.553  19.750  0.00  0.00    +0.000 A 
ENDROOT
BRANCH   1  24
ATOM     23  C   UNL     1       8.448   9.459  18.184  0.00  0.00    +0.000 C 
ATOM     24  O   UNL     1       9.137  10.179  19.201  0.00  0.00    +0.000 OA
ENDBRANCH   1  24
BRANCH  14  25
ATOM     25  O   UNL     1       2.061  16.734  21.187  0.00  0.00    +0.000 OA
ATOM     26  H   UNL     1       1.527  15.918  21.258  0.00  0.00    +0.000 HD
ENDBRANCH  14  25
BRANCH  15  27
ATOM     27  O   UNL     1       3.188  14.009  21.523  0.00  0.00    +0.000 OA
ATOM     28  C   UNL     1       2.237  13.253  20.800  0.00  0.00    +0.000 C 
ENDBRANCH  15  27
BRANCH  22  29
ATOM     29  O   UNL     1      10.579  11.146  21.016  0.00  0.00    +0.000 OA
ATOM     30  H   UNL     1       9.902  10.463  20.791  0.00  0.00    +0.000 HD
ENDBRANCH  22  29
BRANCH  19  31
ATOM     31  C   UNL     1       7.873  13.767  21.196  0.00  0.00    +0.000 C 
BRANCH  31  32
ATOM     32  C   UNL     1       8.524  13.919  22.610  0.00  0.00    +0.000 C 
BRANCH  32  33
ATOM     33  N   UNL     1       9.145  15.162  23.099  0.00  0.00    +0.000 NA
ATOM     34  C   UNL     1      10.337  15.502  22.306  0.00  0.00    +0.000 C 
ATOM     35  C   UNL     1       8.196  16.287  22.956  0.00  0.00    +0.000 C 
ENDBRANCH  32  33
ENDBRANCH  31  32
ENDBRANCH  19  31
TORSDOF 7
ENDMDL
MODEL 4
REMARK VINA RESULT:      -6.2      2.293      7.272
REMARK  Name = 
REMARK  11 active torsions:
REMARK  status: ('A' for Active; 'I' for Inactive)
REMARK    1  A    between atoms: C_1  and  O_2
REMARK    2  A    between atoms: O_2  and  C_3
REMARK    3  A    between atoms: C_16  and  O_17
REMARK    4  A    between atoms: C_18  and  O_19
REMARK    5  A    between atoms: O_19  and  C_20
REMARK    6  A    between atoms: N_24  and  C_25
REMARK    7  A    between atoms: C_25  and  C_26
REMARK    8  A    between atoms: C_26  and  N_27
REMARK    9  A    between atoms: N_27  and  C_28
REMARK   10  A    between atoms: N_27  and  C_29
REMARK   11  A    between atoms: C_32  and  O_33
REMARK                            x       y       z     vdW  Elec       q    Type
REMARK                         _______ _______ _______ _____ _____    ______ ____
ROOT
ATOM      1  C   UNL     1       1.233  12.736  19.575  0.00  0.00    +0.000 A 
ATOM      2  C   UNL     1       0.832  13.114  20.833  0.00  0.00    +0.000 A 
ATOM      3  C   UNL     1      -0.108  12.267  21.489  0.00  0.00    +0.000 A 
ATOM      4  C   UNL     1       0.064  10.897  21.455  0.00  0.00    +0.000 A 
ATOM      5  C   UNL     1      -0.498  10.157  22.529  0.00  0.00    +0.000 A 
ATOM      6  C   UNL     1      -1.471  10.751  23.355  0.00  0.00    +0.000 A 
ATOM      7  C   UNL     1      -2.114  11.845  22.780  0.00  0.00    +0.000 A 
ATOM      8  C   UNL     1      -3.296  12.601  22.952  0.00  0.00    +0.000 A 
ATOM      9  C   UNL     1      -4.330  12.622  23.994  0.00  0.00    +0.000 A 
ATOM     10  O   UNL     1      -4.217  11.963  25.018  0.00  0.00    +0.000 OA
ATOM     11  O   UNL     1      -5.393  13.526  23.780  0.00  0.00    +0.000 OA
ATOM     12  C   UNL     1      -5.523  14.364  22.627  0.00  0.00    +0.000 A 
ATOM     13  C   UNL     1      -6.666  15.165  22.469  0.00  0.00    +0.000 A 
ATOM     14  C   UNL     1      -6.796  15.926  21.289  0.00  0.00    +0.000 A 
ATOM     15  C   UNL     1      -5.809  15.902  20.300  0.00  0.00    +0.000 A 
ATOM     16  C   UNL     1      -4.674  15.125  20.520  0.00  0.00    +0.000 A 
ATOM     17  C   UNL     1      -4.558  14.319  21.642  0.00  0.00    +0.000 A 
ATOM     18  C   UNL     1      -3.442  13.398  21.825  0.00  0.00    +0.000 A 
ATOM     19  N   UNL     1      -2.576  12.878  20.894  0.00  0.00    +0.000 N 
ATOM     20  C   UNL     1      -1.503  12.428  21.639  0.00  0.00    +0.000 A 
ATOM     21  C   UNL     1       0.540  10.449  20.205  0.00  0.00    +0.000 A 
ATOM     22  C   UNL     1       0.854  11.434  19.242  0.00  0.00    +0.000 A 
ENDROOT
BRANCH   1  24
ATOM     23  C   UNL     1       1.775  14.903  18.727  0.00  0.00    +0.000 C 
ATOM     24  O   UNL     1       1.098  13.664  18.547  0.00  0.00    +0.000 OA
ENDBRANCH   1  24
BRANCH  14  25
ATOM     25  O   UNL     1      -7.904  16.712  21.125  0.00  0.00    +0.000 OA
ATOM     26  H   UNL     1      -8.629  16.345  21.669  0.00  0.00    +0.000 HD
ENDBRANCH  14  25
BRANCH  15  27
ATOM     27  O   UNL     1      -5.761  16.516  19.083  0.00  0.00    +0.000 OA
ATOM     28  C   UNL     1      -5.224  17.821  18.987  0.00  0.00    +0.000 C 
ENDBRANCH  15  27
BRANCH  22  29
ATOM     29  O   UNL     1       0.203  11.377  18.023  0.00  0.00    +0.000 OA
ATOM     30  H   UNL     1       0.917  11.004  17.452  0.00  0.00    +0.000 HD
ENDBRANCH  22  29
BRANCH  19  31
ATOM     31  C   UNL     1      -2.986  12.741  19.504  0.00  0.00    +0.000 C 
BRANCH  31  32
ATOM     32  C   UNL     1      -3.611  11.581  18.661  0.00  0.00    +0.000 C 
BRANCH  32  33
ATOM     33  N   UNL     1      -3.076  11.126  17.366  0.00  0.00    +0.000 NA
ATOM     34  C   UNL     1      -2.794   9.681  17.392  0.00  0.00    +0.000 C 
ATOM     35  C   UNL     1      -4.077  11.351  16.302  0.00  0.00    +0.000 C 
ENDBRANCH  32  33
ENDBRANCH  31  32
ENDBRANCH  19  31
TORSDOF 7
ENDMDL
MODEL 5
REMARK VINA RESULT:      -6.1      1.885      3.219
REMARK  Name = 
REMARK  11 active torsions:
REMARK  status: ('A' for Active; 'I' for Inactive)
REMARK    1  A    between atoms: C_1  and  O_2
REMARK    2  A    between atoms: O_2  and  C_3
REMARK    3  A    between atoms: C_16  and  O_17
REMARK    4  A    between atoms: C_18  and  O_19
REMARK    5  A    between atoms: O_19  and  C_20
REMARK    6  A    between atoms: N_24  and  C_25
REMARK    7  A    between atoms: C_25  and  C_26
REMARK    8  A    between atoms: C_26  and  N_27
REMARK    9  A    between atoms: N_27  and  C_28
REMARK   10  A    between atoms: N_27  and  C_29
REMARK   11  A    between atoms: C_32  and  O_33
REMARK                            x       y       z     vdW  Elec       q    Type
REMARK                         _______ _______ _______ _____ _____    ______ ____
ROOT
ATOM      1  C   UNL     1      -4.470  16.692  23.223  0.00  0.00    +0.000 A 
ATOM      2  C   UNL     1      -4.886  16.567  21.920  0.00  0.00    +0.000 A 
ATOM      3  C   UNL     1      -5.749  15.472  21.623  0.00  0.00    +0.000 A 
ATOM      4  C   UNL     1      -6.799  15.179  22.469  0.00  0.00    +0.000 A 
ATOM      5  C   UNL     1      -7.916  14.516  21.893  0.00  0.00    +0.000 A 
ATOM      6  C   UNL     1      -7.786  13.881  20.644  0.00  0.00    +0.000 A 
ATOM      7  C   UNL     1      -6.472  13.580  20.293  0.00  0.00    +0.000 A 
ATOM      8  C   UNL     1      -5.770  12.737  19.401  0.00  0.00    +0.000 A 
ATOM      9  C   UNL     1      -6.196  11.878  18.289  0.00  0.00    +0.000 A 
ATOM     10  O   UNL     1      -7.354  11.871  17.896  0.00  0.00    +0.000 OA
ATOM     11  O   UNL     1      -5.166  11.157  17.647  0.00  0.00    +0.000 OA
ATOM     12  C   UNL     1      -3.789  11.194  18.035  0.00  0.00    +0.000 A 
ATOM     13  C   UNL     1      -2.856  10.369  17.385  0.00  0.00    +0.000 A 
ATOM     14  C   UNL     1      -1.520  10.378  17.836  0.00  0.00    +0.000 A 
ATOM     15  C   UNL     1      -1.120  11.197  18.896  0.00  0.00    +0.000 A 
ATOM     16  C   UNL     1      -2.071  12.029  19.482  0.00  0.00    +0.000 A 
ATOM     17  C   UNL     1      -3.403  11.986  19.097  0.00  0.00    +0.000 A 
ATOM     18  C   UNL     1      -4.436  12.749  19.787  0.00  0.00    +0.000 A 
ATOM     19  N   UNL     1      -4.424  13.296  21.047  0.00  0.00    +0.000 N 
ATOM     20  C   UNL     1      -5.442  14.230  21.023  0.00  0.00    +0.000 A 
ATOM     21  C   UNL     1      -6.457  15.351  23.826  0.00  0.00    +0.000 A 
ATOM     22  C   UNL     1      -5.175  15.874  24.108  0.00  0.00    +0.000 A 
ENDROOT
BRANCH   1  24
ATOM     23  C   UNL     1      -2.483  18.018  23.179  0.00  0.00    +0.000 C 
ATOM     24  O   UNL     1      -3.102  16.767  23.461  0.00  0.00    +0.000 OA
ENDBRANCH   1  24
BRANCH  14  25
ATOM     25  O   UNL     1      -0.603   9.580  17.209  0.00  0.00    +0.000 OA
ATOM     26  H   UNL     1      -0.724   9.666  16.243  0.00  0.00    +0.000 HD
ENDBRANCH  14  25
BRANCH  15  27
ATOM     27  O   UNL     1       0.091  11.322  19.510  0.00  0.00    +0.000 OA
ATOM     28  C   UNL     1       0.662  10.195  20.147  0.00  0.00    +0.000 C 
ENDBRANCH  15  27
BRANCH  22  29
ATOM     29  O   UNL     1      -4.331  15.120  24.905  0.00  0.00    +0.000 OA
ATOM     30  H   UNL     1      -4.153  14.354  24.307  0.00  0.00    +0.000 HD
ENDBRANCH  22  29
BRANCH  19  31
ATOM     31  C   UNL     1      -3.583  12.725  22.089  0.00  0.00    +0.000 C 
BRANCH  31  32
ATOM     32  C   UNL     1      -2.541  13.315  23.094  0.00  0.00    +0.000 C 
BRANCH  32  33
ATOM     33  N   UNL     1      -1.171  12.796  23.256  0.00  0.00    +0.000 NA
ATOM     34  C   UNL     1      -1.124  11.346  23.006  0.00  0.00    +0.000 C 
ATOM     35  C   UNL     1      -0.273  13.433  22.269  0.00  0.00    +0.000 C 
ENDBRANCH  32  33
ENDBRANCH  31  32
ENDBRANCH  19  31
TORSDOF 7
ENDMDL
MODEL 6
REMARK VINA RESULT:      -6.1      1.487      1.859
REMARK  Name = 
REMARK  11 active torsions:
REMARK  status: ('A' for Active; 'I' for Inactive)
REMARK    1  A    between atoms: C_1  and  O_2
REMARK    2  A    between atoms: O_2  and  C_3
REMARK    3  A    between atoms: C_16  and  O_17
REMARK    4  A    between atoms: C_18  and  O_19
REMARK    5  A    between atoms: O_19  and  C_20
REMARK    6  A    between atoms: N_24  and  C_25
REMARK    7  A    between atoms: C_25  and  C_26
REMARK    8  A    between atoms: C_26  and  N_27
REMARK    9  A    between atoms: N_27  and  C_28
REMARK   10  A    between atoms: N_27  and  C_29
REMARK   11  A    between atoms: C_32  and  O_33
REMARK                            x       y       z     vdW  Elec       q    Type
REMARK                         _______ _______ _______ _____ _____    ______ ____
ROOT
ATOM      1  C   UNL     1      -7.158  14.504  20.496  0.00  0.00    +0.000 A 
ATOM      2  C   UNL     1      -6.379  14.359  19.373  0.00  0.00    +0.000 A 
ATOM      3  C   UNL     1      -5.883  13.052  19.100  0.00  0.00    +0.000 A 
ATOM      4  C   UNL     1      -6.722  11.962  19.219  0.00  0.00    +0.000 A 
ATOM      5  C   UNL     1      -6.406  10.825  18.427  0.00  0.00    +0.000 A 
ATOM      6  C   UNL     1      -5.125  10.701  17.859  0.00  0.00    +0.000 A 
ATOM      7  C   UNL     1      -4.149  11.475  18.483  0.00  0.00    +0.000 A 
ATOM      8  C   UNL     1      -2.741  11.543  18.582  0.00  0.00    +0.000 A 
ATOM      9  C   UNL     1      -1.652  10.850  17.882  0.00  0.00    +0.000 A 
ATOM     10  O   UNL     1      -1.873  10.105  16.938  0.00  0.00    +0.000 OA
ATOM     11  O   UNL     1      -0.346  11.187  18.300  0.00  0.00    +0.000 OA
ATOM     12  C   UNL     1      -0.047  12.108  19.354  0.00  0.00    +0.000 A 
ATOM     13  C   UNL     1       1.286  12.307  19.752  0.00  0.00    +0.000 A 
ATOM     14  C   UNL     1       1.542  13.168  20.839  0.00  0.00    +0.000 A 
ATOM     15  C   UNL     1       0.501  13.825  21.503  0.00  0.00    +0.000 A 
ATOM     16  C   UNL     1      -0.800  13.629  21.046  0.00  0.00    +0.000 A 
ATOM     17  C   UNL     1      -1.078  12.735  20.022  0.00  0.00    +0.000 A 
ATOM     18  C   UNL     1      -2.443  12.416  19.620  0.00  0.00    +0.000 A 
ATOM     19  N   UNL     1      -3.619  12.578  20.312  0.00  0.00    +0.000 N 
ATOM     20  C   UNL     1      -4.598  12.515  19.339  0.00  0.00    +0.000 A 
ATOM     21  C   UNL     1      -7.598  12.078  20.318  0.00  0.00    +0.000 A 
ATOM     22  C   UNL     1      -7.560  13.286  21.049  0.00  0.00    +0.000 A 
ENDROOT
BRANCH   1  24
ATOM     23  C   UNL     1      -5.709  16.324  21.041  0.00  0.00    +0.000 C 
ATOM     24  O   UNL     1      -6.784  15.471  21.423  0.00  0.00    +0.000 OA
ENDBRANCH   1  24
BRANCH  14  25
ATOM     25  O   UNL     1       2.836  13.371  21.234  0.00  0.00    +0.000 OA
ATOM     26  H   UNL     1       2.833  13.942  22.028  0.00  0.00    +0.000 HD
ENDBRANCH  14  25
BRANCH  15  27
ATOM     27  O   UNL     1       0.526  14.649  22.589  0.00  0.00    +0.000 OA
ATOM     28  C   UNL     1       0.733  16.035  22.400  0.00  0.00    +0.000 C 
ENDBRANCH  15  27
BRANCH  22  29
ATOM     29  O   UNL     1      -7.284  13.214  22.404  0.00  0.00    +0.000 OA
ATOM     30  H   UNL     1      -6.391  12.792  22.385  0.00  0.00    +0.000 HD
ENDBRANCH  22  29
BRANCH  19  31
ATOM     31  C   UNL     1      -3.621  12.586  21.768  0.00  0.00    +0.000 C 
BRANCH  31  32
ATOM     32  C   UNL     1      -3.774  13.701  22.852  0.00  0.00    +0.000 C 
BRANCH  32  33
ATOM     33  N   UNL     1      -3.375  13.538  24.261  0.00  0.00    +0.000 NA
ATOM     34  C   UNL     1      -3.443  14.821  24.979  0.00  0.00    +0.000 C 
ATOM     35  C   UNL     1      -4.307  12.614  24.942  0.00  0.00    +0.000 C 
ENDBRANCH  32  33
ENDBRANCH  31  32
ENDBRANCH  19  31
TORSDOF 7
ENDMDL
MODEL 7
REMARK VINA RESULT:      -6.1      2.161      7.142
REMARK  Name = 
REMARK  11 active torsions:
REMARK  status: ('A' for Active; 'I' for Inactive)
REMARK    1  A    between atoms: C_1  and  O_2
REMARK    2  A    between atoms: O_2  and  C_3
REMARK    3  A    between atoms: C_16  and  O_17
REMARK    4  A    between atoms: C_18  and  O_19
REMARK    5  A    between atoms: O_19  and  C_20
REMARK    6  A    between atoms: N_24  and  C_25
REMARK    7  A    between atoms: C_25  and  C_26
REMARK    8  A    between atoms: C_26  and  N_27
REMARK    9  A    between atoms: N_27  and  C_28
REMARK   10  A    between atoms: N_27  and  C_29
REMARK   11  A    between atoms: C_32  and  O_33
REMARK                            x       y       z     vdW  Elec       q    Type
REMARK                         _______ _______ _______ _____ _____    ______ ____
ROOT
ATOM      1  C   UNL     1       0.999  12.456  19.424  0.00  0.00    +0.000 A 
ATOM      2  C   UNL     1       0.683  12.913  20.680  0.00  0.00    +0.000 A 
ATOM      3  C   UNL     1      -0.245  12.135  21.432  0.00  0.00    +0.000 A 
ATOM      4  C   UNL     1      -0.121  10.760  21.462  0.00  0.00    +0.000 A 
ATOM      5  C   UNL     1      -0.644  10.098  22.604  0.00  0.00    +0.000 A 
ATOM      6  C   UNL     1      -1.549  10.767  23.449  0.00  0.00    +0.000 A 
ATOM      7  C   UNL     1      -2.188  11.852  22.852  0.00  0.00    +0.000 A 
ATOM      8  C   UNL     1      -3.333  12.657  23.047  0.00  0.00    +0.000 A 
ATOM      9  C   UNL     1      -4.306  12.769  24.141  0.00  0.00    +0.000 A 
ATOM     10  O   UNL     1      -4.156  12.161  25.192  0.00  0.00    +0.000 OA
ATOM     11  O   UNL     1      -5.349  13.698  23.937  0.00  0.00    +0.000 OA
ATOM     12  C   UNL     1      -5.517  14.478  22.749  0.00  0.00    +0.000 A 
ATOM     13  C   UNL     1      -6.640  15.310  22.611  0.00  0.00    +0.000 A 
ATOM     14  C   UNL     1      -6.813  16.012  21.401  0.00  0.00    +0.000 A 
ATOM     15  C   UNL     1      -5.884  15.902  20.361  0.00  0.00    +0.000 A 
ATOM     16  C   UNL     1      -4.764  15.098  20.561  0.00  0.00    +0.000 A 
ATOM     17  C   UNL     1      -4.611  14.348  21.717  0.00  0.00    +0.000 A 
ATOM     18  C   UNL     1      -3.517  13.399  21.888  0.00  0.00    +0.000 A 
ATOM     19  N   UNL     1      -2.722  12.801  20.940  0.00  0.00    +0.000 N 
ATOM     20  C   UNL     1      -1.624  12.353  21.649  0.00  0.00    +0.000 A 
ATOM     21  C   UNL     1       0.269  10.230  20.215  0.00  0.00    +0.000 A 
ATOM     22  C   UNL     1       0.560  11.152  19.184  0.00  0.00    +0.000 A 
ENDROOT
BRANCH   1  24
ATOM     23  C   UNL     1       1.187  14.691  18.601  0.00  0.00    +0.000 C 
ATOM     24  O   UNL     1       0.836  13.332  18.357  0.00  0.00    +0.000 OA
ENDBRANCH   1  24
BRANCH  14  25
ATOM     25  O   UNL     1      -7.902  16.827  21.255  0.00  0.00    +0.000 OA
ATOM     26  H   UNL     1      -7.593  17.715  20.989  0.00  0.00    +0.000 HD
ENDBRANCH  14  25
BRANCH  15  27
ATOM     27  O   UNL     1      -5.885  16.449  19.112  0.00  0.00    +0.000 OA
ATOM     28  C   UNL     1      -6.684  15.863  18.102  0.00  0.00    +0.000 C 
ENDBRANCH  15  27
BRANCH  22  29
ATOM     29  O   UNL     1      -0.161  11.054  18.007  0.00  0.00    +0.000 OA
ATOM     30  H   UNL     1      -0.291  10.077  17.954  0.00  0.00    +0.000 HD
ENDBRANCH  22  29
BRANCH  19  31
ATOM     31  C   UNL     1      -3.215  12.605  19.584  0.00  0.00    +0.000 C 
BRANCH  31  32
ATOM     32  C   UNL     1      -4.355  11.743  18.952  0.00  0.00    +0.000 C 
BRANCH  32  33
ATOM     33  N   UNL     1      -5.778  12.125  18.965  0.00  0.00    +0.000 NA
ATOM     34  C   UNL     1      -6.485  11.565  17.802  0.00  0.00    +0.000 C 
ATOM     35  C   UNL     1      -6.434  11.578  20.172  0.00  0.00    +0.000 C 
ENDBRANCH  32  33
ENDBRANCH  31  32
ENDBRANCH  19  31
TORSDOF 7
ENDMDL
MODEL 8
REMARK VINA RESULT:      -6.0      2.099      3.973
REMARK  Name = 
REMARK  11 active torsions:
REMARK  status: ('A' for Active; 'I' for Inactive)
REMARK    1  A    between atoms: C_1  and  O_2
REMARK    2  A    between atoms: O_2  and  C_3
REMARK    3  A    between atoms: C_16  and  O_17
REMARK    4  A    between atoms: C_18  and  O_19
REMARK    5  A    between atoms: O_19  and  C_20
REMARK    6  A    between atoms: N_24  and  C_25
REMARK    7  A    between atoms: C_25  and  C_26
REMARK    8  A    between atoms: C_26  and  N_27
REMARK    9  A    between atoms: N_27  and  C_28
REMARK   10  A    between atoms: N_27  and  C_29
REMARK   11  A    between atoms: C_32  and  O_33
REMARK                            x       y       z     vdW  Elec       q    Type
REMARK                         _______ _______ _______ _____ _____    ______ ____
ROOT
ATOM      1  C   UNL     1      -7.080  12.517  18.417  0.00  0.00    +0.000 A 
ATOM      2  C   UNL     1      -5.880  12.839  17.830  0.00  0.00    +0.000 A 
ATOM      3  C   UNL     1      -4.788  11.957  18.076  0.00  0.00    +0.000 A 
ATOM      4  C   UNL     1      -4.981  10.592  18.006  0.00  0.00    +0.000 A 
ATOM      5  C   UNL     1      -3.843   9.803  17.687  0.00  0.00    +0.000 A 
ATOM      6  C   UNL     1      -2.553  10.353  17.807  0.00  0.00    +0.000 A 
ATOM      7  C   UNL     1      -2.485  11.464  18.645  0.00  0.00    +0.000 A 
ATOM      8  C   UNL     1      -1.517  12.202  19.364  0.00  0.00    +0.000 A 
ATOM      9  C   UNL     1      -0.049  12.170  19.393  0.00  0.00    +0.000 A 
ATOM     10  O   UNL     1       0.588  11.471  18.618  0.00  0.00    +0.000 OA
ATOM     11  O   UNL     1       0.563  13.073  20.289  0.00  0.00    +0.000 OA
ATOM     12  C   UNL     1      -0.150  13.956  21.160  0.00  0.00    +0.000 A 
ATOM     13  C   UNL     1       0.554  14.753  22.078  0.00  0.00    +0.000 A 
ATOM     14  C   UNL     1      -0.181  15.561  22.970  0.00  0.00    +0.000 A 
ATOM     15  C   UNL     1      -1.579  15.587  22.940  0.00  0.00    +0.000 A 
ATOM     16  C   UNL     1      -2.231  14.812  21.984  0.00  0.00    +0.000 A 
ATOM     17  C   UNL     1      -1.530  13.961  21.143  0.00  0.00    +0.000 A 
ATOM     18  C   UNL     1      -2.202  13.044  20.230  0.00  0.00    +0.000 A 
ATOM     19  N   UNL     1      -3.491  12.570  20.258  0.00  0.00    +0.000 N 
ATOM     20  C   UNL     1      -3.710  12.099  18.978  0.00  0.00    +0.000 A 
ATOM     21  C   UNL     1      -6.228  10.199  18.534  0.00  0.00    +0.000 A 
ATOM     22  C   UNL     1      -7.105  11.227  18.950  0.00  0.00    +0.000 A 
ENDROOT
BRANCH   1  24
ATOM     23  C   UNL     1      -7.138  14.794  19.139  0.00  0.00    +0.000 C 
ATOM     24  O   UNL     1      -7.695  13.485  19.204  0.00  0.00    +0.000 OA
ENDBRANCH   1  24
BRANCH  14  25
ATOM     25  O   UNL     1       0.494  16.343  23.867  0.00  0.00    +0.000 OA
ATOM     26  H   UNL     1       1.405  16.000  23.954  0.00  0.00    +0.000 HD
ENDBRANCH  14  25
BRANCH  15  27
ATOM     27  O   UNL     1      -2.469  16.251  23.731  0.00  0.00    +0.000 OA
ATOM     28  C   UNL     1      -3.402  17.131  23.135  0.00  0.00    +0.000 C 
ENDBRANCH  15  27
BRANCH  22  29
ATOM     29  O   UNL     1      -7.538  11.214  20.264  0.00  0.00    +0.000 OA
ATOM     30  H   UNL     1      -6.839  10.655  20.681  0.00  0.00    +0.000 HD
ENDBRANCH  22  29
BRANCH  19  31
ATOM     31  C   UNL     1      -4.217  12.487  21.518  0.00  0.00    +0.000 C 
BRANCH  31  32
ATOM     32  C   UNL     1      -5.464  13.222  22.109  0.00  0.00    +0.000 C 
BRANCH  32  33
ATOM     33  N   UNL     1      -5.705  13.400  23.551  0.00  0.00    +0.000 NA
ATOM     34  C   UNL     1      -6.946  12.724  23.965  0.00  0.00    +0.000 C 
ATOM     35  C   UNL     1      -4.603  12.788  24.324  0.00  0.00    +0.000 C 
ENDBRANCH  32  33
ENDBRANCH  31  32
ENDBRANCH  19  31
TORSDOF 7
ENDMDL
MODEL 9
REMARK VINA RESULT:      -6.0      9.946     13.543
REMARK  Name = 
REMARK  11 active torsions:
REMARK  status: ('A' for Active; 'I' for Inactive)
REMARK    1  A    between atoms: C_1  and  O_2
REMARK    2  A    between atoms: O_2  and  C_3
REMARK    3  A    between atoms: C_16  and  O_17
REMARK    4  A    between atoms: C_18  and  O_19
REMARK    5  A    between atoms: O_19  and  C_20
REMARK    6  A    between atoms: N_24  and  C_25
REMARK    7  A    between atoms: C_25  and  C_26
REMARK    8  A    between atoms: C_26  and  N_27
REMARK    9  A    between atoms: N_27  and  C_28
REMARK   10  A    between atoms: N_27  and  C_29
REMARK   11  A    between atoms: C_32  and  O_33
REMARK                            x       y       z     vdW  Elec       q    Type
REMARK                         _______ _______ _______ _____ _____    ______ ____
ROOT
ATOM      1  C   UNL     1       9.679  11.010  18.277  0.00  0.00    +0.000 A 
ATOM      2  C   UNL     1       8.994  12.029  17.661  0.00  0.00    +0.000 A 
ATOM      3  C   UNL     1       9.501  13.348  17.849  0.00  0.00    +0.000 A 
ATOM      4  C   UNL     1      10.858  13.582  17.750  0.00  0.00    +0.000 A 
ATOM      5  C   UNL     1      11.253  14.894  17.374  0.00  0.00    +0.000 A 
ATOM      6  C   UNL     1      10.335  15.956  17.468  0.00  0.00    +0.000 A 
ATOM      7  C   UNL     1       9.270  15.712  18.332  0.00  0.00    +0.000 A 
ATOM      8  C   UNL     1       8.281  16.433  19.039  0.00  0.00    +0.000 A 
ATOM      9  C   UNL     1       7.859  17.839  19.021  0.00  0.00    +0.000 A 
ATOM     10  O   UNL     1       8.316  18.631  18.208  0.00  0.00    +0.000 OA
ATOM     11  O   UNL     1       6.826  18.178  19.920  0.00  0.00    +0.000 OA
ATOM     12  C   UNL     1       6.218  17.262  20.837  0.00  0.00    +0.000 A 
ATOM     13  C   UNL     1       5.257  17.722  21.752  0.00  0.00    +0.000 A 
ATOM     14  C   UNL     1       4.728  16.809  22.688  0.00  0.00    +0.000 A 
ATOM     15  C   UNL     1       5.133  15.471  22.703  0.00  0.00    +0.000 A 
ATOM     16  C   UNL     1       6.057  15.051  21.748  0.00  0.00    +0.000 A 
ATOM     17  C   UNL     1       6.638  15.948  20.863  0.00  0.00    +0.000 A 
ATOM     18  C   UNL     1       7.704  15.556  19.948  0.00  0.00    +0.000 A 
ATOM     19  N   UNL     1       8.551  14.476  20.005  0.00  0.00    +0.000 N 
ATOM     20  C   UNL     1       9.047  14.364  18.720  0.00  0.00    +0.000 A 
ATOM     21  C   UNL     1      11.623  12.536  18.306  0.00  0.00    +0.000 A 
ATOM     22  C   UNL     1      10.922  11.403  18.777  0.00  0.00    +0.000 A 
ENDROOT
BRANCH   1  24
ATOM     23  C   UNL     1       8.447   8.975  18.502  0.00  0.00    +0.000 C 
ATOM     24  O   UNL     1       8.959  10.158  19.108  0.00  0.00    +0.000 OA
ENDBRANCH   1  24
BRANCH  14  25
ATOM     25  O   UNL     1       3.790  17.245  23.584  0.00  0.00    +0.000 OA
ATOM     26  H   UNL     1       3.164  17.832  23.116  0.00  0.00    +0.000 HD
ENDBRANCH  14  25
BRANCH  15  27
ATOM     27  O   UNL     1       4.788  14.451  23.539  0.00  0.00    +0.000 OA
ATOM     28  C   UNL     1       5.210  14.491  24.888  0.00  0.00    +0.000 C 
ENDBRANCH  15  27
BRANCH  22  29
ATOM     29  O   UNL     1      11.088  11.045  20.103  0.00  0.00    +0.000 OA
ATOM     30  H   UNL     1      10.404  10.337  20.187  0.00  0.00    +0.000 HD
ENDBRANCH  22  29
BRANCH  19  31
ATOM     31  C   UNL     1       8.874  13.860  21.284  0.00  0.00    +0.000 C 
BRANCH  31  32
ATOM     32  C   UNL     1       8.616  12.451  21.911  0.00  0.00    +0.000 C 
BRANCH  32  33
ATOM     33  N   UNL     1       8.427  12.216  23.353  0.00  0.00    +0.000 NA
ATOM     34  C   UNL     1       8.519  13.477  24.109  0.00  0.00    +0.000 C 
ATOM     35  C   UNL     1       7.078  11.664  23.600  0.00  0.00    +0.000 C 
ENDBRANCH  32  33
ENDBRANCH  31  32
ENDBRANCH  19  31
TORSDOF 7
ENDMDL
