MODEL 1
REMARK VINA RESULT:      -8.5      0.000      0.000
REMARK  Name = 
REMARK  7 active torsions:
REMARK  status: ('A' for Active; 'I' for Inactive)
REMARK    1  A    between atoms: C_4  and  O_5
REMARK    2  A    between atoms: O_5  and  C_6
REMARK    3  A    between atoms: C_6  and  C_7
REMARK    4  A    between atoms: C_7  and  N_8
REMARK    5  A    between atoms: N_8  and  C_9
REMARK    6  A    between atoms: C_12  and  C_13
REMARK    7  A    between atoms: C_12  and  C_19
REMARK                            x       y       z     vdW  Elec       q    Type
REMARK                         _______ _______ _______ _____ _____    ______ ____
ROOT
ATOM      1  C   UNL     1       5.643   4.072  17.623  0.00  0.00    +0.000 C 
ATOM      2  C   UNL     1       4.200   4.010  17.073  0.00  0.00    +0.000 C 
ATOM      3  O   UNL     1       3.378   5.125  17.408  0.00  0.00    +0.000 OA
ATOM      4  C   UNL     1       3.409   5.509  18.811  0.00  0.00    +0.000 C 
ATOM      5  C   UNL     1       4.909   5.596  19.249  0.00  0.00    +0.000 C 
ATOM      6  O   UNL     1       5.626   4.370  19.013  0.00  0.00    +0.000 OA
ENDROOT
BRANCH   4   7
ATOM      7  C   UNL     1       2.792   6.935  18.836  0.00  0.00    +0.000 A 
ATOM      8  C   UNL     1       2.098   7.397  19.977  0.00  0.00    +0.000 A 
ATOM      9  C   UNL     1       1.414   8.615  19.972  0.00  0.00    +0.000 A 
ATOM     10  C   UNL     1       1.404   9.401  18.827  0.00  0.00    +0.000 A 
ATOM     11  C   UNL     1       2.114   8.991  17.704  0.00  0.00    +0.000 A 
ATOM     12  C   UNL     1       2.820   7.784  17.716  0.00  0.00    +0.000 A 
ENDBRANCH   4   7
BRANCH   4  13
ATOM     13  C   UNL     1       2.592   4.500  19.658  0.00  0.00    +0.000 A 
ATOM     14  C   UNL     1       2.959   4.147  20.973  0.00  0.00    +0.000 A 
ATOM     15  C   UNL     1       2.226   3.222  21.723  0.00  0.00    +0.000 A 
ATOM     16  C   UNL     1       1.098   2.624  21.180  0.00  0.00    +0.000 A 
ATOM     17  C   UNL     1       0.714   2.943  19.880  0.00  0.00    +0.000 A 
ATOM     18  C   UNL     1       1.454   3.863  19.127  0.00  0.00    +0.000 A 
ENDBRANCH   4  13
BRANCH   1  19
ATOM     19  N   UNL     1       6.557   4.980  16.921  0.00  0.00    +0.000 NA
ATOM     20  H   UNL     1       6.104   5.880  16.777  0.00  0.00    +0.000 HD
BRANCH  19  21
ATOM     21  C   UNL     1       7.000   4.427  15.624  0.00  0.00    +0.000 C 
BRANCH  21  22
ATOM     22  C   UNL     1       6.331   5.063  14.395  0.00  0.00    +0.000 C 
BRANCH  22  23
ATOM     23  O   UNL     1       7.086   4.772  13.220  0.00  0.00    +0.000 OA
BRANCH  23  27
ATOM     24  C   UNL     1       5.855   1.540  10.900  0.00  0.00    +0.000 A 
ATOM     25  C   UNL     1       7.202   1.818  11.116  0.00  0.00    +0.000 A 
ATOM     26  C   UNL     1       7.573   2.905  11.910  0.00  0.00    +0.000 A 
ATOM     27  C   UNL     1       6.599   3.729  12.474  0.00  0.00    +0.000 A 
ATOM     28  C   UNL     1       5.247   3.433  12.272  0.00  0.00    +0.000 A 
ATOM     29  C   UNL     1       4.876   2.341  11.483  0.00  0.00    +0.000 A 
ENDBRANCH  23  27
ENDBRANCH  22  23
ENDBRANCH  21  22
ENDBRANCH  19  21
ENDBRANCH   1  19
TORSDOF 7
ENDMDL
MODEL 2
REMARK VINA RESULT:      -8.5      0.095      1.287
REMARK  Name = 
REMARK  7 active torsions:
REMARK  status: ('A' for Active; 'I' for Inactive)
REMARK    1  A    between atoms: C_4  and  O_5
REMARK    2  A    between atoms: O_5  and  C_6
REMARK    3  A    between atoms: C_6  and  C_7
REMARK    4  A    between atoms: C_7  and  N_8
REMARK    5  A    between atoms: N_8  and  C_9
REMARK    6  A    between atoms: C_12  and  C_13
REMARK    7  A    between atoms: C_12  and  C_19
REMARK                            x       y       z     vdW  Elec       q    Type
REMARK                         _______ _______ _______ _____ _____    ______ ____
ROOT
ATOM      1  C   UNL     1       5.649   4.045  17.619  0.00  0.00    +0.000 C 
ATOM      2  C   UNL     1       4.205   3.986  17.073  0.00  0.00    +0.000 C 
ATOM      3  O   UNL     1       3.386   5.102  17.412  0.00  0.00    +0.000 OA
ATOM      4  C   UNL     1       3.421   5.483  18.816  0.00  0.00    +0.000 C 
ATOM      5  C   UNL     1       4.923   5.567  19.249  0.00  0.00    +0.000 C 
ATOM      6  O   UNL     1       5.638   4.341  19.009  0.00  0.00    +0.000 OA
ENDROOT
BRANCH   4   7
ATOM      7  C   UNL     1       2.807   6.910  18.845  0.00  0.00    +0.000 A 
ATOM      8  C   UNL     1       2.118   7.372  19.989  0.00  0.00    +0.000 A 
ATOM      9  C   UNL     1       1.437   8.592  19.989  0.00  0.00    +0.000 A 
ATOM     10  C   UNL     1       1.423   9.379  18.844  0.00  0.00    +0.000 A 
ATOM     11  C   UNL     1       2.126   8.968  17.717  0.00  0.00    +0.000 A 
ATOM     12  C   UNL     1       2.831   7.760  17.725  0.00  0.00    +0.000 A 
ENDBRANCH   4   7
BRANCH   4  13
ATOM     13  C   UNL     1       2.606   4.474  19.663  0.00  0.00    +0.000 A 
ATOM     14  C   UNL     1       1.449   3.836  19.171  0.00  0.00    +0.000 A 
ATOM     15  C   UNL     1       0.710   2.940  19.949  0.00  0.00    +0.000 A 
ATOM     16  C   UNL     1       1.109   2.651  21.246  0.00  0.00    +0.000 A 
ATOM     17  C   UNL     1       2.241   3.273  21.766  0.00  0.00    +0.000 A 
ATOM     18  C   UNL     1       2.976   4.176  20.989  0.00  0.00    +0.000 A 
ENDBRANCH   4  13
BRANCH   1  19
ATOM     19  N   UNL     1       6.563   4.952  16.916  0.00  0.00    +0.000 NA
ATOM     20  H   UNL     1       6.111   5.853  16.774  0.00  0.00    +0.000 HD
BRANCH  19  21
ATOM     21  C   UNL     1       7.002   4.400  15.617  0.00  0.00    +0.000 C 
BRANCH  21  22
ATOM     22  C   UNL     1       6.349   5.056  14.390  0.00  0.00    +0.000 C 
BRANCH  22  23
ATOM     23  O   UNL     1       7.141   4.817  13.226  0.00  0.00    +0.000 OA
BRANCH  23  27
ATOM     24  C   UNL     1       5.669   1.627  10.990  0.00  0.00    +0.000 A 
ATOM     25  C   UNL     1       4.823   2.551  11.598  0.00  0.00    +0.000 A 
ATOM     26  C   UNL     1       5.356   3.613  12.330  0.00  0.00    +0.000 A 
ATOM     27  C   UNL     1       6.738   3.744  12.473  0.00  0.00    +0.000 A 
ATOM     28  C   UNL     1       7.585   2.827  11.842  0.00  0.00    +0.000 A 
ATOM     29  C   UNL     1       7.051   1.768  11.105  0.00  0.00    +0.000 A 
ENDBRANCH  23  27
ENDBRANCH  22  23
ENDBRANCH  21  22
ENDBRANCH  19  21
ENDBRANCH   1  19
TORSDOF 7
ENDMDL
MODEL 3
REMARK VINA RESULT:      -8.4      4.491      6.506
REMARK  Name = 
REMARK  7 active torsions:
REMARK  status: ('A' for Active; 'I' for Inactive)
REMARK    1  A    between atoms: C_4  and  O_5
REMARK    2  A    between atoms: O_5  and  C_6
REMARK    3  A    between atoms: C_6  and  C_7
REMARK    4  A    between atoms: C_7  and  N_8
REMARK    5  A    between atoms: N_8  and  C_9
REMARK    6  A    between atoms: C_12  and  C_13
REMARK    7  A    between atoms: C_12  and  C_19
REMARK                            x       y       z     vdW  Elec       q    Type
REMARK                         _______ _______ _______ _____ _____    ______ ____
ROOT
ATOM      1  C   UNL     1       6.849   5.916  16.858  0.00  0.00    +0.000 C 
ATOM      2  C   UNL     1       5.555   5.632  16.062  0.00  0.00    +0.000 C 
ATOM      3  O   UNL     1       4.364   6.159  16.639  0.00  0.00    +0.000 OA
ATOM      4  C   UNL     1       4.199   5.888  18.059  0.00  0.00    +0.000 C 
ATOM      5  C   UNL     1       5.540   6.259  18.774  0.00  0.00    +0.000 C 
ATOM      6  O   UNL     1       6.673   5.562  18.224  0.00  0.00    +0.000 OA
ENDROOT
BRANCH   4   7
ATOM      7  C   UNL     1       3.091   6.877  18.517  0.00  0.00    +0.000 A 
ATOM      8  C   UNL     1       2.725   7.971  17.702  0.00  0.00    +0.000 A 
ATOM      9  C   UNL     1       1.837   8.952  18.151  0.00  0.00    +0.000 A 
ATOM     10  C   UNL     1       1.295   8.865  19.427  0.00  0.00    +0.000 A 
ATOM     11  C   UNL     1       1.606   7.776  20.235  0.00  0.00    +0.000 A 
ATOM     12  C   UNL     1       2.474   6.781  19.776  0.00  0.00    +0.000 A 
ENDBRANCH   4   7
BRANCH   4  13
ATOM     13  C   UNL     1       3.791   4.408  18.275  0.00  0.00    +0.000 A 
ATOM     14  C   UNL     1       4.383   3.599  19.266  0.00  0.00    +0.000 A 
ATOM     15  C   UNL     1       4.021   2.259  19.442  0.00  0.00    +0.000 A 
ATOM     16  C   UNL     1       3.050   1.689  18.631  0.00  0.00    +0.000 A 
ATOM     17  C   UNL     1       2.454   2.458  17.635  0.00  0.00    +0.000 A 
ATOM     18  C   UNL     1       2.823   3.797  17.455  0.00  0.00    +0.000 A 
ENDBRANCH   4  13
BRANCH   1  19
ATOM     19  N   UNL     1       7.380   7.279  16.753  0.00  0.00    +0.000 NA
ATOM     20  H   UNL     1       8.016   7.339  15.960  0.00  0.00    +0.000 HD
BRANCH  19  21
ATOM     21  C   UNL     1       8.076   7.700  17.987  0.00  0.00    +0.000 C 
BRANCH  21  22
ATOM     22  C   UNL     1       8.302   9.215  18.109  0.00  0.00    +0.000 C 
BRANCH  22  23
ATOM     23  O   UNL     1       9.056   9.505  19.286  0.00  0.00    +0.000 OA
BRANCH  23  27
ATOM     24  C   UNL     1      11.155  13.080  18.890  0.00  0.00    +0.000 A 
ATOM     25  C   UNL     1      10.718  12.358  17.782  0.00  0.00    +0.000 A 
ATOM     26  C   UNL     1      10.008  11.169  17.958  0.00  0.00    +0.000 A 
ATOM     27  C   UNL     1       9.748  10.688  19.242  0.00  0.00    +0.000 A 
ATOM     28  C   UNL     1      10.169  11.429  20.351  0.00  0.00    +0.000 A 
ATOM     29  C   UNL     1      10.874  12.621  20.175  0.00  0.00    +0.000 A 
ENDBRANCH  23  27
ENDBRANCH  22  23
ENDBRANCH  21  22
ENDBRANCH  19  21
ENDBRANCH   1  19
TORSDOF 7
ENDMDL
MODEL 4
REMARK VINA RESULT:      -8.3      0.369      1.346
REMARK  Name = 
REMARK  7 active torsions:
REMARK  status: ('A' for Active; 'I' for Inactive)
REMARK    1  A    between atoms: C_4  and  O_5
REMARK    2  A    between atoms: O_5  and  C_6
REMARK    3  A    between atoms: C_6  and  C_7
REMARK    4  A    between atoms: C_7  and  N_8
REMARK    5  A    between atoms: N_8  and  C_9
REMARK    6  A    between atoms: C_12  and  C_13
REMARK    7  A    between atoms: C_12  and  C_19
REMARK                            x       y       z     vdW  Elec       q    Type
REMARK                         _______ _______ _______ _____ _____    ______ ____
ROOT
ATOM      1  C   UNL     1       5.512   4.435  17.616  0.00  0.00    +0.000 C 
ATOM      2  C   UNL     1       4.069   4.252  17.093  0.00  0.00    +0.000 C 
ATOM      3  O   UNL     1       3.162   5.292  17.450  0.00  0.00    +0.000 OA
ATOM      4  C   UNL     1       3.188   5.672  18.855  0.00  0.00    +0.000 C 
ATOM      5  C   UNL     1       4.683   5.884  19.264  0.00  0.00    +0.000 C 
ATOM      6  O   UNL     1       5.497   4.725  19.008  0.00  0.00    +0.000 OA
ENDROOT
BRANCH   4   7
ATOM      7  C   UNL     1       2.452   7.039  18.899  0.00  0.00    +0.000 A 
ATOM      8  C   UNL     1       2.434   7.883  17.766  0.00  0.00    +0.000 A 
ATOM      9  C   UNL     1       1.904   9.174  17.824  0.00  0.00    +0.000 A 
ATOM     10  C   UNL     1       1.381   9.656  19.017  0.00  0.00    +0.000 A 
ATOM     11  C   UNL     1       1.348   8.833  20.138  0.00  0.00    +0.000 A 
ATOM     12  C   UNL     1       1.854   7.531  20.073  0.00  0.00    +0.000 A 
ENDBRANCH   4   7
BRANCH   4  13
ATOM     13  C   UNL     1       2.476   4.593  19.711  0.00  0.00    +0.000 A 
ATOM     14  C   UNL     1       2.946   4.208  20.983  0.00  0.00    +0.000 A 
ATOM     15  C   UNL     1       2.308   3.221  21.741  0.00  0.00    +0.000 A 
ATOM     16  C   UNL     1       1.174   2.591  21.249  0.00  0.00    +0.000 A 
ATOM     17  C   UNL     1       0.690   2.941  19.991  0.00  0.00    +0.000 A 
ATOM     18  C   UNL     1       1.335   3.923  19.230  0.00  0.00    +0.000 A 
ENDBRANCH   4  13
BRANCH   1  19
ATOM     19  N   UNL     1       6.332   5.420  16.902  0.00  0.00    +0.000 NA
ATOM     20  H   UNL     1       6.167   6.348  17.287  0.00  0.00    +0.000 HD
BRANCH  19  21
ATOM     21  C   UNL     1       6.057   5.423  15.450  0.00  0.00    +0.000 C 
BRANCH  21  22
ATOM     22  C   UNL     1       7.041   4.594  14.610  0.00  0.00    +0.000 C 
BRANCH  22  23
ATOM     23  O   UNL     1       6.843   4.856  13.221  0.00  0.00    +0.000 OA
BRANCH  23  27
ATOM     24  C   UNL     1       5.848   1.511  10.951  0.00  0.00    +0.000 A 
ATOM     25  C   UNL     1       4.874   2.332  11.515  0.00  0.00    +0.000 A 
ATOM     26  C   UNL     1       5.250   3.451  12.260  0.00  0.00    +0.000 A 
ATOM     27  C   UNL     1       6.599   3.742  12.461  0.00  0.00    +0.000 A 
ATOM     28  C   UNL     1       7.573   2.927  11.873  0.00  0.00    +0.000 A 
ATOM     29  C   UNL     1       7.197   1.811  11.122  0.00  0.00    +0.000 A 
ENDBRANCH  23  27
ENDBRANCH  22  23
ENDBRANCH  21  22
ENDBRANCH  19  21
ENDBRANCH   1  19
TORSDOF 7
ENDMDL
MODEL 5
REMARK VINA RESULT:      -8.2      4.372      6.628
REMARK  Name = 
REMARK  7 active torsions:
REMARK  status: ('A' for Active; 'I' for Inactive)
REMARK    1  A    between atoms: C_4  and  O_5
REMARK    2  A    between atoms: O_5  and  C_6
REMARK    3  A    between atoms: C_6  and  C_7
REMARK    4  A    between atoms: C_7  and  N_8
REMARK    5  A    between atoms: N_8  and  C_9
REMARK    6  A    between atoms: C_12  and  C_13
REMARK    7  A    between atoms: C_12  and  C_19
REMARK                            x       y       z     vdW  Elec       q    Type
REMARK                         _______ _______ _______ _____ _____    ______ ____
ROOT
ATOM      1  C   UNL     1       6.866   5.836  16.790  0.00  0.00    +0.000 C 
ATOM      2  C   UNL     1       5.568   5.594  15.988  0.00  0.00    +0.000 C 
ATOM      3  O   UNL     1       4.385   6.130  16.577  0.00  0.00    +0.000 OA
ATOM      4  C   UNL     1       4.215   5.829  17.991  0.00  0.00    +0.000 C 
ATOM      5  C   UNL     1       5.563   6.159  18.714  0.00  0.00    +0.000 C 
ATOM      6  O   UNL     1       6.683   5.454  18.147  0.00  0.00    +0.000 OA
ENDROOT
BRANCH   4   7
ATOM      7  C   UNL     1       3.126   6.827  18.471  0.00  0.00    +0.000 A 
ATOM      8  C   UNL     1       2.748   7.922  17.662  0.00  0.00    +0.000 A 
ATOM      9  C   UNL     1       1.878   8.910  18.129  0.00  0.00    +0.000 A 
ATOM     10  C   UNL     1       1.365   8.830  19.418  0.00  0.00    +0.000 A 
ATOM     11  C   UNL     1       1.688   7.742  20.222  0.00  0.00    +0.000 A 
ATOM     12  C   UNL     1       2.538   6.739  19.745  0.00  0.00    +0.000 A 
ENDBRANCH   4   7
BRANCH   4  13
ATOM     13  C   UNL     1       3.781   4.352  18.172  0.00  0.00    +0.000 A 
ATOM     14  C   UNL     1       2.759   3.765  17.398  0.00  0.00    +0.000 A 
ATOM     15  C   UNL     1       2.362   2.437  17.580  0.00  0.00    +0.000 A 
ATOM     16  C   UNL     1       2.981   1.652  18.543  0.00  0.00    +0.000 A 
ATOM     17  C   UNL     1       3.986   2.204  19.332  0.00  0.00    +0.000 A 
ATOM     18  C   UNL     1       4.377   3.537  19.154  0.00  0.00    +0.000 A 
ENDBRANCH   4  13
BRANCH   1  19
ATOM     19  N   UNL     1       7.422   7.191  16.716  0.00  0.00    +0.000 NA
ATOM     20  H   UNL     1       8.107   7.241  15.965  0.00  0.00    +0.000 HD
BRANCH  19  21
ATOM     21  C   UNL     1       8.044   7.606  17.991  0.00  0.00    +0.000 C 
BRANCH  21  22
ATOM     22  C   UNL     1       8.306   9.115  18.115  0.00  0.00    +0.000 C 
BRANCH  22  23
ATOM     23  O   UNL     1       9.291   9.362  19.118  0.00  0.00    +0.000 OA
BRANCH  23  27
ATOM     24  C   UNL     1      10.118  13.416  19.588  0.00  0.00    +0.000 A 
ATOM     25  C   UNL     1      10.216  12.784  18.351  0.00  0.00    +0.000 A 
ATOM     26  C   UNL     1       9.919  11.425  18.234  0.00  0.00    +0.000 A 
ATOM     27  C   UNL     1       9.542  10.689  19.356  0.00  0.00    +0.000 A 
ATOM     28  C   UNL     1       9.423  11.332  20.593  0.00  0.00    +0.000 A 
ATOM     29  C   UNL     1       9.714  12.693  20.709  0.00  0.00    +0.000 A 
ENDBRANCH  23  27
ENDBRANCH  22  23
ENDBRANCH  21  22
ENDBRANCH  19  21
ENDBRANCH   1  19
TORSDOF 7
ENDMDL
MODEL 6
REMARK VINA RESULT:      -8.2      0.494      1.380
REMARK  Name = 
REMARK  7 active torsions:
REMARK  status: ('A' for Active; 'I' for Inactive)
REMARK    1  A    between atoms: C_4  and  O_5
REMARK    2  A    between atoms: O_5  and  C_6
REMARK    3  A    between atoms: C_6  and  C_7
REMARK    4  A    between atoms: C_7  and  N_8
REMARK    5  A    between atoms: N_8  and  C_9
REMARK    6  A    between atoms: C_12  and  C_13
REMARK    7  A    between atoms: C_12  and  C_19
REMARK                            x       y       z     vdW  Elec       q    Type
REMARK                         _______ _______ _______ _____ _____    ______ ____
ROOT
ATOM      1  C   UNL     1       5.601   4.561  17.734  0.00  0.00    +0.000 C 
ATOM      2  C   UNL     1       4.190   4.372  17.131  0.00  0.00    +0.000 C 
ATOM      3  O   UNL     1       3.250   5.391  17.465  0.00  0.00    +0.000 OA
ATOM      4  C   UNL     1       3.197   5.735  18.878  0.00  0.00    +0.000 C 
ATOM      5  C   UNL     1       4.665   5.957  19.371  0.00  0.00    +0.000 C 
ATOM      6  O   UNL     1       5.509   4.815  19.129  0.00  0.00    +0.000 OA
ENDROOT
BRANCH   4   7
ATOM      7  C   UNL     1       2.440   7.091  18.917  0.00  0.00    +0.000 A 
ATOM      8  C   UNL     1       2.421   7.936  17.785  0.00  0.00    +0.000 A 
ATOM      9  C   UNL     1       1.871   9.220  17.840  0.00  0.00    +0.000 A 
ATOM     10  C   UNL     1       1.328   9.692  19.028  0.00  0.00    +0.000 A 
ATOM     11  C   UNL     1       1.296   8.866  20.147  0.00  0.00    +0.000 A 
ATOM     12  C   UNL     1       1.823   7.572  20.086  0.00  0.00    +0.000 A 
ENDBRANCH   4   7
BRANCH   4  13
ATOM     13  C   UNL     1       2.457   4.626  19.669  0.00  0.00    +0.000 A 
ATOM     14  C   UNL     1       1.390   3.889  19.117  0.00  0.00    +0.000 A 
ATOM     15  C   UNL     1       0.717   2.902  19.844  0.00  0.00    +0.000 A 
ATOM     16  C   UNL     1       1.097   2.619  21.148  0.00  0.00    +0.000 A 
ATOM     17  C   UNL     1       2.140   3.336  21.726  0.00  0.00    +0.000 A 
ATOM     18  C   UNL     1       2.808   4.330  21.000  0.00  0.00    +0.000 A 
ENDBRANCH   4  13
BRANCH   1  19
ATOM     19  N   UNL     1       6.443   5.574  17.089  0.00  0.00    +0.000 NA
ATOM     20  H   UNL     1       6.244   6.490  17.487  0.00  0.00    +0.000 HD
BRANCH  19  21
ATOM     21  C   UNL     1       6.244   5.610  15.625  0.00  0.00    +0.000 C 
BRANCH  21  22
ATOM     22  C   UNL     1       7.237   4.755  14.823  0.00  0.00    +0.000 C 
BRANCH  22  23
ATOM     23  O   UNL     1       7.121   5.044  13.429  0.00  0.00    +0.000 OA
BRANCH  23  27
ATOM     24  C   UNL     1       5.465   1.991  11.133  0.00  0.00    +0.000 A 
ATOM     25  C   UNL     1       6.842   2.131  11.286  0.00  0.00    +0.000 A 
ATOM     26  C   UNL     1       7.356   3.162  12.073  0.00  0.00    +0.000 A 
ATOM     27  C   UNL     1       6.497   4.068  12.696  0.00  0.00    +0.000 A 
ATOM     28  C   UNL     1       5.114   3.909  12.557  0.00  0.00    +0.000 A 
ATOM     29  C   UNL     1       4.599   2.874  11.774  0.00  0.00    +0.000 A 
ENDBRANCH  23  27
ENDBRANCH  22  23
ENDBRANCH  21  22
ENDBRANCH  19  21
ENDBRANCH   1  19
TORSDOF 7
ENDMDL
MODEL 7
REMARK VINA RESULT:      -8.1      4.300      6.443
REMARK  Name = 
REMARK  7 active torsions:
REMARK  status: ('A' for Active; 'I' for Inactive)
REMARK    1  A    between atoms: C_4  and  O_5
REMARK    2  A    between atoms: O_5  and  C_6
REMARK    3  A    between atoms: C_6  and  C_7
REMARK    4  A    between atoms: C_7  and  N_8
REMARK    5  A    between atoms: N_8  and  C_9
REMARK    6  A    between atoms: C_12  and  C_13
REMARK    7  A    between atoms: C_12  and  C_19
REMARK                            x       y       z     vdW  Elec       q    Type
REMARK                         _______ _______ _______ _____ _____    ______ ____
ROOT
ATOM      1  C   UNL     1       7.035   5.546  16.692  0.00  0.00    +0.000 C 
ATOM      2  C   UNL     1       5.731   5.303  15.899  0.00  0.00    +0.000 C 
ATOM      3  O   UNL     1       4.561   5.889  16.465  0.00  0.00    +0.000 OA
ATOM      4  C   UNL     1       4.385   5.649  17.890  0.00  0.00    +0.000 C 
ATOM      5  C   UNL     1       5.740   5.977  18.600  0.00  0.00    +0.000 C 
ATOM      6  O   UNL     1       6.843   5.224  18.063  0.00  0.00    +0.000 OA
ENDROOT
BRANCH   4   7
ATOM      7  C   UNL     1       3.319   6.691  18.329  0.00  0.00    +0.000 A 
ATOM      8  C   UNL     1       3.019   7.801  17.507  0.00  0.00    +0.000 A 
ATOM      9  C   UNL     1       2.172   8.824  17.942  0.00  0.00    +0.000 A 
ATOM     10  C   UNL     1       1.606   8.765  19.209  0.00  0.00    +0.000 A 
ATOM     11  C   UNL     1       1.851   7.663  20.022  0.00  0.00    +0.000 A 
ATOM     12  C   UNL     1       2.678   6.627  19.578  0.00  0.00    +0.000 A 
ENDBRANCH   4   7
BRANCH   4  13
ATOM     13  C   UNL     1       3.916   4.191  18.130  0.00  0.00    +0.000 A 
ATOM     14  C   UNL     1       2.890   3.593  17.370  0.00  0.00    +0.000 A 
ATOM     15  C   UNL     1       2.462   2.283  17.606  0.00  0.00    +0.000 A 
ATOM     16  C   UNL     1       3.053   1.528  18.609  0.00  0.00    +0.000 A 
ATOM     17  C   UNL     1       4.062   2.093  19.385  0.00  0.00    +0.000 A 
ATOM     18  C   UNL     1       4.484   3.408  19.153  0.00  0.00    +0.000 A 
ENDBRANCH   4  13
BRANCH   1  19
ATOM     19  N   UNL     1       7.622   6.884  16.563  0.00  0.00    +0.000 NA
ATOM     20  H   UNL     1       8.632   6.808  16.465  0.00  0.00    +0.000 HD
BRANCH  19  21
ATOM     21  C   UNL     1       7.294   7.746  17.718  0.00  0.00    +0.000 C 
BRANCH  21  22
ATOM     22  C   UNL     1       8.492   8.505  18.311  0.00  0.00    +0.000 C 
BRANCH  22  23
ATOM     23  O   UNL     1       8.371   9.902  18.041  0.00  0.00    +0.000 OA
BRANCH  23  27
ATOM     24  C   UNL     1      11.337  12.203  19.842  0.00  0.00    +0.000 A 
ATOM     25  C   UNL     1      10.336  11.582  20.585  0.00  0.00    +0.000 A 
ATOM     26  C   UNL     1       9.366  10.810  19.944  0.00  0.00    +0.000 A 
ATOM     27  C   UNL     1       9.382  10.671  18.556  0.00  0.00    +0.000 A 
ATOM     28  C   UNL     1      10.403  11.278  17.816  0.00  0.00    +0.000 A 
ATOM     29  C   UNL     1      11.377  12.045  18.459  0.00  0.00    +0.000 A 
ENDBRANCH  23  27
ENDBRANCH  22  23
ENDBRANCH  21  22
ENDBRANCH  19  21
ENDBRANCH   1  19
TORSDOF 7
ENDMDL
MODEL 8
REMARK VINA RESULT:      -8.1      3.879      6.056
REMARK  Name = 
REMARK  7 active torsions:
REMARK  status: ('A' for Active; 'I' for Inactive)
REMARK    1  A    between atoms: C_4  and  O_5
REMARK    2  A    between atoms: O_5  and  C_6
REMARK    3  A    between atoms: C_6  and  C_7
REMARK    4  A    between atoms: C_7  and  N_8
REMARK    5  A    between atoms: N_8  and  C_9
REMARK    6  A    between atoms: C_12  and  C_13
REMARK    7  A    between atoms: C_12  and  C_19
REMARK                            x       y       z     vdW  Elec       q    Type
REMARK                         _______ _______ _______ _____ _____    ______ ____
ROOT
ATOM      1  C   UNL     1       6.422   5.190  17.003  0.00  0.00    +0.000 C 
ATOM      2  C   UNL     1       5.076   5.107  16.249  0.00  0.00    +0.000 C 
ATOM      3  O   UNL     1       4.042   5.940  16.767  0.00  0.00    +0.000 OA
ATOM      4  C   UNL     1       3.863   5.868  18.209  0.00  0.00    +0.000 C 
ATOM      5  C   UNL     1       5.272   6.017  18.873  0.00  0.00    +0.000 C 
ATOM      6  O   UNL     1       6.213   5.035  18.400  0.00  0.00    +0.000 OA
ENDROOT
BRANCH   4   7
ATOM      7  C   UNL     1       3.007   7.117  18.556  0.00  0.00    +0.000 A 
ATOM      8  C   UNL     1       2.339   7.208  19.798  0.00  0.00    +0.000 A 
ATOM      9  C   UNL     1       1.452   8.250  20.076  0.00  0.00    +0.000 A 
ATOM     10  C   UNL     1       1.207   9.227  19.119  0.00  0.00    +0.000 A 
ATOM     11  C   UNL     1       1.882   9.186  17.904  0.00  0.00    +0.000 A 
ATOM     12  C   UNL     1       2.790   8.157  17.635  0.00  0.00    +0.000 A 
ENDBRANCH   4   7
BRANCH   4  13
ATOM     13  C   UNL     1       3.154   4.544  18.593  0.00  0.00    +0.000 A 
ATOM     14  C   UNL     1       3.648   3.686  19.597  0.00  0.00    +0.000 A 
ATOM     15  C   UNL     1       3.011   2.485  19.924  0.00  0.00    +0.000 A 
ATOM     16  C   UNL     1       1.855   2.107  19.257  0.00  0.00    +0.000 A 
ATOM     17  C   UNL     1       1.346   2.927  18.253  0.00  0.00    +0.000 A 
ATOM     18  C   UNL     1       1.989   4.125  17.921  0.00  0.00    +0.000 A 
ENDBRANCH   4  13
BRANCH   1  19
ATOM     19  N   UNL     1       7.230   6.386  16.741  0.00  0.00    +0.000 NA
ATOM     20  H   UNL     1       7.983   6.158  16.096  0.00  0.00    +0.000 HD
BRANCH  19  21
ATOM     21  C   UNL     1       7.790   6.959  17.983  0.00  0.00    +0.000 C 
BRANCH  21  22
ATOM     22  C   UNL     1       8.054   8.472  17.928  0.00  0.00    +0.000 C 
BRANCH  22  23
ATOM     23  O   UNL     1       8.986   8.846  18.943  0.00  0.00    +0.000 OA
BRANCH  23  27
ATOM     24  C   UNL     1       9.418  12.981  19.174  0.00  0.00    +0.000 A 
ATOM     25  C   UNL     1       9.117  12.339  17.975  0.00  0.00    +0.000 A 
ATOM     26  C   UNL     1       8.969  10.952  17.942  0.00  0.00    +0.000 A 
ATOM     27  C   UNL     1       9.141  10.198  19.104  0.00  0.00    +0.000 A 
ATOM     28  C   UNL     1       9.421  10.849  20.310  0.00  0.00    +0.000 A 
ATOM     29  C   UNL     1       9.562  12.238  20.344  0.00  0.00    +0.000 A 
ENDBRANCH  23  27
ENDBRANCH  22  23
ENDBRANCH  21  22
ENDBRANCH  19  21
ENDBRANCH   1  19
TORSDOF 7
ENDMDL
MODEL 9
REMARK VINA RESULT:      -8.1      4.140      6.260
REMARK  Name = 
REMARK  7 active torsions:
REMARK  status: ('A' for Active; 'I' for Inactive)
REMARK    1  A    between atoms: C_4  and  O_5
REMARK    2  A    between atoms: O_5  and  C_6
REMARK    3  A    between atoms: C_6  and  C_7
REMARK    4  A    between atoms: C_7  and  N_8
REMARK    5  A    between atoms: N_8  and  C_9
REMARK    6  A    between atoms: C_12  and  C_13
REMARK    7  A    between atoms: C_12  and  C_19
REMARK                            x       y       z     vdW  Elec       q    Type
REMARK                         _______ _______ _______ _____ _____    ______ ____
ROOT
ATOM      1  C   UNL     1       6.593   5.386  16.879  0.00  0.00    +0.000 C 
ATOM      2  C   UNL     1       5.248   5.262  16.128  0.00  0.00    +0.000 C 
ATOM      3  O   UNL     1       4.180   6.031  16.674  0.00  0.00    +0.000 OA
ATOM      4  C   UNL     1       4.012   5.910  18.115  0.00  0.00    +0.000 C 
ATOM      5  C   UNL     1       5.416   6.105  18.776  0.00  0.00    +0.000 C 
ATOM      6  O   UNL     1       6.399   5.181  18.272  0.00  0.00    +0.000 OA
ENDROOT
BRANCH   4   7
ATOM      7  C   UNL     1       3.101   7.107  18.500  0.00  0.00    +0.000 A 
ATOM      8  C   UNL     1       2.443   7.136  19.751  0.00  0.00    +0.000 A 
ATOM      9  C   UNL     1       1.510   8.128  20.063  0.00  0.00    +0.000 A 
ATOM     10  C   UNL     1       1.208   9.115  19.133  0.00  0.00    +0.000 A 
ATOM     11  C   UNL     1       1.871   9.135  17.911  0.00  0.00    +0.000 A 
ATOM     12  C   UNL     1       2.825   8.158  17.607  0.00  0.00    +0.000 A 
ENDBRANCH   4   7
BRANCH   4  13
ATOM     13  C   UNL     1       3.366   4.544  18.462  0.00  0.00    +0.000 A 
ATOM     14  C   UNL     1       2.207   4.070  17.815  0.00  0.00    +0.000 A 
ATOM     15  C   UNL     1       1.622   2.844  18.148  0.00  0.00    +0.000 A 
ATOM     16  C   UNL     1       2.184   2.052  19.138  0.00  0.00    +0.000 A 
ATOM     17  C   UNL     1       3.323   2.495  19.804  0.00  0.00    +0.000 A 
ATOM     18  C   UNL     1       3.903   3.727  19.476  0.00  0.00    +0.000 A 
ENDBRANCH   4  13
BRANCH   1  19
ATOM     19  N   UNL     1       7.344   6.625  16.649  0.00  0.00    +0.000 NA
ATOM     20  H   UNL     1       8.096   6.452  15.986  0.00  0.00    +0.000 HD
BRANCH  19  21
ATOM     21  C   UNL     1       7.897   7.179  17.903  0.00  0.00    +0.000 C 
BRANCH  21  22
ATOM     22  C   UNL     1       8.188   8.687  17.862  0.00  0.00    +0.000 C 
BRANCH  22  23
ATOM     23  O   UNL     1       8.659   9.130  19.135  0.00  0.00    +0.000 OA
BRANCH  23  27
ATOM     24  C   UNL     1      10.714  12.748  19.316  0.00  0.00    +0.000 A 
ATOM     25  C   UNL     1      10.382  12.033  20.464  0.00  0.00    +0.000 A 
ATOM     26  C   UNL     1       9.702  10.818  20.360  0.00  0.00    +0.000 A 
ATOM     27  C   UNL     1       9.335  10.323  19.108  0.00  0.00    +0.000 A 
ATOM     28  C   UNL     1       9.690  11.033  17.957  0.00  0.00    +0.000 A 
ATOM     29  C   UNL     1      10.376  12.246  18.061  0.00  0.00    +0.000 A 
ENDBRANCH  23  27
ENDBRANCH  22  23
ENDBRANCH  21  22
ENDBRANCH  19  21
ENDBRANCH   1  19
TORSDOF 7
ENDMDL
