MODEL 1
REMARK VINA RESULT:      -6.4      0.000      0.000
REMARK  Name = 
REMARK  7 active torsions:
REMARK  status: ('A' for Active; 'I' for Inactive)
REMARK    1  A    between atoms: C_1  and  C_2
REMARK    2  A    between atoms: C_2  and  C_3
REMARK    3  A    between atoms: C_2  and  C_4
REMARK    4  A    between atoms: C_2  and  C_5
REMARK    5  A    between atoms: C_10  and  C_12
REMARK    6  A    between atoms: C_12  and  S_13
REMARK    7  A    between atoms: S_13  and  C_16
REMARK                            x       y       z     vdW  Elec       q    Type
REMARK                         _______ _______ _______ _____ _____    ______ ____
ROOT
ATOM      1  C   UNL     1      -4.728  11.707  17.723  0.00  0.00    +0.000 A 
ATOM      2  C   UNL     1      -4.452  11.318  16.420  0.00  0.00    +0.000 A 
ATOM      3  S   UNL     1      -2.803  10.842  16.278  0.00  0.00    +0.000 S 
ATOM      4  C   UNL     1      -2.569  11.272  17.908  0.00  0.00    +0.000 A 
ATOM      5  N   UNL     1      -1.288  11.148  18.380  0.00  0.00    +0.000 N 
ATOM      6  C   UNL     1      -0.938  11.700  19.592  0.00  0.00    +0.000 C 
ATOM      7  O   UNL     1      -1.643  12.414  20.300  0.00  0.00    +0.000 OA
ATOM      8  N   UNL     1      -3.623  11.681  18.555  0.00  0.00    +0.000 NA
ATOM      9  H   UNL     1      -0.631  10.664  17.787  0.00  0.00    +0.000 HD
ENDROOT
BRANCH   1  11
ATOM     10  C   UNL     1      -6.908  12.858  17.230  0.00  0.00    +0.000 C 
ATOM     11  C   UNL     1      -6.061  12.151  18.305  0.00  0.00    +0.000 C 
ATOM     12  C   UNL     1      -5.834  13.117  19.483  0.00  0.00    +0.000 C 
ATOM     13  C   UNL     1      -6.868  10.942  18.830  0.00  0.00    +0.000 C 
ENDBRANCH   1  11
BRANCH   6  14
ATOM     14  C   UNL     1       0.465  11.421  20.022  0.00  0.00    +0.000 C 
BRANCH  14  15
ATOM     15  S   UNL     1       0.542   9.873  20.852  0.00  0.00    +0.000 S 
ATOM     16  O   UNL     1       1.294  10.073  22.078  0.00  0.00    +0.000 OA
ATOM     17  O   UNL     1      -0.815   9.359  20.919  0.00  0.00    +0.000 OA
BRANCH  15  18
ATOM     18  C   UNL     1       1.467   8.777  19.804  0.00  0.00    +0.000 A 
ATOM     19  C   UNL     1       1.896   7.539  20.294  0.00  0.00    +0.000 A 
ATOM     20  C   UNL     1       2.629   6.690  19.463  0.00  0.00    +0.000 A 
ATOM     21  C   UNL     1       2.909   7.067  18.148  0.00  0.00    +0.000 A 
ATOM     22  C   UNL     1       2.450   8.289  17.656  0.00  0.00    +0.000 A 
ATOM     23  C   UNL     1       1.722   9.148  18.480  0.00  0.00    +0.000 A 
ENDBRANCH  15  18
ENDBRANCH  14  15
ENDBRANCH   6  14
TORSDOF 4
ENDMDL
MODEL 2
REMARK VINA RESULT:      -6.4      3.607      9.055
REMARK  Name = 
REMARK  7 active torsions:
REMARK  status: ('A' for Active; 'I' for Inactive)
REMARK    1  A    between atoms: C_1  and  C_2
REMARK    2  A    between atoms: C_2  and  C_3
REMARK    3  A    between atoms: C_2  and  C_4
REMARK    4  A    between atoms: C_2  and  C_5
REMARK    5  A    between atoms: C_10  and  C_12
REMARK    6  A    between atoms: C_12  and  S_13
REMARK    7  A    between atoms: S_13  and  C_16
REMARK                            x       y       z     vdW  Elec       q    Type
REMARK                         _______ _______ _______ _____ _____    ______ ____
ROOT
ATOM      1  C   UNL     1       5.502   5.615  18.473  0.00  0.00    +0.000 A 
ATOM      2  C   UNL     1       4.926   4.655  19.292  0.00  0.00    +0.000 A 
ATOM      3  S   UNL     1       3.233   4.936  19.438  0.00  0.00    +0.000 S 
ATOM      4  C   UNL     1       3.414   6.340  18.493  0.00  0.00    +0.000 A 
ATOM      5  N   UNL     1       2.280   7.086  18.309  0.00  0.00    +0.000 N 
ATOM      6  C   UNL     1       2.361   8.356  17.783  0.00  0.00    +0.000 C 
ATOM      7  O   UNL     1       3.391   8.979  17.534  0.00  0.00    +0.000 OA
ATOM      8  N   UNL     1       4.610   6.579  18.037  0.00  0.00    +0.000 NA
ATOM      9  H   UNL     1       1.409   6.668  18.600  0.00  0.00    +0.000 HD
ENDROOT
BRANCH   1  11
ATOM     10  C   UNL     1       7.299   4.591  17.044  0.00  0.00    +0.000 C 
ATOM     11  C   UNL     1       6.954   5.721  18.032  0.00  0.00    +0.000 C 
ATOM     12  C   UNL     1       7.891   5.628  19.250  0.00  0.00    +0.000 C 
ATOM     13  C   UNL     1       7.223   7.070  17.327  0.00  0.00    +0.000 C 
ENDBRANCH   1  11
BRANCH   6  14
ATOM     14  C   UNL     1       1.044   9.025  17.561  0.00  0.00    +0.000 C 
BRANCH  14  15
ATOM     15  S   UNL     1       0.668  10.077  18.919  0.00  0.00    +0.000 S 
ATOM     16  O   UNL     1       0.725   9.270  20.125  0.00  0.00    +0.000 OA
ATOM     17  O   UNL     1       1.521  11.247  18.798  0.00  0.00    +0.000 OA
BRANCH  15  18
ATOM     18  C   UNL     1      -1.006  10.624  18.694  0.00  0.00    +0.000 A 
ATOM     19  C   UNL     1      -1.525  11.640  19.504  0.00  0.00    +0.000 A 
ATOM     20  C   UNL     1      -2.844  12.055  19.322  0.00  0.00    +0.000 A 
ATOM     21  C   UNL     1      -3.630  11.475  18.323  0.00  0.00    +0.000 A 
ATOM     22  C   UNL     1      -3.096  10.486  17.497  0.00  0.00    +0.000 A 
ATOM     23  C   UNL     1      -1.780  10.059  17.675  0.00  0.00    +0.000 A 
ENDBRANCH  15  18
ENDBRANCH  14  15
ENDBRANCH   6  14
TORSDOF 4
ENDMDL
MODEL 3
REMARK VINA RESULT:      -6.4      4.373      6.810
REMARK  Name = 
REMARK  7 active torsions:
REMARK  status: ('A' for Active; 'I' for Inactive)
REMARK    1  A    between atoms: C_1  and  C_2
REMARK    2  A    between atoms: C_2  and  C_3
REMARK    3  A    between atoms: C_2  and  C_4
REMARK    4  A    between atoms: C_2  and  C_5
REMARK    5  A    between atoms: C_10  and  C_12
REMARK    6  A    between atoms: C_12  and  S_13
REMARK    7  A    between atoms: S_13  and  C_16
REMARK                            x       y       z     vdW  Elec       q    Type
REMARK                         _______ _______ _______ _____ _____    ______ ____
ROOT
ATOM      1  C   UNL     1       1.145   9.540  19.371  0.00  0.00    +0.000 A 
ATOM      2  C   UNL     1       1.815  10.151  18.322  0.00  0.00    +0.000 A 
ATOM      3  S   UNL     1       2.721   8.985  17.435  0.00  0.00    +0.000 S 
ATOM      4  C   UNL     1       2.233   7.798  18.553  0.00  0.00    +0.000 A 
ATOM      5  N   UNL     1       2.756   6.546  18.362  0.00  0.00    +0.000 N 
ATOM      6  C   UNL     1       2.633   5.585  19.340  0.00  0.00    +0.000 C 
ATOM      7  O   UNL     1       2.171   5.745  20.467  0.00  0.00    +0.000 OA
ATOM      8  N   UNL     1       1.412   8.187  19.487  0.00  0.00    +0.000 NA
ATOM      9  H   UNL     1       3.248   6.388  17.496  0.00  0.00    +0.000 HD
ENDROOT
BRANCH   1  11
ATOM     10  C   UNL     1      -0.128   9.190  21.510  0.00  0.00    +0.000 C 
ATOM     11  C   UNL     1       0.194  10.177  20.373  0.00  0.00    +0.000 C 
ATOM     12  C   UNL     1      -1.117  10.589  19.679  0.00  0.00    +0.000 C 
ATOM     13  C   UNL     1       0.818  11.444  21.002  0.00  0.00    +0.000 C 
ENDBRANCH   1  11
BRANCH   6  14
ATOM     14  C   UNL     1       3.177   4.244  18.968  0.00  0.00    +0.000 C 
BRANCH  14  15
ATOM     15  S   UNL     1       4.930   4.250  19.102  0.00  0.00    +0.000 S 
ATOM     16  O   UNL     1       5.308   5.452  19.823  0.00  0.00    +0.000 OA
ATOM     17  O   UNL     1       5.320   2.950  19.621  0.00  0.00    +0.000 OA
BRANCH  15  18
ATOM     18  C   UNL     1       5.569   4.367  17.449  0.00  0.00    +0.000 A 
ATOM     19  C   UNL     1       6.929   4.619  17.242  0.00  0.00    +0.000 A 
ATOM     20  C   UNL     1       7.416   4.717  15.938  0.00  0.00    +0.000 A 
ATOM     21  C   UNL     1       6.555   4.541  14.853  0.00  0.00    +0.000 A 
ATOM     22  C   UNL     1       5.206   4.257  15.067  0.00  0.00    +0.000 A 
ATOM     23  C   UNL     1       4.707   4.164  16.366  0.00  0.00    +0.000 A 
ENDBRANCH  15  18
ENDBRANCH  14  15
ENDBRANCH   6  14
TORSDOF 4
ENDMDL
MODEL 4
REMARK VINA RESULT:      -6.3      3.451      7.918
REMARK  Name = 
REMARK  7 active torsions:
REMARK  status: ('A' for Active; 'I' for Inactive)
REMARK    1  A    between atoms: C_1  and  C_2
REMARK    2  A    between atoms: C_2  and  C_3
REMARK    3  A    between atoms: C_2  and  C_4
REMARK    4  A    between atoms: C_2  and  C_5
REMARK    5  A    between atoms: C_10  and  C_12
REMARK    6  A    between atoms: C_12  and  S_13
REMARK    7  A    between atoms: S_13  and  C_16
REMARK                            x       y       z     vdW  Elec       q    Type
REMARK                         _______ _______ _______ _____ _____    ______ ____
ROOT
ATOM      1  C   UNL     1       2.283   4.740  19.242  0.00  0.00    +0.000 A 
ATOM      2  C   UNL     1       2.927   5.149  18.084  0.00  0.00    +0.000 A 
ATOM      3  S   UNL     1       3.125   6.860  18.087  0.00  0.00    +0.000 S 
ATOM      4  C   UNL     1       2.270   6.927  19.556  0.00  0.00    +0.000 A 
ATOM      5  N   UNL     1       2.044   8.182  20.059  0.00  0.00    +0.000 N 
ATOM      6  C   UNL     1       1.156   8.367  21.095  0.00  0.00    +0.000 C 
ATOM      7  O   UNL     1       0.424   7.512  21.590  0.00  0.00    +0.000 OA
ATOM      8  N   UNL     1       1.906   5.785  20.066  0.00  0.00    +0.000 NA
ATOM      9  H   UNL     1       2.536   8.943  19.616  0.00  0.00    +0.000 HD
ENDROOT
BRANCH   1  11
ATOM     10  C   UNL     1       0.943   2.682  18.702  0.00  0.00    +0.000 C 
ATOM     11  C   UNL     1       1.950   3.320  19.677  0.00  0.00    +0.000 C 
ATOM     12  C   UNL     1       1.347   3.323  21.093  0.00  0.00    +0.000 C 
ATOM     13  C   UNL     1       3.218   2.436  19.701  0.00  0.00    +0.000 C 
ENDBRANCH   1  11
BRANCH   6  14
ATOM     14  C   UNL     1       1.067   9.770  21.597  0.00  0.00    +0.000 C 
BRANCH  14  15
ATOM     15  S   UNL     1       0.294  10.791  20.392  0.00  0.00    +0.000 S 
ATOM     16  O   UNL     1       1.232  11.845  20.048  0.00  0.00    +0.000 OA
ATOM     17  O   UNL     1      -0.212   9.912  19.352  0.00  0.00    +0.000 OA
BRANCH  15  18
ATOM     18  C   UNL     1      -1.114  11.535  21.180  0.00  0.00    +0.000 A 
ATOM     19  C   UNL     1      -1.285  11.416  22.563  0.00  0.00    +0.000 A 
ATOM     20  C   UNL     1      -2.399  11.998  23.168  0.00  0.00    +0.000 A 
ATOM     21  C   UNL     1      -3.321  12.711  22.400  0.00  0.00    +0.000 A 
ATOM     22  C   UNL     1      -3.128  12.854  21.026  0.00  0.00    +0.000 A 
ATOM     23  C   UNL     1      -2.020  12.270  20.410  0.00  0.00    +0.000 A 
ENDBRANCH  15  18
ENDBRANCH  14  15
ENDBRANCH   6  14
TORSDOF 4
ENDMDL
MODEL 5
REMARK VINA RESULT:      -6.3      5.051      7.367
REMARK  Name = 
REMARK  7 active torsions:
REMARK  status: ('A' for Active; 'I' for Inactive)
REMARK    1  A    between atoms: C_1  and  C_2
REMARK    2  A    between atoms: C_2  and  C_3
REMARK    3  A    between atoms: C_2  and  C_4
REMARK    4  A    between atoms: C_2  and  C_5
REMARK    5  A    between atoms: C_10  and  C_12
REMARK    6  A    between atoms: C_12  and  S_13
REMARK    7  A    between atoms: S_13  and  C_16
REMARK                            x       y       z     vdW  Elec       q    Type
REMARK                         _______ _______ _______ _____ _____    ______ ____
ROOT
ATOM      1  C   UNL     1       1.150   9.126  20.139  0.00  0.00    +0.000 A 
ATOM      2  C   UNL     1       1.224  10.005  19.069  0.00  0.00    +0.000 A 
ATOM      3  S   UNL     1       2.007   9.250  17.733  0.00  0.00    +0.000 S 
ATOM      4  C   UNL     1       2.264   7.873  18.699  0.00  0.00    +0.000 A 
ATOM      5  N   UNL     1       2.975   6.857  18.115  0.00  0.00    +0.000 N 
ATOM      6  C   UNL     1       3.454   5.816  18.877  0.00  0.00    +0.000 C 
ATOM      7  O   UNL     1       3.405   5.724  20.101  0.00  0.00    +0.000 OA
ATOM      8  N   UNL     1       1.767   7.910  19.902  0.00  0.00    +0.000 NA
ATOM      9  H   UNL     1       3.144   6.934  17.123  0.00  0.00    +0.000 HD
ENDROOT
BRANCH   1  11
ATOM     10  C   UNL     1       1.546   9.241  22.619  0.00  0.00    +0.000 C 
ATOM     11  C   UNL     1       0.499   9.354  21.495  0.00  0.00    +0.000 C 
ATOM     12  C   UNL     1      -0.612   8.316  21.736  0.00  0.00    +0.000 C 
ATOM     13  C   UNL     1      -0.138  10.760  21.575  0.00  0.00    +0.000 C 
ENDBRANCH   1  11
BRANCH   6  14
ATOM     14  C   UNL     1       4.140   4.740  18.101  0.00  0.00    +0.000 C 
BRANCH  14  15
ATOM     15  S   UNL     1       5.798   5.212  17.756  0.00  0.00    +0.000 S 
ATOM     16  O   UNL     1       5.889   6.650  17.940  0.00  0.00    +0.000 OA
ATOM     17  O   UNL     1       6.660   4.335  18.529  0.00  0.00    +0.000 OA
BRANCH  15  18
ATOM     18  C   UNL     1       6.086   4.851  16.041  0.00  0.00    +0.000 A 
ATOM     19  C   UNL     1       7.314   5.175  15.456  0.00  0.00    +0.000 A 
ATOM     20  C   UNL     1       7.525   4.893  14.105  0.00  0.00    +0.000 A 
ATOM     21  C   UNL     1       6.524   4.273  13.354  0.00  0.00    +0.000 A 
ATOM     22  C   UNL     1       5.314   3.923  13.953  0.00  0.00    +0.000 A 
ATOM     23  C   UNL     1       5.091   4.206  15.301  0.00  0.00    +0.000 A 
ENDBRANCH  15  18
ENDBRANCH  14  15
ENDBRANCH   6  14
TORSDOF 4
ENDMDL
MODEL 6
REMARK VINA RESULT:      -6.3      5.022      7.218
REMARK  Name = 
REMARK  7 active torsions:
REMARK  status: ('A' for Active; 'I' for Inactive)
REMARK    1  A    between atoms: C_1  and  C_2
REMARK    2  A    between atoms: C_2  and  C_3
REMARK    3  A    between atoms: C_2  and  C_4
REMARK    4  A    between atoms: C_2  and  C_5
REMARK    5  A    between atoms: C_10  and  C_12
REMARK    6  A    between atoms: C_12  and  S_13
REMARK    7  A    between atoms: S_13  and  C_16
REMARK                            x       y       z     vdW  Elec       q    Type
REMARK                         _______ _______ _______ _____ _____    ______ ____
ROOT
ATOM      1  C   UNL     1       1.091   9.260  20.238  0.00  0.00    +0.000 A 
ATOM      2  C   UNL     1       1.166  10.181  19.204  0.00  0.00    +0.000 A 
ATOM      3  S   UNL     1       1.893   9.460  17.818  0.00  0.00    +0.000 S 
ATOM      4  C   UNL     1       2.130   8.037  18.719  0.00  0.00    +0.000 A 
ATOM      5  N   UNL     1       2.795   7.026  18.074  0.00  0.00    +0.000 N 
ATOM      6  C   UNL     1       3.260   5.939  18.780  0.00  0.00    +0.000 C 
ATOM      7  O   UNL     1       3.238   5.797  20.000  0.00  0.00    +0.000 OA
ATOM      8  N   UNL     1       1.664   8.037  19.935  0.00  0.00    +0.000 NA
ATOM      9  H   UNL     1       2.942   7.140  17.083  0.00  0.00    +0.000 HD
ENDROOT
BRANCH   1  11
ATOM     10  C   UNL     1      -0.127  10.859  21.748  0.00  0.00    +0.000 C 
ATOM     11  C   UNL     1       0.480   9.450  21.619  0.00  0.00    +0.000 C 
ATOM     12  C   UNL     1       1.552   9.262  22.708  0.00  0.00    +0.000 C 
ATOM     13  C   UNL     1      -0.644   8.420  21.874  0.00  0.00    +0.000 C 
ENDBRANCH   1  11
BRANCH   6  14
ATOM     14  C   UNL     1       3.893   4.877  17.943  0.00  0.00    +0.000 C 
BRANCH  14  15
ATOM     15  S   UNL     1       5.602   5.227  17.720  0.00  0.00    +0.000 S 
ATOM     16  O   UNL     1       5.783   6.655  17.912  0.00  0.00    +0.000 OA
ATOM     17  O   UNL     1       6.338   4.292  18.554  0.00  0.00    +0.000 OA
BRANCH  15  18
ATOM     18  C   UNL     1       5.987   4.839  16.031  0.00  0.00    +0.000 A 
ATOM     19  C   UNL     1       5.070   4.127  15.251  0.00  0.00    +0.000 A 
ATOM     20  C   UNL     1       5.388   3.822  13.927  0.00  0.00    +0.000 A 
ATOM     21  C   UNL     1       6.602   4.245  13.382  0.00  0.00    +0.000 A 
ATOM     22  C   UNL     1       7.499   4.983  14.156  0.00  0.00    +0.000 A 
ATOM     23  C   UNL     1       7.193   5.287  15.483  0.00  0.00    +0.000 A 
ENDBRANCH  15  18
ENDBRANCH  14  15
ENDBRANCH   6  14
TORSDOF 4
ENDMDL
MODEL 7
REMARK VINA RESULT:      -6.2      4.093      7.852
REMARK  Name = 
REMARK  7 active torsions:
REMARK  status: ('A' for Active; 'I' for Inactive)
REMARK    1  A    between atoms: C_1  and  C_2
REMARK    2  A    between atoms: C_2  and  C_3
REMARK    3  A    between atoms: C_2  and  C_4
REMARK    4  A    between atoms: C_2  and  C_5
REMARK    5  A    between atoms: C_10  and  C_12
REMARK    6  A    between atoms: C_12  and  S_13
REMARK    7  A    between atoms: S_13  and  C_16
REMARK                            x       y       z     vdW  Elec       q    Type
REMARK                         _______ _______ _______ _____ _____    ______ ____
ROOT
ATOM      1  C   UNL     1       2.420   7.253  18.683  0.00  0.00    +0.000 A 
ATOM      2  C   UNL     1       2.440   8.187  17.657  0.00  0.00    +0.000 A 
ATOM      3  S   UNL     1       1.820   9.694  18.215  0.00  0.00    +0.000 S 
ATOM      4  C   UNL     1       1.494   8.971  19.720  0.00  0.00    +0.000 A 
ATOM      5  N   UNL     1       0.873   9.769  20.644  0.00  0.00    +0.000 N 
ATOM      6  C   UNL     1       0.340   9.222  21.790  0.00  0.00    +0.000 C 
ATOM      7  O   UNL     1       0.260   8.025  22.059  0.00  0.00    +0.000 OA
ATOM      8  N   UNL     1       1.860   7.728  19.855  0.00  0.00    +0.000 NA
ATOM      9  H   UNL     1       0.808  10.752  20.424  0.00  0.00    +0.000 HD
ENDROOT
BRANCH   1  11
ATOM     10  C   UNL     1       3.058   5.264  20.082  0.00  0.00    +0.000 C 
ATOM     11  C   UNL     1       2.919   5.816  18.651  0.00  0.00    +0.000 C 
ATOM     12  C   UNL     1       4.286   5.740  17.947  0.00  0.00    +0.000 C 
ATOM     13  C   UNL     1       1.936   4.905  17.881  0.00  0.00    +0.000 C 
ENDBRANCH   1  11
BRANCH   6  14
ATOM     14  C   UNL     1      -0.236  10.214  22.746  0.00  0.00    +0.000 C 
BRANCH  14  15
ATOM     15  S   UNL     1      -0.611  11.712  21.904  0.00  0.00    +0.000 S 
ATOM     16  O   UNL     1       0.636  12.434  21.724  0.00  0.00    +0.000 OA
ATOM     17  O   UNL     1      -1.409  11.357  20.743  0.00  0.00    +0.000 OA
BRANCH  15  18
ATOM     18  C   UNL     1      -1.652  12.660  22.986  0.00  0.00    +0.000 A 
ATOM     19  C   UNL     1      -1.216  13.898  23.467  0.00  0.00    +0.000 A 
ATOM     20  C   UNL     1      -2.041  14.629  24.324  0.00  0.00    +0.000 A 
ATOM     21  C   UNL     1      -3.299  14.136  24.675  0.00  0.00    +0.000 A 
ATOM     22  C   UNL     1      -3.741  12.916  24.165  0.00  0.00    +0.000 A 
ATOM     23  C   UNL     1      -2.922  12.173  23.314  0.00  0.00    +0.000 A 
ENDBRANCH  15  18
ENDBRANCH  14  15
ENDBRANCH   6  14
TORSDOF 4
ENDMDL
MODEL 8
REMARK VINA RESULT:      -6.2      3.626      8.420
REMARK  Name = 
REMARK  7 active torsions:
REMARK  status: ('A' for Active; 'I' for Inactive)
REMARK    1  A    between atoms: C_1  and  C_2
REMARK    2  A    between atoms: C_2  and  C_3
REMARK    3  A    between atoms: C_2  and  C_4
REMARK    4  A    between atoms: C_2  and  C_5
REMARK    5  A    between atoms: C_10  and  C_12
REMARK    6  A    between atoms: C_12  and  S_13
REMARK    7  A    between atoms: S_13  and  C_16
REMARK                            x       y       z     vdW  Elec       q    Type
REMARK                         _______ _______ _______ _____ _____    ______ ____
ROOT
ATOM      1  C   UNL     1       4.189   5.663  18.198  0.00  0.00    +0.000 A 
ATOM      2  C   UNL     1       4.014   4.849  19.307  0.00  0.00    +0.000 A 
ATOM      3  S   UNL     1       2.737   5.453  20.292  0.00  0.00    +0.000 S 
ATOM      4  C   UNL     1       2.586   6.777  19.233  0.00  0.00    +0.000 A 
ATOM      5  N   UNL     1       1.661   7.723  19.589  0.00  0.00    +0.000 N 
ATOM      6  C   UNL     1       1.633   8.943  18.951  0.00  0.00    +0.000 C 
ATOM      7  O   UNL     1       2.443   9.351  18.120  0.00  0.00    +0.000 OA
ATOM      8  N   UNL     1       3.361   6.771  18.187  0.00  0.00    +0.000 NA
ATOM      9  H   UNL     1       1.037   7.486  20.346  0.00  0.00    +0.000 HD
ENDROOT
BRANCH   1  11
ATOM     10  C   UNL     1       6.614   5.453  17.567  0.00  0.00    +0.000 C 
ATOM     11  C   UNL     1       5.165   5.478  17.045  0.00  0.00    +0.000 C 
ATOM     12  C   UNL     1       5.016   6.625  16.030  0.00  0.00    +0.000 C 
ATOM     13  C   UNL     1       4.901   4.148  16.303  0.00  0.00    +0.000 C 
ENDBRANCH   1  11
BRANCH   6  14
ATOM     14  C   UNL     1       0.526   9.848  19.382  0.00  0.00    +0.000 C 
BRANCH  14  15
ATOM     15  S   UNL     1       0.253   9.682  21.111  0.00  0.00    +0.000 S 
ATOM     16  O   UNL     1      -0.420   8.413  21.326  0.00  0.00    +0.000 OA
ATOM     17  O   UNL     1       1.523   9.940  21.767  0.00  0.00    +0.000 OA
BRANCH  15  18
ATOM     18  C   UNL     1      -0.855  10.988  21.581  0.00  0.00    +0.000 A 
ATOM     19  C   UNL     1      -1.179  11.178  22.928  0.00  0.00    +0.000 A 
ATOM     20  C   UNL     1      -2.057  12.202  23.283  0.00  0.00    +0.000 A 
ATOM     21  C   UNL     1      -2.588  13.042  22.302  0.00  0.00    +0.000 A 
ATOM     22  C   UNL     1      -2.235  12.868  20.964  0.00  0.00    +0.000 A 
ATOM     23  C   UNL     1      -1.363  11.842  20.597  0.00  0.00    +0.000 A 
ENDBRANCH  15  18
ENDBRANCH  14  15
ENDBRANCH   6  14
TORSDOF 4
ENDMDL
MODEL 9
REMARK VINA RESULT:      -6.2      3.360      8.031
REMARK  Name = 
REMARK  7 active torsions:
REMARK  status: ('A' for Active; 'I' for Inactive)
REMARK    1  A    between atoms: C_1  and  C_2
REMARK    2  A    between atoms: C_2  and  C_3
REMARK    3  A    between atoms: C_2  and  C_4
REMARK    4  A    between atoms: C_2  and  C_5
REMARK    5  A    between atoms: C_10  and  C_12
REMARK    6  A    between atoms: C_12  and  S_13
REMARK    7  A    between atoms: S_13  and  C_16
REMARK                            x       y       z     vdW  Elec       q    Type
REMARK                         _______ _______ _______ _____ _____    ______ ____
ROOT
ATOM      1  C   UNL     1       2.324   4.840  19.456  0.00  0.00    +0.000 A 
ATOM      2  C   UNL     1       2.901   5.192  18.244  0.00  0.00    +0.000 A 
ATOM      3  S   UNL     1       3.022   6.906  18.119  0.00  0.00    +0.000 S 
ATOM      4  C   UNL     1       2.226   7.042  19.617  0.00  0.00    +0.000 A 
ATOM      5  N   UNL     1       1.965   8.319  20.041  0.00  0.00    +0.000 N 
ATOM      6  C   UNL     1       1.113   8.540  21.099  0.00  0.00    +0.000 C 
ATOM      7  O   UNL     1       0.441   7.693  21.685  0.00  0.00    +0.000 OA
ATOM      8  N   UNL     1       1.935   5.925  20.221  0.00  0.00    +0.000 NA
ATOM      9  H   UNL     1       2.403   9.066  19.524  0.00  0.00    +0.000 HD
ENDROOT
BRANCH   1  11
ATOM     10  C   UNL     1       3.232   2.501  19.621  0.00  0.00    +0.000 C 
ATOM     11  C   UNL     1       2.075   3.442  20.003  0.00  0.00    +0.000 C 
ATOM     12  C   UNL     1       0.759   2.875  19.441  0.00  0.00    +0.000 C 
ATOM     13  C   UNL     1       1.965   3.462  21.545  0.00  0.00    +0.000 C 
ENDBRANCH   1  11
BRANCH   6  14
ATOM     14  C   UNL     1       0.981   9.970  21.506  0.00  0.00    +0.000 C 
BRANCH  14  15
ATOM     15  S   UNL     1       0.096  10.865  20.278  0.00  0.00    +0.000 S 
ATOM     16  O   UNL     1       0.980  11.899  19.771  0.00  0.00    +0.000 OA
ATOM     17  O   UNL     1      -0.463   9.887  19.361  0.00  0.00    +0.000 OA
BRANCH  15  18
ATOM     18  C   UNL     1      -1.267  11.651  21.101  0.00  0.00    +0.000 A 
ATOM     19  C   UNL     1      -2.228  12.343  20.355  0.00  0.00    +0.000 A 
ATOM     20  C   UNL     1      -3.289  12.964  21.015  0.00  0.00    +0.000 A 
ATOM     21  C   UNL     1      -3.401  12.872  22.404  0.00  0.00    +0.000 A 
ATOM     22  C   UNL     1      -2.458  12.153  23.138  0.00  0.00    +0.000 A 
ATOM     23  C   UNL     1      -1.389  11.535  22.489  0.00  0.00    +0.000 A 
ENDBRANCH  15  18
ENDBRANCH  14  15
ENDBRANCH   6  14
TORSDOF 4
ENDMDL
