MODEL 1
REMARK VINA RESULT:      -6.8      0.000      0.000
REMARK  Name = 
REMARK  13 active torsions:
REMARK  status: ('A' for Active; 'I' for Inactive)
REMARK    1  A    between atoms: C_1  and  C_2
REMARK    2  A    between atoms: C_2  and  N_3
REMARK    3  A    between atoms: C_4  and  C_6
REMARK    4  A    between atoms: C_9  and  C_10
REMARK    5  A    between atoms: C_12  and  C_13
REMARK    6  A    between atoms: C_13  and  C_14
REMARK    7  A    between atoms: C_13  and  C_15
REMARK    8  A    between atoms: C_16  and  O_17
REMARK    9  A    between atoms: C_19  and  O_20
REMARK   10  A    between atoms: C_21  and  N_22
REMARK   11  A    between atoms: C_23  and  C_25
REMARK   12  A    between atoms: C_28  and  C_29
REMARK   13  A    between atoms: C_29  and  O_30
REMARK                            x       y       z     vdW  Elec       q    Type
REMARK                         _______ _______ _______ _____ _____    ______ ____
ROOT
ATOM      1  C   UNL     1       0.363  10.067  22.027  0.00  0.00    +0.000 A 
ATOM      2  N   UNL     1       1.465   9.687  22.713  0.00  0.00    +0.000 NA
ATOM      3  O   UNL     1       1.950   8.581  22.050  0.00  0.00    +0.000 OA
ATOM      4  C   UNL     1       1.189   8.315  20.945  0.00  0.00    +0.000 A 
ATOM      5  C   UNL     1       0.158   9.234  20.895  0.00  0.00    +0.000 A 
ENDROOT
BRANCH   4   6
ATOM      6  C   UNL     1       1.731   7.304  20.034  0.00  0.00    +0.000 A 
ATOM      7  C   UNL     1       1.728   5.946  20.429  0.00  0.00    +0.000 A 
ATOM      8  C   UNL     1       2.415   4.938  19.716  0.00  0.00    +0.000 A 
ATOM      9  C   UNL     1       3.091   5.338  18.557  0.00  0.00    +0.000 A 
ATOM     10  C   UNL     1       3.062   6.661  18.111  0.00  0.00    +0.000 A 
ATOM     11  C   UNL     1       2.388   7.634  18.842  0.00  0.00    +0.000 A 
BRANCH   8  12
ATOM     12  C   UNL     1       2.506   3.524  20.287  0.00  0.00    +0.000 C 
ATOM     13  C   UNL     1       2.067   3.520  21.757  0.00  0.00    +0.000 C 
ATOM     14  C   UNL     1       1.711   2.454  19.521  0.00  0.00    +0.000 C 
ENDBRANCH   8  12
BRANCH   9  15
ATOM     15  O   UNL     1       3.855   4.506  17.788  0.00  0.00    +0.000 OA
ATOM     16  H   UNL     1       4.784   4.777  17.827  0.00  0.00    +0.000 HD
ENDBRANCH   9  15
BRANCH  11  17
ATOM     17  O   UNL     1       2.421   8.928  18.386  0.00  0.00    +0.000 OA
ATOM     18  H   UNL     1       2.851   9.482  19.063  0.00  0.00    +0.000 HD
ENDBRANCH  11  17
ENDBRANCH   4   6
BRANCH   1  20
ATOM     19  N   UNL     1      -0.346  12.350  21.829  0.00  0.00    +0.000 N 
ATOM     20  C   UNL     1      -0.481  11.156  22.511  0.00  0.00    +0.000 C 
ATOM     21  O   UNL     1      -1.241  11.030  23.471  0.00  0.00    +0.000 OA
ATOM     22  H   UNL     1       0.167  12.327  20.955  0.00  0.00    +0.000 HD
BRANCH  19  24
ATOM     23  C   UNL     1      -2.314  13.710  21.282  0.00  0.00    +0.000 C 
ATOM     24  C   UNL     1      -1.137  13.493  22.208  0.00  0.00    +0.000 C 
ENDBRANCH  19  24
ENDBRANCH   1  20
BRANCH   5  25
ATOM     25  N   UNL     1      -0.784   9.347  19.868  0.00  0.00    +0.000 N 
ATOM     26  C   UNL     1      -0.586  10.282  18.870  0.00  0.00    +0.000 C 
ATOM     27  O   UNL     1       0.363  11.067  18.871  0.00  0.00    +0.000 OA
ATOM     28  H   UNL     1      -1.225   8.469  19.601  0.00  0.00    +0.000 HD
BRANCH  26  29
ATOM     29  C   UNL     1      -1.550  10.186  17.671  0.00  0.00    +0.000 C 
ATOM     30  C   UNL     1      -2.873   9.483  18.014  0.00  0.00    +0.000 C 
ATOM     31  C   UNL     1      -3.895   9.566  16.870  0.00  0.00    +0.000 C 
ATOM     32  C   UNL     1      -4.153  11.002  16.381  0.00  0.00    +0.000 C 
ATOM     33  C   UNL     1      -2.824  11.660  16.002  0.00  0.00    +0.000 C 
ATOM     34  C   UNL     1      -1.805  11.607  17.134  0.00  0.00    +0.000 C 
BRANCH  32  35
ATOM     35  C   UNL     1      -4.936  11.847  17.399  0.00  0.00    +0.000 C 
BRANCH  35  36
ATOM     36  O   UNL     1      -6.025  11.103  17.931  0.00  0.00    +0.000 OA
ATOM     37  H   UNL     1      -6.388  10.561  17.210  0.00  0.00    +0.000 HD
ENDBRANCH  35  36
ENDBRANCH  32  35
ENDBRANCH  26  29
ENDBRANCH   5  25
TORSDOF 10
ENDMDL
MODEL 2
REMARK VINA RESULT:      -6.6      0.880      1.029
REMARK  Name = 
REMARK  13 active torsions:
REMARK  status: ('A' for Active; 'I' for Inactive)
REMARK    1  A    between atoms: C_1  and  C_2
REMARK    2  A    between atoms: C_2  and  N_3
REMARK    3  A    between atoms: C_4  and  C_6
REMARK    4  A    between atoms: C_9  and  C_10
REMARK    5  A    between atoms: C_12  and  C_13
REMARK    6  A    between atoms: C_13  and  C_14
REMARK    7  A    between atoms: C_13  and  C_15
REMARK    8  A    between atoms: C_16  and  O_17
REMARK    9  A    between atoms: C_19  and  O_20
REMARK   10  A    between atoms: C_21  and  N_22
REMARK   11  A    between atoms: C_23  and  C_25
REMARK   12  A    between atoms: C_28  and  C_29
REMARK   13  A    between atoms: C_29  and  O_30
REMARK                            x       y       z     vdW  Elec       q    Type
REMARK                         _______ _______ _______ _____ _____    ______ ____
ROOT
ATOM      1  C   UNL     1       0.283  10.293  21.964  0.00  0.00    +0.000 A 
ATOM      2  N   UNL     1       1.343   9.881  22.695  0.00  0.00    +0.000 NA
ATOM      3  O   UNL     1       1.746   8.694  22.125  0.00  0.00    +0.000 OA
ATOM      4  C   UNL     1       0.980   8.405  21.031  0.00  0.00    +0.000 A 
ATOM      5  C   UNL     1       0.025   9.396  20.894  0.00  0.00    +0.000 A 
ENDROOT
BRANCH   4   6
ATOM      6  C   UNL     1       1.449   7.289  20.207  0.00  0.00    +0.000 A 
ATOM      7  C   UNL     1       1.224   5.963  20.646  0.00  0.00    +0.000 A 
ATOM      8  C   UNL     1       1.821   4.839  20.034  0.00  0.00    +0.000 A 
ATOM      9  C   UNL     1       2.642   5.089  18.926  0.00  0.00    +0.000 A 
ATOM     10  C   UNL     1       2.835   6.382  18.435  0.00  0.00    +0.000 A 
ATOM     11  C   UNL     1       2.244   7.470  19.068  0.00  0.00    +0.000 A 
BRANCH   8  12
ATOM     12  C   UNL     1       1.665   3.454  20.658  0.00  0.00    +0.000 C 
ATOM     13  C   UNL     1       1.024   2.491  19.652  0.00  0.00    +0.000 C 
ATOM     14  C   UNL     1       2.961   2.829  21.200  0.00  0.00    +0.000 C 
ENDBRANCH   8  12
BRANCH   9  15
ATOM     15  O   UNL     1       3.344   4.127  18.258  0.00  0.00    +0.000 OA
ATOM     16  H   UNL     1       2.736   3.485  17.865  0.00  0.00    +0.000 HD
ENDBRANCH   9  15
BRANCH  11  17
ATOM     17  O   UNL     1       2.497   8.726  18.573  0.00  0.00    +0.000 OA
ATOM     18  H   UNL     1       3.450   8.907  18.666  0.00  0.00    +0.000 HD
ENDBRANCH  11  17
ENDBRANCH   4   6
BRANCH   1  20
ATOM     19  N   UNL     1      -1.691  11.223  22.960  0.00  0.00    +0.000 N 
ATOM     20  C   UNL     1      -0.478  11.479  22.351  0.00  0.00    +0.000 C 
ATOM     21  O   UNL     1      -0.081  12.623  22.130  0.00  0.00    +0.000 OA
ATOM     22  H   UNL     1      -1.868  10.269  23.257  0.00  0.00    +0.000 HD
BRANCH  19  24
ATOM     23  C   UNL     1      -3.599  12.657  22.389  0.00  0.00    +0.000 C 
ATOM     24  C   UNL     1      -2.525  12.314  23.398  0.00  0.00    +0.000 C 
ENDBRANCH  19  24
ENDBRANCH   1  20
BRANCH   5  25
ATOM     25  N   UNL     1      -0.893   9.503  19.846  0.00  0.00    +0.000 N 
ATOM     26  C   UNL     1      -0.582  10.292  18.753  0.00  0.00    +0.000 C 
ATOM     27  O   UNL     1       0.455  10.954  18.683  0.00  0.00    +0.000 OA
ATOM     28  H   UNL     1      -1.435   8.660  19.670  0.00  0.00    +0.000 HD
BRANCH  26  29
ATOM     29  C   UNL     1      -1.546  10.176  17.557  0.00  0.00    +0.000 C 
ATOM     30  C   UNL     1      -2.870   9.482  17.912  0.00  0.00    +0.000 C 
ATOM     31  C   UNL     1      -3.892   9.548  16.767  0.00  0.00    +0.000 C 
ATOM     32  C   UNL     1      -4.147  10.975  16.254  0.00  0.00    +0.000 C 
ATOM     33  C   UNL     1      -2.817  11.624  15.863  0.00  0.00    +0.000 C 
ATOM     34  C   UNL     1      -1.798  11.588  16.994  0.00  0.00    +0.000 C 
BRANCH  32  35
ATOM     35  C   UNL     1      -4.928  11.840  17.256  0.00  0.00    +0.000 C 
BRANCH  35  36
ATOM     36  O   UNL     1      -6.192  11.254  17.542  0.00  0.00    +0.000 OA
ATOM     37  H   UNL     1      -6.621  11.056  16.692  0.00  0.00    +0.000 HD
ENDBRANCH  35  36
ENDBRANCH  32  35
ENDBRANCH  26  29
ENDBRANCH   5  25
TORSDOF 10
ENDMDL
MODEL 3
REMARK VINA RESULT:      -6.6      3.503      8.703
REMARK  Name = 
REMARK  13 active torsions:
REMARK  status: ('A' for Active; 'I' for Inactive)
REMARK    1  A    between atoms: C_1  and  C_2
REMARK    2  A    between atoms: C_2  and  N_3
REMARK    3  A    between atoms: C_4  and  C_6
REMARK    4  A    between atoms: C_9  and  C_10
REMARK    5  A    between atoms: C_12  and  C_13
REMARK    6  A    between atoms: C_13  and  C_14
REMARK    7  A    between atoms: C_13  and  C_15
REMARK    8  A    between atoms: C_16  and  O_17
REMARK    9  A    between atoms: C_19  and  O_20
REMARK   10  A    between atoms: C_21  and  N_22
REMARK   11  A    between atoms: C_23  and  C_25
REMARK   12  A    between atoms: C_28  and  C_29
REMARK   13  A    between atoms: C_29  and  O_30
REMARK                            x       y       z     vdW  Elec       q    Type
REMARK                         _______ _______ _______ _____ _____    ______ ____
ROOT
ATOM      1  C   UNL     1      -4.081  11.388  16.738  0.00  0.00    +0.000 A 
ATOM      2  N   UNL     1      -5.249  12.048  16.573  0.00  0.00    +0.000 NA
ATOM      3  O   UNL     1      -5.629  12.449  17.835  0.00  0.00    +0.000 OA
ATOM      4  C   UNL     1      -4.685  12.085  18.755  0.00  0.00    +0.000 A 
ATOM      5  C   UNL     1      -3.681  11.397  18.101  0.00  0.00    +0.000 A 
ENDROOT
BRANCH   4   6
ATOM      6  C   UNL     1      -4.861  12.647  20.097  0.00  0.00    +0.000 A 
ATOM      7  C   UNL     1      -3.813  13.403  20.672  0.00  0.00    +0.000 A 
ATOM      8  C   UNL     1      -3.807  13.799  22.028  0.00  0.00    +0.000 A 
ATOM      9  C   UNL     1      -4.921  13.432  22.795  0.00  0.00    +0.000 A 
ATOM     10  C   UNL     1      -5.997  12.737  22.238  0.00  0.00    +0.000 A 
ATOM     11  C   UNL     1      -5.967  12.349  20.902  0.00  0.00    +0.000 A 
BRANCH   8  12
ATOM     12  C   UNL     1      -2.571  14.470  22.624  0.00  0.00    +0.000 C 
ATOM     13  C   UNL     1      -1.785  13.465  23.477  0.00  0.00    +0.000 C 
ATOM     14  C   UNL     1      -1.621  15.118  21.604  0.00  0.00    +0.000 C 
ENDBRANCH   8  12
BRANCH   9  15
ATOM     15  O   UNL     1      -5.047  13.678  24.132  0.00  0.00    +0.000 OA
ATOM     16  H   UNL     1      -5.267  14.610  24.279  0.00  0.00    +0.000 HD
ENDBRANCH   9  15
BRANCH  11  17
ATOM     17  O   UNL     1      -7.030  11.632  20.411  0.00  0.00    +0.000 OA
ATOM     18  H   UNL     1      -7.294  12.020  19.557  0.00  0.00    +0.000 HD
ENDBRANCH  11  17
ENDBRANCH   4   6
BRANCH   1  20
ATOM     19  N   UNL     1      -4.277  10.356  14.582  0.00  0.00    +0.000 N 
ATOM     20  C   UNL     1      -3.432  10.722  15.611  0.00  0.00    +0.000 C 
ATOM     21  O   UNL     1      -2.225  10.482  15.588  0.00  0.00    +0.000 OA
ATOM     22  H   UNL     1      -5.217  10.735  14.598  0.00  0.00    +0.000 HD
BRANCH  19  24
ATOM     23  C   UNL     1      -4.586   9.969  12.178  0.00  0.00    +0.000 C 
ATOM     24  C   UNL     1      -3.749   9.703  13.410  0.00  0.00    +0.000 C 
ENDBRANCH  19  24
ENDBRANCH   1  20
BRANCH   5  25
ATOM     25  N   UNL     1      -2.496  10.935  18.682  0.00  0.00    +0.000 N 
ATOM     26  C   UNL     1      -1.350  11.700  18.578  0.00  0.00    +0.000 C 
ATOM     27  O   UNL     1      -1.308  12.755  17.944  0.00  0.00    +0.000 OA
ATOM     28  H   UNL     1      -2.626  10.408  19.543  0.00  0.00    +0.000 HD
BRANCH  26  29
ATOM     29  C   UNL     1      -0.157  11.225  19.431  0.00  0.00    +0.000 C 
ATOM     30  C   UNL     1      -0.286  11.605  20.914  0.00  0.00    +0.000 C 
ATOM     31  C   UNL     1       0.807  10.960  21.780  0.00  0.00    +0.000 C 
ATOM     32  C   UNL     1       0.901   9.434  21.616  0.00  0.00    +0.000 C 
ATOM     33  C   UNL     1       1.076   9.088  20.135  0.00  0.00    +0.000 C 
ATOM     34  C   UNL     1      -0.013   9.701  19.263  0.00  0.00    +0.000 C 
BRANCH  32  35
ATOM     35  C   UNL     1      -0.295   8.692  22.234  0.00  0.00    +0.000 C 
BRANCH  35  36
ATOM     36  O   UNL     1      -0.641   9.264  23.490  0.00  0.00    +0.000 OA
ATOM     37  H   UNL     1      -0.982   8.549  24.053  0.00  0.00    +0.000 HD
ENDBRANCH  35  36
ENDBRANCH  32  35
ENDBRANCH  26  29
ENDBRANCH   5  25
TORSDOF 10
ENDMDL
MODEL 4
REMARK VINA RESULT:      -6.4      4.270      7.484
REMARK  Name = 
REMARK  13 active torsions:
REMARK  status: ('A' for Active; 'I' for Inactive)
REMARK    1  A    between atoms: C_1  and  C_2
REMARK    2  A    between atoms: C_2  and  N_3
REMARK    3  A    between atoms: C_4  and  C_6
REMARK    4  A    between atoms: C_9  and  C_10
REMARK    5  A    between atoms: C_12  and  C_13
REMARK    6  A    between atoms: C_13  and  C_14
REMARK    7  A    between atoms: C_13  and  C_15
REMARK    8  A    between atoms: C_16  and  O_17
REMARK    9  A    between atoms: C_19  and  O_20
REMARK   10  A    between atoms: C_21  and  N_22
REMARK   11  A    between atoms: C_23  and  C_25
REMARK   12  A    between atoms: C_28  and  C_29
REMARK   13  A    between atoms: C_29  and  O_30
REMARK                            x       y       z     vdW  Elec       q    Type
REMARK                         _______ _______ _______ _____ _____    ______ ____
ROOT
ATOM      1  C   UNL     1       2.743   2.936  18.386  0.00  0.00    +0.000 A 
ATOM      2  N   UNL     1       3.438   1.847  17.988  0.00  0.00    +0.000 NA
ATOM      3  O   UNL     1       4.265   2.285  16.977  0.00  0.00    +0.000 OA
ATOM      4  C   UNL     1       4.119   3.631  16.791  0.00  0.00    +0.000 A 
ATOM      5  C   UNL     1       3.150   4.089  17.664  0.00  0.00    +0.000 A 
ENDROOT
BRANCH   4   6
ATOM      6  C   UNL     1       5.101   4.257  15.902  0.00  0.00    +0.000 A 
ATOM      7  C   UNL     1       5.047   3.987  14.515  0.00  0.00    +0.000 A 
ATOM      8  C   UNL     1       6.070   4.369  13.618  0.00  0.00    +0.000 A 
ATOM      9  C   UNL     1       7.154   5.071  14.163  0.00  0.00    +0.000 A 
ATOM     10  C   UNL     1       7.204   5.402  15.519  0.00  0.00    +0.000 A 
ATOM     11  C   UNL     1       6.188   5.000  16.379  0.00  0.00    +0.000 A 
BRANCH   8  12
ATOM     12  C   UNL     1       6.027   3.903  12.164  0.00  0.00    +0.000 C 
ATOM     13  C   UNL     1       7.086   2.819  11.926  0.00  0.00    +0.000 C 
ATOM     14  C   UNL     1       4.661   3.389  11.681  0.00  0.00    +0.000 C 
ENDBRANCH   8  12
BRANCH   9  15
ATOM     15  O   UNL     1       8.253   5.458  13.452  0.00  0.00    +0.000 OA
ATOM     16  H   UNL     1       7.990   5.756  12.569  0.00  0.00    +0.000 HD
ENDBRANCH   9  15
BRANCH  11  17
ATOM     17  O   UNL     1       6.302   5.315  17.711  0.00  0.00    +0.000 OA
ATOM     18  H   UNL     1       5.429   5.599  18.036  0.00  0.00    +0.000 HD
ENDBRANCH  11  17
ENDBRANCH   4   6
BRANCH   1  20
ATOM     19  N   UNL     1       2.060   3.118  20.678  0.00  0.00    +0.000 N 
ATOM     20  C   UNL     1       1.681   2.823  19.383  0.00  0.00    +0.000 C 
ATOM     21  O   UNL     1       0.538   2.468  19.096  0.00  0.00    +0.000 OA
ATOM     22  H   UNL     1       2.962   3.561  20.807  0.00  0.00    +0.000 HD
BRANCH  19  24
ATOM     23  C   UNL     1       1.274   1.826  22.611  0.00  0.00    +0.000 C 
ATOM     24  C   UNL     1       1.094   3.054  21.746  0.00  0.00    +0.000 C 
ENDBRANCH  19  24
ENDBRANCH   1  20
BRANCH   5  25
ATOM     25  N   UNL     1       2.775   5.425  17.839  0.00  0.00    +0.000 N 
ATOM     26  C   UNL     1       3.119   6.075  19.009  0.00  0.00    +0.000 C 
ATOM     27  O   UNL     1       3.700   5.513  19.938  0.00  0.00    +0.000 OA
ATOM     28  H   UNL     1       2.771   5.978  16.984  0.00  0.00    +0.000 HD
BRANCH  26  29
ATOM     29  C   UNL     1       2.862   7.595  19.022  0.00  0.00    +0.000 C 
ATOM     30  C   UNL     1       2.611   8.177  17.622  0.00  0.00    +0.000 C 
ATOM     31  C   UNL     1       2.166   9.647  17.671  0.00  0.00    +0.000 C 
ATOM     32  C   UNL     1       0.956   9.893  18.587  0.00  0.00    +0.000 C 
ATOM     33  C   UNL     1       1.253   9.345  19.986  0.00  0.00    +0.000 C 
ATOM     34  C   UNL     1       1.674   7.882  19.959  0.00  0.00    +0.000 C 
BRANCH  32  35
ATOM     35  C   UNL     1      -0.351   9.317  18.018  0.00  0.00    +0.000 C 
BRANCH  35  36
ATOM     36  O   UNL     1      -1.036  10.299  17.251  0.00  0.00    +0.000 OA
ATOM     37  H   UNL     1      -1.168   9.934  16.359  0.00  0.00    +0.000 HD
ENDBRANCH  35  36
ENDBRANCH  32  35
ENDBRANCH  26  29
ENDBRANCH   5  25
TORSDOF 10
ENDMDL
MODEL 5
REMARK VINA RESULT:      -6.4      3.532      8.767
REMARK  Name = 
REMARK  13 active torsions:
REMARK  status: ('A' for Active; 'I' for Inactive)
REMARK    1  A    between atoms: C_1  and  C_2
REMARK    2  A    between atoms: C_2  and  N_3
REMARK    3  A    between atoms: C_4  and  C_6
REMARK    4  A    between atoms: C_9  and  C_10
REMARK    5  A    between atoms: C_12  and  C_13
REMARK    6  A    between atoms: C_13  and  C_14
REMARK    7  A    between atoms: C_13  and  C_15
REMARK    8  A    between atoms: C_16  and  O_17
REMARK    9  A    between atoms: C_19  and  O_20
REMARK   10  A    between atoms: C_21  and  N_22
REMARK   11  A    between atoms: C_23  and  C_25
REMARK   12  A    between atoms: C_28  and  C_29
REMARK   13  A    between atoms: C_29  and  O_30
REMARK                            x       y       z     vdW  Elec       q    Type
REMARK                         _______ _______ _______ _____ _____    ______ ____
ROOT
ATOM      1  C   UNL     1       2.318   4.302  19.920  0.00  0.00    +0.000 A 
ATOM      2  N   UNL     1       1.312   4.436  20.813  0.00  0.00    +0.000 NA
ATOM      3  O   UNL     1       1.088   5.791  20.918  0.00  0.00    +0.000 OA
ATOM      4  C   UNL     1       1.909   6.477  20.066  0.00  0.00    +0.000 A 
ATOM      5  C   UNL     1       2.719   5.567  19.414  0.00  0.00    +0.000 A 
ENDROOT
BRANCH   4   6
ATOM      6  C   UNL     1       1.615   7.905  19.918  0.00  0.00    +0.000 A 
ATOM      7  C   UNL     1       0.917   8.577  20.950  0.00  0.00    +0.000 A 
ATOM      8  C   UNL     1       0.406   9.886  20.804  0.00  0.00    +0.000 A 
ATOM      9  C   UNL     1       0.650  10.523  19.580  0.00  0.00    +0.000 A 
ATOM     10  C   UNL     1       1.386   9.906  18.567  0.00  0.00    +0.000 A 
ATOM     11  C   UNL     1       1.865   8.610  18.735  0.00  0.00    +0.000 A 
BRANCH   8  12
ATOM     12  C   UNL     1      -0.477  10.488  21.895  0.00  0.00    +0.000 C 
ATOM     13  C   UNL     1      -0.270   9.736  23.216  0.00  0.00    +0.000 C 
ATOM     14  C   UNL     1      -0.287  11.994  22.136  0.00  0.00    +0.000 C 
ENDBRANCH   8  12
BRANCH   9  15
ATOM     15  O   UNL     1       0.174  11.760  19.251  0.00  0.00    +0.000 OA
ATOM     16  H   UNL     1       0.841  12.435  19.445  0.00  0.00    +0.000 HD
ENDBRANCH   9  15
BRANCH  11  17
ATOM     17  O   UNL     1       2.548   8.031  17.695  0.00  0.00    +0.000 OA
ATOM     18  H   UNL     1       2.188   7.137  17.550  0.00  0.00    +0.000 HD
ENDBRANCH  11  17
ENDBRANCH   4   6
BRANCH   1  20
ATOM     19  N   UNL     1       4.117   2.748  20.245  0.00  0.00    +0.000 N 
ATOM     20  C   UNL     1       2.900   2.991  19.638  0.00  0.00    +0.000 C 
ATOM     21  O   UNL     1       2.359   2.172  18.897  0.00  0.00    +0.000 OA
ATOM     22  H   UNL     1       4.411   3.396  20.967  0.00  0.00    +0.000 HD
BRANCH  19  24
ATOM     23  C   UNL     1       5.406   0.962  21.327  0.00  0.00    +0.000 C 
ATOM     24  C   UNL     1       4.781   1.484  20.051  0.00  0.00    +0.000 C 
ENDBRANCH  19  24
ENDBRANCH   1  20
BRANCH   5  25
ATOM     25  N   UNL     1       3.634   5.869  18.401  0.00  0.00    +0.000 N 
ATOM     26  C   UNL     1       4.987   5.748  18.655  0.00  0.00    +0.000 C 
ATOM     27  O   UNL     1       5.432   5.436  19.761  0.00  0.00    +0.000 OA
ATOM     28  H   UNL     1       3.316   5.639  17.462  0.00  0.00    +0.000 HD
BRANCH  26  29
ATOM     29  C   UNL     1       5.907   5.886  17.426  0.00  0.00    +0.000 C 
ATOM     30  C   UNL     1       6.865   4.698  17.253  0.00  0.00    +0.000 C 
ATOM     31  C   UNL     1       7.635   4.755  15.924  0.00  0.00    +0.000 C 
ATOM     32  C   UNL     1       6.724   4.903  14.693  0.00  0.00    +0.000 C 
ATOM     33  C   UNL     1       5.815   6.121  14.873  0.00  0.00    +0.000 C 
ATOM     34  C   UNL     1       5.027   6.070  16.176  0.00  0.00    +0.000 C 
BRANCH  32  35
ATOM     35  C   UNL     1       5.916   3.631  14.391  0.00  0.00    +0.000 C 
BRANCH  35  36
ATOM     36  O   UNL     1       6.200   3.161  13.079  0.00  0.00    +0.000 OA
ATOM     37  H   UNL     1       6.282   3.939  12.501  0.00  0.00    +0.000 HD
ENDBRANCH  35  36
ENDBRANCH  32  35
ENDBRANCH  26  29
ENDBRANCH   5  25
TORSDOF 10
ENDMDL
MODEL 6
REMARK VINA RESULT:      -6.3      4.467      7.579
REMARK  Name = 
REMARK  13 active torsions:
REMARK  status: ('A' for Active; 'I' for Inactive)
REMARK    1  A    between atoms: C_1  and  C_2
REMARK    2  A    between atoms: C_2  and  N_3
REMARK    3  A    between atoms: C_4  and  C_6
REMARK    4  A    between atoms: C_9  and  C_10
REMARK    5  A    between atoms: C_12  and  C_13
REMARK    6  A    between atoms: C_13  and  C_14
REMARK    7  A    between atoms: C_13  and  C_15
REMARK    8  A    between atoms: C_16  and  O_17
REMARK    9  A    between atoms: C_19  and  O_20
REMARK   10  A    between atoms: C_21  and  N_22
REMARK   11  A    between atoms: C_23  and  C_25
REMARK   12  A    between atoms: C_28  and  C_29
REMARK   13  A    between atoms: C_29  and  O_30
REMARK                            x       y       z     vdW  Elec       q    Type
REMARK                         _______ _______ _______ _____ _____    ______ ____
ROOT
ATOM      1  C   UNL     1       3.902   3.110  18.723  0.00  0.00    +0.000 A 
ATOM      2  N   UNL     1       4.292   1.955  18.139  0.00  0.00    +0.000 NA
ATOM      3  O   UNL     1       4.801   2.315  16.910  0.00  0.00    +0.000 OA
ATOM      4  C   UNL     1       4.771   3.673  16.761  0.00  0.00    +0.000 A 
ATOM      5  C   UNL     1       4.196   4.223  17.892  0.00  0.00    +0.000 A 
ENDROOT
BRANCH   4   6
ATOM      6  C   UNL     1       5.488   4.197  15.596  0.00  0.00    +0.000 A 
ATOM      7  C   UNL     1       5.132   3.742  14.304  0.00  0.00    +0.000 A 
ATOM      8  C   UNL     1       5.899   4.025  13.152  0.00  0.00    +0.000 A 
ATOM      9  C   UNL     1       7.039   4.819  13.336  0.00  0.00    +0.000 A 
ATOM     10  C   UNL     1       7.382   5.330  14.589  0.00  0.00    +0.000 A 
ATOM     11  C   UNL     1       6.613   5.023  15.708  0.00  0.00    +0.000 A 
BRANCH   8  12
ATOM     12  C   UNL     1       5.548   3.368  11.819  0.00  0.00    +0.000 C 
ATOM     13  C   UNL     1       6.137   1.952  11.758  0.00  0.00    +0.000 C 
ATOM     14  C   UNL     1       4.048   3.305  11.494  0.00  0.00    +0.000 C 
ENDBRANCH   8  12
BRANCH   9  15
ATOM     15  O   UNL     1       7.923   5.133  12.344  0.00  0.00    +0.000 OA
ATOM     16  H   UNL     1       8.324   5.997  12.517  0.00  0.00    +0.000 HD
ENDBRANCH   9  15
BRANCH  11  17
ATOM     17  O   UNL     1       7.013   5.515  16.925  0.00  0.00    +0.000 OA
ATOM     18  H   UNL     1       6.355   6.170  17.223  0.00  0.00    +0.000 HD
ENDBRANCH  11  17
ENDBRANCH   4   6
BRANCH   1  20
ATOM     19  N   UNL     1       1.895   3.528  19.967  0.00  0.00    +0.000 N 
ATOM     20  C   UNL     1       3.208   3.101  20.009  0.00  0.00    +0.000 C 
ATOM     21  O   UNL     1       3.757   2.762  21.056  0.00  0.00    +0.000 OA
ATOM     22  H   UNL     1       1.469   3.627  19.053  0.00  0.00    +0.000 HD
BRANCH  19  24
ATOM     23  C   UNL     1       1.246   2.277  21.977  0.00  0.00    +0.000 C 
ATOM     24  C   UNL     1       1.104   3.551  21.173  0.00  0.00    +0.000 C 
ENDBRANCH  19  24
ENDBRANCH   1  20
BRANCH   5  25
ATOM     25  N   UNL     1       4.065   5.589  18.157  0.00  0.00    +0.000 N 
ATOM     26  C   UNL     1       2.812   6.171  18.100  0.00  0.00    +0.000 C 
ATOM     27  O   UNL     1       1.803   5.548  17.769  0.00  0.00    +0.000 OA
ATOM     28  H   UNL     1       4.711   5.948  18.857  0.00  0.00    +0.000 HD
BRANCH  26  29
ATOM     29  C   UNL     1       2.731   7.619  18.620  0.00  0.00    +0.000 C 
ATOM     30  C   UNL     1       2.318   8.628  17.536  0.00  0.00    +0.000 C 
ATOM     31  C   UNL     1       2.053  10.028  18.110  0.00  0.00    +0.000 C 
ATOM     32  C   UNL     1       1.044  10.035  19.271  0.00  0.00    +0.000 C 
ATOM     33  C   UNL     1       1.505   9.057  20.355  0.00  0.00    +0.000 C 
ATOM     34  C   UNL     1       1.751   7.657  19.808  0.00  0.00    +0.000 C 
BRANCH  32  35
ATOM     35  C   UNL     1      -0.393   9.740  18.815  0.00  0.00    +0.000 C 
BRANCH  35  36
ATOM     36  O   UNL     1      -0.677  10.415  17.595  0.00  0.00    +0.000 OA
ATOM     37  H   UNL     1      -1.500  10.916  17.723  0.00  0.00    +0.000 HD
ENDBRANCH  35  36
ENDBRANCH  32  35
ENDBRANCH  26  29
ENDBRANCH   5  25
TORSDOF 10
ENDMDL
MODEL 7
REMARK VINA RESULT:      -6.3      3.660      8.432
REMARK  Name = 
REMARK  13 active torsions:
REMARK  status: ('A' for Active; 'I' for Inactive)
REMARK    1  A    between atoms: C_1  and  C_2
REMARK    2  A    between atoms: C_2  and  N_3
REMARK    3  A    between atoms: C_4  and  C_6
REMARK    4  A    between atoms: C_9  and  C_10
REMARK    5  A    between atoms: C_12  and  C_13
REMARK    6  A    between atoms: C_13  and  C_14
REMARK    7  A    between atoms: C_13  and  C_15
REMARK    8  A    between atoms: C_16  and  O_17
REMARK    9  A    between atoms: C_19  and  O_20
REMARK   10  A    between atoms: C_21  and  N_22
REMARK   11  A    between atoms: C_23  and  C_25
REMARK   12  A    between atoms: C_28  and  C_29
REMARK   13  A    between atoms: C_29  and  O_30
REMARK                            x       y       z     vdW  Elec       q    Type
REMARK                         _______ _______ _______ _____ _____    ______ ____
ROOT
ATOM      1  C   UNL     1      -0.062   9.957  21.513  0.00  0.00    +0.000 A 
ATOM      2  N   UNL     1      -0.600   9.350  22.594  0.00  0.00    +0.000 NA
ATOM      3  O   UNL     1      -1.284  10.336  23.271  0.00  0.00    +0.000 OA
ATOM      4  C   UNL     1      -1.211  11.520  22.590  0.00  0.00    +0.000 A 
ATOM      5  C   UNL     1      -0.432  11.327  21.464  0.00  0.00    +0.000 A 
ENDROOT
BRANCH   4   6
ATOM      6  C   UNL     1      -2.082  12.588  23.085  0.00  0.00    +0.000 A 
ATOM      7  C   UNL     1      -3.485  12.435  22.993  0.00  0.00    +0.000 A 
ATOM      8  C   UNL     1      -4.391  13.490  23.245  0.00  0.00    +0.000 A 
ATOM      9  C   UNL     1      -3.835  14.717  23.630  0.00  0.00    +0.000 A 
ATOM     10  C   UNL     1      -2.457  14.880  23.786  0.00  0.00    +0.000 A 
ATOM     11  C   UNL     1      -1.589  13.826  23.518  0.00  0.00    +0.000 A 
BRANCH   8  12
ATOM     12  C   UNL     1      -5.881  13.302  22.967  0.00  0.00    +0.000 C 
ATOM     13  C   UNL     1      -6.080  12.568  21.635  0.00  0.00    +0.000 C 
ATOM     14  C   UNL     1      -6.666  12.571  24.068  0.00  0.00    +0.000 C 
ENDBRANCH   8  12
BRANCH   9  15
ATOM     15  O   UNL     1      -4.560  15.853  23.849  0.00  0.00    +0.000 OA
ATOM     16  H   UNL     1      -5.039  16.103  23.045  0.00  0.00    +0.000 HD
ENDBRANCH   9  15
BRANCH  11  17
ATOM     17  O   UNL     1      -0.240  14.047  23.647  0.00  0.00    +0.000 OA
ATOM     18  H   UNL     1      -0.095  15.004  23.759  0.00  0.00    +0.000 HD
ENDBRANCH  11  17
ENDBRANCH   4   6
BRANCH   1  20
ATOM     19  N   UNL     1       1.245   7.995  21.072  0.00  0.00    +0.000 N 
ATOM     20  C   UNL     1       0.832   9.231  20.614  0.00  0.00    +0.000 C 
ATOM     21  O   UNL     1       1.209   9.693  19.538  0.00  0.00    +0.000 OA
ATOM     22  H   UNL     1       0.762   7.615  21.879  0.00  0.00    +0.000 HD
BRANCH  19  24
ATOM     23  C   UNL     1       1.901   5.700  20.498  0.00  0.00    +0.000 C 
ATOM     24  C   UNL     1       2.118   7.180  20.266  0.00  0.00    +0.000 C 
ENDBRANCH  19  24
ENDBRANCH   1  20
BRANCH   5  25
ATOM     25  N   UNL     1      -0.191  12.278  20.467  0.00  0.00    +0.000 N 
ATOM     26  C   UNL     1       0.904  13.113  20.582  0.00  0.00    +0.000 C 
ATOM     27  O   UNL     1       1.656  13.097  21.558  0.00  0.00    +0.000 OA
ATOM     28  H   UNL     1      -0.453  11.982  19.529  0.00  0.00    +0.000 HD
BRANCH  26  29
ATOM     29  C   UNL     1       1.216  13.971  19.340  0.00  0.00    +0.000 C 
ATOM     30  C   UNL     1       0.875  15.457  19.531  0.00  0.00    +0.000 C 
ATOM     31  C   UNL     1       1.369  16.325  18.363  0.00  0.00    +0.000 C 
ATOM     32  C   UNL     1       2.865  16.145  18.054  0.00  0.00    +0.000 C 
ATOM     33  C   UNL     1       3.165  14.662  17.822  0.00  0.00    +0.000 C 
ATOM     34  C   UNL     1       2.702  13.788  18.980  0.00  0.00    +0.000 C 
BRANCH  32  35
ATOM     35  C   UNL     1       3.775  16.746  19.137  0.00  0.00    +0.000 C 
BRANCH  35  36
ATOM     36  O   UNL     1       5.143  16.521  18.819  0.00  0.00    +0.000 OA
ATOM     37  H   UNL     1       5.676  17.082  19.407  0.00  0.00    +0.000 HD
ENDBRANCH  35  36
ENDBRANCH  32  35
ENDBRANCH  26  29
ENDBRANCH   5  25
TORSDOF 10
ENDMDL
MODEL 8
REMARK VINA RESULT:      -6.1      3.554      6.286
REMARK  Name = 
REMARK  13 active torsions:
REMARK  status: ('A' for Active; 'I' for Inactive)
REMARK    1  A    between atoms: C_1  and  C_2
REMARK    2  A    between atoms: C_2  and  N_3
REMARK    3  A    between atoms: C_4  and  C_6
REMARK    4  A    between atoms: C_9  and  C_10
REMARK    5  A    between atoms: C_12  and  C_13
REMARK    6  A    between atoms: C_13  and  C_14
REMARK    7  A    between atoms: C_13  and  C_15
REMARK    8  A    between atoms: C_16  and  O_17
REMARK    9  A    between atoms: C_19  and  O_20
REMARK   10  A    between atoms: C_21  and  N_22
REMARK   11  A    between atoms: C_23  and  C_25
REMARK   12  A    between atoms: C_28  and  C_29
REMARK   13  A    between atoms: C_29  and  O_30
REMARK                            x       y       z     vdW  Elec       q    Type
REMARK                         _______ _______ _______ _____ _____    ______ ____
ROOT
ATOM      1  C   UNL     1      -2.576  13.357  22.864  0.00  0.00    +0.000 A 
ATOM      2  N   UNL     1      -2.849  12.347  23.720  0.00  0.00    +0.000 NA
ATOM      3  O   UNL     1      -2.096  11.278  23.284  0.00  0.00    +0.000 OA
ATOM      4  C   UNL     1      -1.335  11.639  22.208  0.00  0.00    +0.000 A 
ATOM      5  C   UNL     1      -1.614  12.957  21.898  0.00  0.00    +0.000 A 
ENDROOT
BRANCH   4   6
ATOM      6  C   UNL     1      -0.327  10.662  21.791  0.00  0.00    +0.000 A 
ATOM      7  C   UNL     1      -0.018  10.531  20.416  0.00  0.00    +0.000 A 
ATOM      8  C   UNL     1       0.775   9.480  19.904  0.00  0.00    +0.000 A 
ATOM      9  C   UNL     1       1.283   8.565  20.835  0.00  0.00    +0.000 A 
ATOM     10  C   UNL     1       1.043   8.703  22.204  0.00  0.00    +0.000 A 
ATOM     11  C   UNL     1       0.247   9.741  22.676  0.00  0.00    +0.000 A 
BRANCH   8  12
ATOM     12  C   UNL     1       0.933   9.307  18.394  0.00  0.00    +0.000 C 
ATOM     13  C   UNL     1      -0.309   9.842  17.670  0.00  0.00    +0.000 C 
ATOM     14  C   UNL     1       2.189   9.952  17.788  0.00  0.00    +0.000 C 
ENDBRANCH   8  12
BRANCH   9  15
ATOM     15  O   UNL     1       2.011   7.458  20.504  0.00  0.00    +0.000 OA
ATOM     16  H   UNL     1       2.461   7.596  19.658  0.00  0.00    +0.000 HD
ENDBRANCH   9  15
BRANCH  11  17
ATOM     17  O   UNL     1       0.006   9.811  24.026  0.00  0.00    +0.000 OA
ATOM     18  H   UNL     1       0.121   8.921  24.406  0.00  0.00    +0.000 HD
ENDBRANCH  11  17
ENDBRANCH   4   6
BRANCH   1  20
ATOM     19  N   UNL     1      -4.346  14.645  23.843  0.00  0.00    +0.000 N 
ATOM     20  C   UNL     1      -3.286  14.630  22.958  0.00  0.00    +0.000 C 
ATOM     21  O   UNL     1      -2.980  15.611  22.281  0.00  0.00    +0.000 OA
ATOM     22  H   UNL     1      -4.428  13.861  24.480  0.00  0.00    +0.000 HD
BRANCH  19  24
ATOM     23  C   UNL     1      -4.444  16.817  24.982  0.00  0.00    +0.000 C 
ATOM     24  C   UNL     1      -5.115  15.850  24.030  0.00  0.00    +0.000 C 
ENDBRANCH  19  24
ENDBRANCH   1  20
BRANCH   5  25
ATOM     25  N   UNL     1      -0.976  13.716  20.913  0.00  0.00    +0.000 N 
ATOM     26  C   UNL     1       0.279  14.237  21.170  0.00  0.00    +0.000 C 
ATOM     27  O   UNL     1       0.845  14.108  22.256  0.00  0.00    +0.000 OA
ATOM     28  H   UNL     1      -1.169  13.419  19.959  0.00  0.00    +0.000 HD
BRANCH  26  29
ATOM     29  C   UNL     1       0.995  14.867  19.959  0.00  0.00    +0.000 C 
ATOM     30  C   UNL     1       1.864  16.077  20.333  0.00  0.00    +0.000 C 
ATOM     31  C   UNL     1       2.718  16.571  19.156  0.00  0.00    +0.000 C 
ATOM     32  C   UNL     1       3.573  15.466  18.512  0.00  0.00    +0.000 C 
ATOM     33  C   UNL     1       2.675  14.294  18.107  0.00  0.00    +0.000 C 
ATOM     34  C   UNL     1       1.837  13.777  19.268  0.00  0.00    +0.000 C 
BRANCH  32  35
ATOM     35  C   UNL     1       4.733  15.009  19.411  0.00  0.00    +0.000 C 
BRANCH  35  36
ATOM     36  O   UNL     1       5.924  14.854  18.648  0.00  0.00    +0.000 OA
ATOM     37  H   UNL     1       6.425  14.117  19.035  0.00  0.00    +0.000 HD
ENDBRANCH  35  36
ENDBRANCH  32  35
ENDBRANCH  26  29
ENDBRANCH   5  25
TORSDOF 10
ENDMDL
MODEL 9
REMARK VINA RESULT:      -6.1      3.158      4.631
REMARK  Name = 
REMARK  13 active torsions:
REMARK  status: ('A' for Active; 'I' for Inactive)
REMARK    1  A    between atoms: C_1  and  C_2
REMARK    2  A    between atoms: C_2  and  N_3
REMARK    3  A    between atoms: C_4  and  C_6
REMARK    4  A    between atoms: C_9  and  C_10
REMARK    5  A    between atoms: C_12  and  C_13
REMARK    6  A    between atoms: C_13  and  C_14
REMARK    7  A    between atoms: C_13  and  C_15
REMARK    8  A    between atoms: C_16  and  O_17
REMARK    9  A    between atoms: C_19  and  O_20
REMARK   10  A    between atoms: C_21  and  N_22
REMARK   11  A    between atoms: C_23  and  C_25
REMARK   12  A    between atoms: C_28  and  C_29
REMARK   13  A    between atoms: C_29  and  O_30
REMARK                            x       y       z     vdW  Elec       q    Type
REMARK                         _______ _______ _______ _____ _____    ______ ____
ROOT
ATOM      1  C   UNL     1      -0.219  10.764  21.644  0.00  0.00    +0.000 A 
ATOM      2  N   UNL     1      -0.612   9.535  22.046  0.00  0.00    +0.000 NA
ATOM      3  O   UNL     1      -0.059   8.654  21.141  0.00  0.00    +0.000 OA
ATOM      4  C   UNL     1       0.703   9.327  20.227  0.00  0.00    +0.000 A 
ATOM      5  C   UNL     1       0.624  10.679  20.504  0.00  0.00    +0.000 A 
ENDROOT
BRANCH   4   6
ATOM      6  C   UNL     1       1.523   8.488  19.350  0.00  0.00    +0.000 A 
ATOM      7  C   UNL     1       1.995   7.243  19.828  0.00  0.00    +0.000 A 
ATOM      8  C   UNL     1       2.958   6.471  19.140  0.00  0.00    +0.000 A 
ATOM      9  C   UNL     1       3.418   6.983  17.919  0.00  0.00    +0.000 A 
ATOM     10  C   UNL     1       2.926   8.180  17.395  0.00  0.00    +0.000 A 
ATOM     11  C   UNL     1       1.987   8.924  18.103  0.00  0.00    +0.000 A 
BRANCH   8  12
ATOM     12  C   UNL     1       3.544   5.220  19.791  0.00  0.00    +0.000 C 
ATOM     13  C   UNL     1       2.588   4.690  20.867  0.00  0.00    +0.000 C 
ATOM     14  C   UNL     1       3.895   4.080  18.822  0.00  0.00    +0.000 C 
ENDBRANCH   8  12
BRANCH   9  15
ATOM     15  O   UNL     1       4.391   6.399  17.160  0.00  0.00    +0.000 OA
ATOM     16  H   UNL     1       4.265   6.625  16.227  0.00  0.00    +0.000 HD
ENDBRANCH   9  15
BRANCH  11  17
ATOM     17  O   UNL     1       1.564  10.115  17.566  0.00  0.00    +0.000 OA
ATOM     18  H   UNL     1       1.881  10.167  16.646  0.00  0.00    +0.000 HD
ENDBRANCH  11  17
ENDBRANCH   4   6
BRANCH   1  20
ATOM     19  N   UNL     1      -1.980  11.856  22.851  0.00  0.00    +0.000 N 
ATOM     20  C   UNL     1      -0.712  11.964  22.314  0.00  0.00    +0.000 C 
ATOM     21  O   UNL     1      -0.058  13.005  22.377  0.00  0.00    +0.000 OA
ATOM     22  H   UNL     1      -2.381  10.926  22.907  0.00  0.00    +0.000 HD
BRANCH  19  24
ATOM     23  C   UNL     1      -3.885  12.612  24.201  0.00  0.00    +0.000 C 
ATOM     24  C   UNL     1      -2.568  12.972  23.548  0.00  0.00    +0.000 C 
ENDBRANCH  19  24
ENDBRANCH   1  20
BRANCH   5  25
ATOM     25  N   UNL     1       1.333  11.688  19.846  0.00  0.00    +0.000 N 
ATOM     26  C   UNL     1       0.672  12.498  18.941  0.00  0.00    +0.000 C 
ATOM     27  O   UNL     1      -0.513  12.336  18.643  0.00  0.00    +0.000 OA
ATOM     28  H   UNL     1       2.070  12.118  20.401  0.00  0.00    +0.000 HD
BRANCH  26  29
ATOM     29  C   UNL     1       1.471  13.714  18.434  0.00  0.00    +0.000 C 
ATOM     30  C   UNL     1       1.214  14.989  19.252  0.00  0.00    +0.000 C 
ATOM     31  C   UNL     1       2.158  16.136  18.860  0.00  0.00    +0.000 C 
ATOM     32  C   UNL     1       3.646  15.751  18.906  0.00  0.00    +0.000 C 
ATOM     33  C   UNL     1       3.880  14.507  18.045  0.00  0.00    +0.000 C 
ATOM     34  C   UNL     1       2.968  13.351  18.435  0.00  0.00    +0.000 C 
BRANCH  32  35
ATOM     35  C   UNL     1       4.168  15.556  20.339  0.00  0.00    +0.000 C 
BRANCH  35  36
ATOM     36  O   UNL     1       5.490  15.032  20.321  0.00  0.00    +0.000 OA
ATOM     37  H   UNL     1       5.723  14.794  21.234  0.00  0.00    +0.000 HD
ENDBRANCH  35  36
ENDBRANCH  32  35
ENDBRANCH  26  29
ENDBRANCH   5  25
TORSDOF 10
ENDMDL
