MODEL 1
REMARK VINA RESULT:      -7.6      0.000      0.000
REMARK  Name = 
REMARK  8 active torsions:
REMARK  status: ('A' for Active; 'I' for Inactive)
REMARK    1  A    between atoms: C_1  and  C_2
REMARK    2  A    between atoms: C_2  and  N_3
REMARK    3  A    between atoms: C_4  and  O_6
REMARK    4  A    between atoms: O_6  and  N_7
REMARK    5  A    between atoms: C_8  and  C_9
REMARK    6  A    between atoms: C_8  and  C_10
REMARK    7  A    between atoms: C_12  and  C_13
REMARK    8  A    between atoms: C_21  and  C_22
REMARK                            x       y       z     vdW  Elec       q    Type
REMARK                         _______ _______ _______ _____ _____    ______ ____
ROOT
ATOM      1  C   UNL     1       5.072   5.658  17.208  0.00  0.00    +0.000 A 
ATOM      2  S   UNL     1       4.633   7.300  17.439  0.00  0.00    +0.000 S 
ATOM      3  C   UNL     1       3.200   6.827  18.262  0.00  0.00    +0.000 A 
ATOM      4  N   UNL     1       3.056   5.528  18.396  0.00  0.00    +0.000 NA
ATOM      5  C   UNL     1       4.097   4.849  17.784  0.00  0.00    +0.000 A 
ATOM      6  C   UNL     1       4.045   3.362  17.820  0.00  0.00    +0.000 C 
ENDROOT
BRANCH   3   7
ATOM      7  C   UNL     1       2.244   7.814  18.791  0.00  0.00    +0.000 A 
ATOM      8  C   UNL     1       1.826   7.820  20.133  0.00  0.00    +0.000 A 
ATOM      9  C   UNL     1       0.943   8.797  20.603  0.00  0.00    +0.000 A 
ATOM     10  C   UNL     1       0.469   9.780  19.738  0.00  0.00    +0.000 A 
ATOM     11 CL   UNL     1      -0.607  10.986  20.323  0.00  0.00    +0.000 Cl
ATOM     12  C   UNL     1       0.870   9.795  18.405  0.00  0.00    +0.000 A 
ATOM     13  C   UNL     1       1.757   8.819  17.937  0.00  0.00    +0.000 A 
ENDBRANCH   3   7
BRANCH   1  15
ATOM     14  N   UNL     1       6.349   5.564  15.242  0.00  0.00    +0.000 NA
ATOM     15  C   UNL     1       6.294   5.274  16.508  0.00  0.00    +0.000 C 
ATOM     16  C   UNL     1       7.405   4.573  17.267  0.00  0.00    +0.000 C 
BRANCH  14  17
ATOM     17  O   UNL     1       7.550   5.154  14.620  0.00  0.00    +0.000 OA
BRANCH  17  19
ATOM     18  N   UNL     1       6.434   3.694  13.223  0.00  0.00    +0.000 N 
ATOM     19  C   UNL     1       7.326   4.730  13.316  0.00  0.00    +0.000 C 
ATOM     20  O   UNL     1       7.886   5.248  12.362  0.00  0.00    +0.000 OA
ATOM     21  H   UNL     1       6.108   3.371  14.124  0.00  0.00    +0.000 HD
BRANCH  18  23
ATOM     22  C   UNL     1       4.559   3.224  11.718  0.00  0.00    +0.000 C 
ATOM     23  C   UNL     1       6.040   3.049  11.998  0.00  0.00    +0.000 C 
ENDBRANCH  18  23
ENDBRANCH  17  19
ENDBRANCH  14  17
ENDBRANCH   1  15
TORSDOF 5
ENDMDL
MODEL 2
REMARK VINA RESULT:      -7.6      1.258      1.741
REMARK  Name = 
REMARK  8 active torsions:
REMARK  status: ('A' for Active; 'I' for Inactive)
REMARK    1  A    between atoms: C_1  and  C_2
REMARK    2  A    between atoms: C_2  and  N_3
REMARK    3  A    between atoms: C_4  and  O_6
REMARK    4  A    between atoms: O_6  and  N_7
REMARK    5  A    between atoms: C_8  and  C_9
REMARK    6  A    between atoms: C_8  and  C_10
REMARK    7  A    between atoms: C_12  and  C_13
REMARK    8  A    between atoms: C_21  and  C_22
REMARK                            x       y       z     vdW  Elec       q    Type
REMARK                         _______ _______ _______ _____ _____    ______ ____
ROOT
ATOM      1  C   UNL     1       4.813   5.121  16.504  0.00  0.00    +0.000 A 
ATOM      2  S   UNL     1       4.504   6.786  16.780  0.00  0.00    +0.000 S 
ATOM      3  C   UNL     1       3.261   6.394  17.900  0.00  0.00    +0.000 A 
ATOM      4  N   UNL     1       3.093   5.105  18.095  0.00  0.00    +0.000 NA
ATOM      5  C   UNL     1       3.950   4.369  17.293  0.00  0.00    +0.000 A 
ATOM      6  C   UNL     1       3.843   2.886  17.377  0.00  0.00    +0.000 C 
ENDROOT
BRANCH   3   7
ATOM      7  C   UNL     1       2.482   7.433  18.595  0.00  0.00    +0.000 A 
ATOM      8  C   UNL     1       1.998   8.580  17.942  0.00  0.00    +0.000 A 
ATOM      9  C   UNL     1       1.231   9.525  18.631  0.00  0.00    +0.000 A 
ATOM     10  C   UNL     1       0.939   9.334  19.980  0.00  0.00    +0.000 A 
ATOM     11 CL   UNL     1      -0.013  10.493  20.819  0.00  0.00    +0.000 Cl
ATOM     12  C   UNL     1       1.407   8.206  20.646  0.00  0.00    +0.000 A 
ATOM     13  C   UNL     1       2.171   7.259  19.954  0.00  0.00    +0.000 A 
ENDBRANCH   3   7
BRANCH   1  15
ATOM     14  N   UNL     1       5.462   4.488  14.340  0.00  0.00    +0.000 NA
ATOM     15  C   UNL     1       5.840   4.669  15.570  0.00  0.00    +0.000 C 
ATOM     16  C   UNL     1       7.255   4.435  16.066  0.00  0.00    +0.000 C 
BRANCH  14  17
ATOM     17  O   UNL     1       6.498   4.037  13.490  0.00  0.00    +0.000 OA
BRANCH  17  19
ATOM     18  N   UNL     1       4.690   3.613  12.121  0.00  0.00    +0.000 N 
ATOM     19  C   UNL     1       5.994   3.316  12.415  0.00  0.00    +0.000 C 
ATOM     20  O   UNL     1       6.671   2.499  11.810  0.00  0.00    +0.000 OA
ATOM     21  H   UNL     1       4.283   4.284  12.759  0.00  0.00    +0.000 HD
BRANCH  18  23
ATOM     22  C   UNL     1       3.278   4.028  10.161  0.00  0.00    +0.000 C 
ATOM     23  C   UNL     1       3.917   2.998  11.074  0.00  0.00    +0.000 C 
ENDBRANCH  18  23
ENDBRANCH  17  19
ENDBRANCH  14  17
ENDBRANCH   1  15
TORSDOF 5
ENDMDL
MODEL 3
REMARK VINA RESULT:      -7.4      1.529      1.958
REMARK  Name = 
REMARK  8 active torsions:
REMARK  status: ('A' for Active; 'I' for Inactive)
REMARK    1  A    between atoms: C_1  and  C_2
REMARK    2  A    between atoms: C_2  and  N_3
REMARK    3  A    between atoms: C_4  and  O_6
REMARK    4  A    between atoms: O_6  and  N_7
REMARK    5  A    between atoms: C_8  and  C_9
REMARK    6  A    between atoms: C_8  and  C_10
REMARK    7  A    between atoms: C_12  and  C_13
REMARK    8  A    between atoms: C_21  and  C_22
REMARK                            x       y       z     vdW  Elec       q    Type
REMARK                         _______ _______ _______ _____ _____    ______ ____
ROOT
ATOM      1  C   UNL     1       4.750   5.108  16.453  0.00  0.00    +0.000 A 
ATOM      2  S   UNL     1       4.441   6.776  16.705  0.00  0.00    +0.000 S 
ATOM      3  C   UNL     1       3.251   6.402  17.887  0.00  0.00    +0.000 A 
ATOM      4  N   UNL     1       3.101   5.117  18.118  0.00  0.00    +0.000 NA
ATOM      5  C   UNL     1       3.927   4.368  17.296  0.00  0.00    +0.000 A 
ATOM      6  C   UNL     1       3.835   2.887  17.418  0.00  0.00    +0.000 C 
ENDROOT
BRANCH   3   7
ATOM      7  C   UNL     1       2.495   7.452  18.591  0.00  0.00    +0.000 A 
ATOM      8  C   UNL     1       1.994   8.592  17.939  0.00  0.00    +0.000 A 
ATOM      9  C   UNL     1       1.250   9.547  18.638  0.00  0.00    +0.000 A 
ATOM     10  C   UNL     1       0.998   9.374  19.997  0.00  0.00    +0.000 A 
ATOM     11 CL   UNL     1       0.074  10.546  20.850  0.00  0.00    +0.000 Cl
ATOM     12  C   UNL     1       1.484   8.253  20.664  0.00  0.00    +0.000 A 
ATOM     13  C   UNL     1       2.224   7.296  19.962  0.00  0.00    +0.000 A 
ENDBRANCH   3   7
BRANCH   1  15
ATOM     14  N   UNL     1       5.288   4.316  14.311  0.00  0.00    +0.000 NA
ATOM     15  C   UNL     1       5.739   4.641  15.486  0.00  0.00    +0.000 C 
ATOM     16  C   UNL     1       7.200   4.557  15.887  0.00  0.00    +0.000 C 
BRANCH  14  17
ATOM     17  O   UNL     1       6.292   3.859  13.426  0.00  0.00    +0.000 OA
BRANCH  17  19
ATOM     18  N   UNL     1       6.490   2.079  11.969  0.00  0.00    +0.000 N 
ATOM     19  C   UNL     1       5.745   3.163  12.355  0.00  0.00    +0.000 C 
ATOM     20  O   UNL     1       4.701   3.509  11.824  0.00  0.00    +0.000 OA
ATOM     21  H   UNL     1       7.344   1.978  12.500  0.00  0.00    +0.000 HD
BRANCH  18  23
ATOM     22  C   UNL     1       6.143  -0.254  11.306  0.00  0.00    +0.000 C 
ATOM     23  C   UNL     1       6.167   1.201  10.876  0.00  0.00    +0.000 C 
ENDBRANCH  18  23
ENDBRANCH  17  19
ENDBRANCH  14  17
ENDBRANCH   1  15
TORSDOF 5
ENDMDL
MODEL 4
REMARK VINA RESULT:      -7.2      0.361      1.185
REMARK  Name = 
REMARK  8 active torsions:
REMARK  status: ('A' for Active; 'I' for Inactive)
REMARK    1  A    between atoms: C_1  and  C_2
REMARK    2  A    between atoms: C_2  and  N_3
REMARK    3  A    between atoms: C_4  and  O_6
REMARK    4  A    between atoms: O_6  and  N_7
REMARK    5  A    between atoms: C_8  and  C_9
REMARK    6  A    between atoms: C_8  and  C_10
REMARK    7  A    between atoms: C_12  and  C_13
REMARK    8  A    between atoms: C_21  and  C_22
REMARK                            x       y       z     vdW  Elec       q    Type
REMARK                         _______ _______ _______ _____ _____    ______ ____
ROOT
ATOM      1  C   UNL     1       5.113   5.652  17.198  0.00  0.00    +0.000 A 
ATOM      2  S   UNL     1       4.606   7.291  17.244  0.00  0.00    +0.000 S 
ATOM      3  C   UNL     1       3.266   6.875  18.235  0.00  0.00    +0.000 A 
ATOM      4  N   UNL     1       3.200   5.600  18.551  0.00  0.00    +0.000 NA
ATOM      5  C   UNL     1       4.227   4.889  17.952  0.00  0.00    +0.000 A 
ATOM      6  C   UNL     1       4.256   3.420  18.188  0.00  0.00    +0.000 C 
ENDROOT
BRANCH   3   7
ATOM      7  C   UNL     1       2.300   7.883  18.704  0.00  0.00    +0.000 A 
ATOM      8  C   UNL     1       1.749   8.857  17.853  0.00  0.00    +0.000 A 
ATOM      9  C   UNL     1       0.807   9.774  18.331  0.00  0.00    +0.000 A 
ATOM     10  C   UNL     1       0.406   9.727  19.664  0.00  0.00    +0.000 A 
ATOM     11 CL   UNL     1      -0.759  10.849  20.244  0.00  0.00    +0.000 Cl
ATOM     12  C   UNL     1       0.938   8.771  20.524  0.00  0.00    +0.000 A 
ATOM     13  C   UNL     1       1.876   7.852  20.043  0.00  0.00    +0.000 A 
ENDBRANCH   3   7
BRANCH   1  15
ATOM     14  N   UNL     1       6.297   5.469  15.181  0.00  0.00    +0.000 NA
ATOM     15  C   UNL     1       6.298   5.228  16.458  0.00  0.00    +0.000 C 
ATOM     16  C   UNL     1       7.437   4.546  17.193  0.00  0.00    +0.000 C 
BRANCH  14  17
ATOM     17  O   UNL     1       7.465   5.022  14.521  0.00  0.00    +0.000 OA
BRANCH  17  19
ATOM     18  N   UNL     1       6.275   3.588  13.159  0.00  0.00    +0.000 N 
ATOM     19  C   UNL     1       7.188   4.608  13.225  0.00  0.00    +0.000 C 
ATOM     20  O   UNL     1       7.724   5.120  12.254  0.00  0.00    +0.000 OA
ATOM     21  H   UNL     1       5.975   3.267  14.070  0.00  0.00    +0.000 HD
BRANCH  18  23
ATOM     22  C   UNL     1       6.846   1.967  11.413  0.00  0.00    +0.000 C 
ATOM     23  C   UNL     1       5.826   2.956  11.947  0.00  0.00    +0.000 C 
ENDBRANCH  18  23
ENDBRANCH  17  19
ENDBRANCH  14  17
ENDBRANCH   1  15
TORSDOF 5
ENDMDL
MODEL 5
REMARK VINA RESULT:      -7.1      5.526      8.708
REMARK  Name = 
REMARK  8 active torsions:
REMARK  status: ('A' for Active; 'I' for Inactive)
REMARK    1  A    between atoms: C_1  and  C_2
REMARK    2  A    between atoms: C_2  and  N_3
REMARK    3  A    between atoms: C_4  and  O_6
REMARK    4  A    between atoms: O_6  and  N_7
REMARK    5  A    between atoms: C_8  and  C_9
REMARK    6  A    between atoms: C_8  and  C_10
REMARK    7  A    between atoms: C_12  and  C_13
REMARK    8  A    between atoms: C_21  and  C_22
REMARK                            x       y       z     vdW  Elec       q    Type
REMARK                         _______ _______ _______ _____ _____    ______ ____
ROOT
ATOM      1  C   UNL     1       1.103   9.370  19.283  0.00  0.00    +0.000 A 
ATOM      2  S   UNL     1       1.833   8.855  17.818  0.00  0.00    +0.000 S 
ATOM      3  C   UNL     1       2.531   7.501  18.614  0.00  0.00    +0.000 A 
ATOM      4  N   UNL     1       2.224   7.403  19.888  0.00  0.00    +0.000 NA
ATOM      5  C   UNL     1       1.433   8.468  20.289  0.00  0.00    +0.000 A 
ATOM      6  C   UNL     1       1.040   8.513  21.724  0.00  0.00    +0.000 C 
ENDROOT
BRANCH   3   7
ATOM      7  C   UNL     1       3.375   6.528  17.900  0.00  0.00    +0.000 A 
ATOM      8  C   UNL     1       3.117   5.146  17.916  0.00  0.00    +0.000 A 
ATOM      9  C   UNL     1       3.923   4.260  17.195  0.00  0.00    +0.000 A 
ATOM     10  C   UNL     1       4.995   4.745  16.449  0.00  0.00    +0.000 A 
ATOM     11 CL   UNL     1       5.977   3.653  15.556  0.00  0.00    +0.000 Cl
ATOM     12  C   UNL     1       5.269   6.109  16.418  0.00  0.00    +0.000 A 
ATOM     13  C   UNL     1       4.459   6.995  17.137  0.00  0.00    +0.000 A 
ENDBRANCH   3   7
BRANCH   1  15
ATOM     14  N   UNL     1      -0.982  10.431  19.099  0.00  0.00    +0.000 NA
ATOM     15  C   UNL     1       0.284  10.577  19.358  0.00  0.00    +0.000 C 
ATOM     16  C   UNL     1       0.930  11.901  19.719  0.00  0.00    +0.000 C 
BRANCH  14  17
ATOM     17  O   UNL     1      -1.716  11.637  19.174  0.00  0.00    +0.000 OA
BRANCH  17  19
ATOM     18  N   UNL     1      -2.572  11.149  17.087  0.00  0.00    +0.000 N 
ATOM     19  C   UNL     1      -2.836  11.600  18.353  0.00  0.00    +0.000 C 
ATOM     20  O   UNL     1      -3.939  11.946  18.748  0.00  0.00    +0.000 OA
ATOM     21  H   UNL     1      -1.592  10.950  16.935  0.00  0.00    +0.000 HD
BRANCH  18  23
ATOM     22  C   UNL     1      -2.998  10.259  14.844  0.00  0.00    +0.000 C 
ATOM     23  C   UNL     1      -3.543  11.033  16.031  0.00  0.00    +0.000 C 
ENDBRANCH  18  23
ENDBRANCH  17  19
ENDBRANCH  14  17
ENDBRANCH   1  15
TORSDOF 5
ENDMDL
MODEL 6
REMARK VINA RESULT:      -7.0      1.449      1.924
REMARK  Name = 
REMARK  8 active torsions:
REMARK  status: ('A' for Active; 'I' for Inactive)
REMARK    1  A    between atoms: C_1  and  C_2
REMARK    2  A    between atoms: C_2  and  N_3
REMARK    3  A    between atoms: C_4  and  O_6
REMARK    4  A    between atoms: O_6  and  N_7
REMARK    5  A    between atoms: C_8  and  C_9
REMARK    6  A    between atoms: C_8  and  C_10
REMARK    7  A    between atoms: C_12  and  C_13
REMARK    8  A    between atoms: C_21  and  C_22
REMARK                            x       y       z     vdW  Elec       q    Type
REMARK                         _______ _______ _______ _____ _____    ______ ____
ROOT
ATOM      1  C   UNL     1       3.637   5.326  18.388  0.00  0.00    +0.000 A 
ATOM      2  S   UNL     1       3.349   6.940  17.881  0.00  0.00    +0.000 S 
ATOM      3  C   UNL     1       2.315   7.205  19.228  0.00  0.00    +0.000 A 
ATOM      4  N   UNL     1       2.203   6.174  20.036  0.00  0.00    +0.000 NA
ATOM      5  C   UNL     1       2.929   5.093  19.562  0.00  0.00    +0.000 A 
ATOM      6  C   UNL     1       2.862   3.836  20.357  0.00  0.00    +0.000 C 
ENDROOT
BRANCH   3   7
ATOM      7  C   UNL     1       1.644   8.496  19.453  0.00  0.00    +0.000 A 
ATOM      8  C   UNL     1       1.111   8.865  20.700  0.00  0.00    +0.000 A 
ATOM      9  C   UNL     1       0.514  10.116  20.881  0.00  0.00    +0.000 A 
ATOM     10  C   UNL     1       0.443  11.013  19.817  0.00  0.00    +0.000 A 
ATOM     11 CL   UNL     1      -0.283  12.554  20.047  0.00  0.00    +0.000 Cl
ATOM     12  C   UNL     1       0.965  10.669  18.574  0.00  0.00    +0.000 A 
ATOM     13  C   UNL     1       1.566   9.419  18.396  0.00  0.00    +0.000 A 
ENDBRANCH   3   7
BRANCH   1  15
ATOM     14  N   UNL     1       5.673   4.884  17.309  0.00  0.00    +0.000 NA
ATOM     15  C   UNL     1       4.504   4.422  17.637  0.00  0.00    +0.000 C 
ATOM     16  C   UNL     1       4.011   3.030  17.286  0.00  0.00    +0.000 C 
BRANCH  14  17
ATOM     17  O   UNL     1       6.457   3.966  16.573  0.00  0.00    +0.000 OA
BRANCH  17  19
ATOM     18  N   UNL     1       6.295   3.632  14.295  0.00  0.00    +0.000 N 
ATOM     19  C   UNL     1       6.741   4.448  15.301  0.00  0.00    +0.000 C 
ATOM     20  O   UNL     1       7.337   5.500  15.126  0.00  0.00    +0.000 OA
ATOM     21  H   UNL     1       5.862   2.784  14.635  0.00  0.00    +0.000 HD
BRANCH  18  23
ATOM     22  C   UNL     1       5.410   3.194  12.052  0.00  0.00    +0.000 C 
ATOM     23  C   UNL     1       6.476   3.879  12.888  0.00  0.00    +0.000 C 
ENDBRANCH  18  23
ENDBRANCH  17  19
ENDBRANCH  14  17
ENDBRANCH   1  15
TORSDOF 5
ENDMDL
MODEL 7
REMARK VINA RESULT:      -7.0      1.936      2.900
REMARK  Name = 
REMARK  8 active torsions:
REMARK  status: ('A' for Active; 'I' for Inactive)
REMARK    1  A    between atoms: C_1  and  C_2
REMARK    2  A    between atoms: C_2  and  N_3
REMARK    3  A    between atoms: C_4  and  O_6
REMARK    4  A    between atoms: O_6  and  N_7
REMARK    5  A    between atoms: C_8  and  C_9
REMARK    6  A    between atoms: C_8  and  C_10
REMARK    7  A    between atoms: C_12  and  C_13
REMARK    8  A    between atoms: C_21  and  C_22
REMARK                            x       y       z     vdW  Elec       q    Type
REMARK                         _______ _______ _______ _____ _____    ______ ____
ROOT
ATOM      1  C   UNL     1       2.812   5.260  18.877  0.00  0.00    +0.000 A 
ATOM      2  S   UNL     1       2.574   6.925  18.538  0.00  0.00    +0.000 S 
ATOM      3  C   UNL     1       1.815   7.152  20.063  0.00  0.00    +0.000 A 
ATOM      4  N   UNL     1       1.761   6.070  20.808  0.00  0.00    +0.000 NA
ATOM      5  C   UNL     1       2.302   4.983  20.141  0.00  0.00    +0.000 A 
ATOM      6  C   UNL     1       2.272   3.674  20.850  0.00  0.00    +0.000 C 
ENDROOT
BRANCH   3   7
ATOM      7  C   UNL     1       1.301   8.464  20.490  0.00  0.00    +0.000 A 
ATOM      8  C   UNL     1       1.069   9.517  19.588  0.00  0.00    +0.000 A 
ATOM      9  C   UNL     1       0.546  10.736  20.031  0.00  0.00    +0.000 A 
ATOM     10  C   UNL     1       0.248  10.916  21.380  0.00  0.00    +0.000 A 
ATOM     11 CL   UNL     1      -0.404  12.412  21.918  0.00  0.00    +0.000 Cl
ATOM     12  C   UNL     1       0.469   9.887  22.291  0.00  0.00    +0.000 A 
ATOM     13  C   UNL     1       0.988   8.667  21.846  0.00  0.00    +0.000 A 
ENDBRANCH   3   7
BRANCH   1  15
ATOM     14  N   UNL     1       4.689   4.638  17.614  0.00  0.00    +0.000 NA
ATOM     15  C   UNL     1       3.458   4.361  17.925  0.00  0.00    +0.000 C 
ATOM     16  C   UNL     1       2.684   3.184  17.360  0.00  0.00    +0.000 C 
BRANCH  14  17
ATOM     17  O   UNL     1       5.252   3.739  16.678  0.00  0.00    +0.000 OA
BRANCH  17  19
ATOM     18  N   UNL     1       6.109   3.546  14.544  0.00  0.00    +0.000 N 
ATOM     19  C   UNL     1       5.576   4.382  15.490  0.00  0.00    +0.000 C 
ATOM     20  O   UNL     1       5.395   5.579  15.332  0.00  0.00    +0.000 OA
ATOM     21  H   UNL     1       6.221   2.597  14.873  0.00  0.00    +0.000 HD
BRANCH  18  23
ATOM     22  C   UNL     1       5.766   3.267  12.134  0.00  0.00    +0.000 C 
ATOM     23  C   UNL     1       6.552   3.953  13.236  0.00  0.00    +0.000 C 
ENDBRANCH  18  23
ENDBRANCH  17  19
ENDBRANCH  14  17
ENDBRANCH   1  15
TORSDOF 5
ENDMDL
MODEL 8
REMARK VINA RESULT:      -6.9      3.174      4.202
REMARK  Name = 
REMARK  8 active torsions:
REMARK  status: ('A' for Active; 'I' for Inactive)
REMARK    1  A    between atoms: C_1  and  C_2
REMARK    2  A    between atoms: C_2  and  N_3
REMARK    3  A    between atoms: C_4  and  O_6
REMARK    4  A    between atoms: O_6  and  N_7
REMARK    5  A    between atoms: C_8  and  C_9
REMARK    6  A    between atoms: C_8  and  C_10
REMARK    7  A    between atoms: C_12  and  C_13
REMARK    8  A    between atoms: C_21  and  C_22
REMARK                            x       y       z     vdW  Elec       q    Type
REMARK                         _______ _______ _______ _____ _____    ______ ____
ROOT
ATOM      1  C   UNL     1       2.897   5.693  19.558  0.00  0.00    +0.000 A 
ATOM      2  S   UNL     1       2.605   7.358  19.269  0.00  0.00    +0.000 S 
ATOM      3  C   UNL     1       1.452   7.403  20.542  0.00  0.00    +0.000 A 
ATOM      4  N   UNL     1       1.302   6.262  21.178  0.00  0.00    +0.000 NA
ATOM      5  C   UNL     1       2.098   5.276  20.618  0.00  0.00    +0.000 A 
ATOM      6  C   UNL     1       2.002   3.914  21.212  0.00  0.00    +0.000 C 
ENDROOT
BRANCH   3   7
ATOM      7  C   UNL     1       0.725   8.634  20.892  0.00  0.00    +0.000 A 
ATOM      8  C   UNL     1       0.203   8.866  22.177  0.00  0.00    +0.000 A 
ATOM      9  C   UNL     1      -0.449  10.066  22.478  0.00  0.00    +0.000 A 
ATOM     10  C   UNL     1      -0.587  11.047  21.499  0.00  0.00    +0.000 A 
ATOM     11 CL   UNL     1      -1.380  12.524  21.877  0.00  0.00    +0.000 Cl
ATOM     12  C   UNL     1      -0.078  10.840  20.221  0.00  0.00    +0.000 A 
ATOM     13  C   UNL     1       0.579   9.641  19.922  0.00  0.00    +0.000 A 
ENDBRANCH   3   7
BRANCH   1  15
ATOM     14  N   UNL     1       5.058   4.836  19.240  0.00  0.00    +0.000 NA
ATOM     15  C   UNL     1       3.852   4.924  18.764  0.00  0.00    +0.000 C 
ATOM     16  C   UNL     1       3.404   4.288  17.461  0.00  0.00    +0.000 C 
BRANCH  14  17
ATOM     17  O   UNL     1       5.936   4.092  18.419  0.00  0.00    +0.000 OA
BRANCH  17  19
ATOM     18  N   UNL     1       7.154   6.027  18.733  0.00  0.00    +0.000 N 
ATOM     19  C   UNL     1       7.044   4.844  18.050  0.00  0.00    +0.000 C 
ATOM     20  O   UNL     1       7.828   4.465  17.194  0.00  0.00    +0.000 OA
ATOM     21  H   UNL     1       6.387   6.187  19.373  0.00  0.00    +0.000 HD
BRANCH  18  23
ATOM     22  C   UNL     1       7.761   8.098  17.572  0.00  0.00    +0.000 C 
ATOM     23  C   UNL     1       8.191   7.005  18.533  0.00  0.00    +0.000 C 
ENDBRANCH  18  23
ENDBRANCH  17  19
ENDBRANCH  14  17
ENDBRANCH   1  15
TORSDOF 5
ENDMDL
MODEL 9
REMARK VINA RESULT:      -6.9      1.904      2.652
REMARK  Name = 
REMARK  8 active torsions:
REMARK  status: ('A' for Active; 'I' for Inactive)
REMARK    1  A    between atoms: C_1  and  C_2
REMARK    2  A    between atoms: C_2  and  N_3
REMARK    3  A    between atoms: C_4  and  O_6
REMARK    4  A    between atoms: O_6  and  N_7
REMARK    5  A    between atoms: C_8  and  C_9
REMARK    6  A    between atoms: C_8  and  C_10
REMARK    7  A    between atoms: C_12  and  C_13
REMARK    8  A    between atoms: C_21  and  C_22
REMARK                            x       y       z     vdW  Elec       q    Type
REMARK                         _______ _______ _______ _____ _____    ______ ____
ROOT
ATOM      1  C   UNL     1       2.869   5.221  18.856  0.00  0.00    +0.000 A 
ATOM      2  S   UNL     1       2.621   6.886  18.525  0.00  0.00    +0.000 S 
ATOM      3  C   UNL     1       1.841   7.096  20.042  0.00  0.00    +0.000 A 
ATOM      4  N   UNL     1       1.788   6.009  20.779  0.00  0.00    +0.000 NA
ATOM      5  C   UNL     1       2.347   4.931  20.112  0.00  0.00    +0.000 A 
ATOM      6  C   UNL     1       2.320   3.617  20.812  0.00  0.00    +0.000 C 
ENDROOT
BRANCH   3   7
ATOM      7  C   UNL     1       1.311   8.400  20.471  0.00  0.00    +0.000 A 
ATOM      8  C   UNL     1       0.993   8.685  21.811  0.00  0.00    +0.000 A 
ATOM      9  C   UNL     1       0.525   9.950  22.182  0.00  0.00    +0.000 A 
ATOM     10  C   UNL     1       0.371  10.944  21.219  0.00  0.00    +0.000 A 
ATOM     11 CL   UNL     1      -0.193  12.500  21.682  0.00  0.00    +0.000 Cl
ATOM     12  C   UNL     1       0.680  10.685  19.887  0.00  0.00    +0.000 A 
ATOM     13  C   UNL     1       1.152   9.421  19.518  0.00  0.00    +0.000 A 
ENDBRANCH   3   7
BRANCH   1  15
ATOM     14  N   UNL     1       4.764   4.629  17.605  0.00  0.00    +0.000 NA
ATOM     15  C   UNL     1       3.535   4.333  17.906  0.00  0.00    +0.000 C 
ATOM     16  C   UNL     1       2.781   3.148  17.332  0.00  0.00    +0.000 C 
BRANCH  14  17
ATOM     17  O   UNL     1       5.346   3.741  16.671  0.00  0.00    +0.000 OA
BRANCH  17  19
ATOM     18  N   UNL     1       6.116   3.540  14.504  0.00  0.00    +0.000 N 
ATOM     19  C   UNL     1       5.619   4.379  15.467  0.00  0.00    +0.000 C 
ATOM     20  O   UNL     1       5.428   5.575  15.311  0.00  0.00    +0.000 OA
ATOM     21  H   UNL     1       6.244   2.593  14.832  0.00  0.00    +0.000 HD
BRANCH  18  23
ATOM     22  C   UNL     1       5.712   3.210  12.110  0.00  0.00    +0.000 C 
ATOM     23  C   UNL     1       6.504   3.942  13.177  0.00  0.00    +0.000 C 
ENDBRANCH  18  23
ENDBRANCH  17  19
ENDBRANCH  14  17
ENDBRANCH   1  15
TORSDOF 5
ENDMDL
