MODEL 1
REMARK VINA RESULT:      -6.3      0.000      0.000
REMARK  Name = 
REMARK  2 active torsions:
REMARK  status: ('A' for Active; 'I' for Inactive)
REMARK    1  A    between atoms: C_5  and  C_6
REMARK    2  A    between atoms: N_7  and  N_8
REMARK                            x       y       z     vdW  Elec       q    Type
REMARK                         _______ _______ _______ _____ _____    ______ ____
ROOT
ATOM      1  C   UNL     1       5.037   4.022  18.343  0.00  0.00    +0.000 C 
ATOM      2  N   UNL     1       4.033   4.721  18.779  0.00  0.00    +0.000 NA
ENDROOT
BRANCH   1   7
ATOM      3 CL   UNL     1       7.502   5.119  13.004  0.00  0.00    +0.000 Cl
ATOM      4  C   UNL     1       6.806   4.790  14.543  0.00  0.00    +0.000 A 
ATOM      5  C   UNL     1       7.585   4.900  15.694  0.00  0.00    +0.000 A 
ATOM      6  C   UNL     1       7.020   4.633  16.945  0.00  0.00    +0.000 A 
ATOM      7  C   UNL     1       5.677   4.260  17.035  0.00  0.00    +0.000 A 
ATOM      8  C   UNL     1       4.894   4.153  15.876  0.00  0.00    +0.000 A 
ATOM      9  C   UNL     1       5.464   4.418  14.627  0.00  0.00    +0.000 A 
ENDBRANCH   1   7
BRANCH   2  10
ATOM     10  N   UNL     1       3.557   4.264  19.968  0.00  0.00    +0.000 N 
ATOM     11  C   UNL     1       3.433   2.804  20.107  0.00  0.00    +0.000 C 
ATOM     12  C   UNL     1       2.065   2.240  19.721  0.00  0.00    +0.000 C 
ATOM     13  C   UNL     1       0.951   2.957  20.472  0.00  0.00    +0.000 C 
ATOM     14  C   UNL     1       1.054   4.454  20.222  0.00  0.00    +0.000 C 
ATOM     15  C   UNL     1       2.437   4.977  20.609  0.00  0.00    +0.000 C 
ENDBRANCH   2  10
TORSDOF 2
ENDMDL
MODEL 2
REMARK VINA RESULT:      -6.3      0.095      1.254
REMARK  Name = 
REMARK  2 active torsions:
REMARK  status: ('A' for Active; 'I' for Inactive)
REMARK    1  A    between atoms: C_5  and  C_6
REMARK    2  A    between atoms: N_7  and  N_8
REMARK                            x       y       z     vdW  Elec       q    Type
REMARK                         _______ _______ _______ _____ _____    ______ ____
ROOT
ATOM      1  C   UNL     1       4.941   4.016  18.316  0.00  0.00    +0.000 C 
ATOM      2  N   UNL     1       4.051   4.783  18.871  0.00  0.00    +0.000 NA
ENDROOT
BRANCH   1   7
ATOM      3 CL   UNL     1       7.608   5.118  13.076  0.00  0.00    +0.000 Cl
ATOM      4  C   UNL     1       6.827   4.814  14.579  0.00  0.00    +0.000 A 
ATOM      5  C   UNL     1       5.494   4.406  14.598  0.00  0.00    +0.000 A 
ATOM      6  C   UNL     1       4.859   4.158  15.820  0.00  0.00    +0.000 A 
ATOM      7  C   UNL     1       5.565   4.319  17.014  0.00  0.00    +0.000 A 
ATOM      8  C   UNL     1       6.907   4.726  16.993  0.00  0.00    +0.000 A 
ATOM      9  C   UNL     1       7.537   4.975  15.769  0.00  0.00    +0.000 A 
ENDBRANCH   1   7
BRANCH   2  10
ATOM     10  N   UNL     1       3.558   4.258  20.024  0.00  0.00    +0.000 N 
ATOM     11  C   UNL     1       3.402   2.795  20.064  0.00  0.00    +0.000 C 
ATOM     12  C   UNL     1       2.025   2.288  19.633  0.00  0.00    +0.000 C 
ATOM     13  C   UNL     1       0.921   2.977  20.425  0.00  0.00    +0.000 C 
ATOM     14  C   UNL     1       1.057   4.484  20.276  0.00  0.00    +0.000 C 
ATOM     15  C   UNL     1       2.448   4.950  20.705  0.00  0.00    +0.000 C 
ENDBRANCH   2  10
TORSDOF 2
ENDMDL
MODEL 3
REMARK VINA RESULT:      -6.3      0.890      1.021
REMARK  Name = 
REMARK  2 active torsions:
REMARK  status: ('A' for Active; 'I' for Inactive)
REMARK    1  A    between atoms: C_5  and  C_6
REMARK    2  A    between atoms: N_7  and  N_8
REMARK                            x       y       z     vdW  Elec       q    Type
REMARK                         _______ _______ _______ _____ _____    ______ ____
ROOT
ATOM      1  C   UNL     1       4.984   3.854  17.799  0.00  0.00    +0.000 C 
ATOM      2  N   UNL     1       3.803   3.315  17.814  0.00  0.00    +0.000 NA
ENDROOT
BRANCH   1   7
ATOM      3 CL   UNL     1       7.783   5.237  12.696  0.00  0.00    +0.000 Cl
ATOM      4  C   UNL     1       6.993   4.828  14.169  0.00  0.00    +0.000 A 
ATOM      5  C   UNL     1       7.607   5.114  15.388  0.00  0.00    +0.000 A 
ATOM      6  C   UNL     1       6.965   4.783  16.586  0.00  0.00    +0.000 A 
ATOM      7  C   UNL     1       5.711   4.170  16.554  0.00  0.00    +0.000 A 
ATOM      8  C   UNL     1       5.093   3.886  15.328  0.00  0.00    +0.000 A 
ATOM      9  C   UNL     1       5.740   4.217  14.133  0.00  0.00    +0.000 A 
ENDBRANCH   1   7
BRANCH   2  10
ATOM     10  N   UNL     1       3.372   3.038  19.074  0.00  0.00    +0.000 N 
ATOM     11  C   UNL     1       2.232   2.115  19.188  0.00  0.00    +0.000 C 
ATOM     12  C   UNL     1       0.862   2.795  19.225  0.00  0.00    +0.000 C 
ATOM     13  C   UNL     1       0.814   3.860  20.313  0.00  0.00    +0.000 C 
ATOM     14  C   UNL     1       1.948   4.851  20.101  0.00  0.00    +0.000 C 
ATOM     15  C   UNL     1       3.296   4.134  20.058  0.00  0.00    +0.000 C 
ENDBRANCH   2  10
TORSDOF 2
ENDMDL
MODEL 4
REMARK VINA RESULT:      -6.3      2.509      2.692
REMARK  Name = 
REMARK  2 active torsions:
REMARK  status: ('A' for Active; 'I' for Inactive)
REMARK    1  A    between atoms: C_5  and  C_6
REMARK    2  A    between atoms: N_7  and  N_8
REMARK                            x       y       z     vdW  Elec       q    Type
REMARK                         _______ _______ _______ _____ _____    ______ ____
ROOT
ATOM      1  C   UNL     1       4.495   4.040  18.827  0.00  0.00    +0.000 C 
ATOM      2  N   UNL     1       4.759   3.103  19.687  0.00  0.00    +0.000 NA
ENDROOT
BRANCH   1   7
ATOM      3 CL   UNL     1       8.279   8.449  17.403  0.00  0.00    +0.000 Cl
ATOM      4  C   UNL     1       7.204   7.168  17.808  0.00  0.00    +0.000 A 
ATOM      5  C   UNL     1       7.579   6.224  18.763  0.00  0.00    +0.000 A 
ATOM      6  C   UNL     1       6.705   5.182  19.093  0.00  0.00    +0.000 A 
ATOM      7  C   UNL     1       5.460   5.096  18.465  0.00  0.00    +0.000 A 
ATOM      8  C   UNL     1       5.084   6.048  17.508  0.00  0.00    +0.000 A 
ATOM      9  C   UNL     1       5.961   7.086  17.179  0.00  0.00    +0.000 A 
ENDBRANCH   1   7
BRANCH   2  10
ATOM     10  N   UNL     1       3.689   2.296  19.923  0.00  0.00    +0.000 N 
ATOM     11  C   UNL     1       2.877   1.927  18.753  0.00  0.00    +0.000 C 
ATOM     12  C   UNL     1       1.695   2.857  18.478  0.00  0.00    +0.000 C 
ATOM     13  C   UNL     1       0.826   3.013  19.719  0.00  0.00    +0.000 C 
ATOM     14  C   UNL     1       1.684   3.492  20.880  0.00  0.00    +0.000 C 
ATOM     15  C   UNL     1       2.859   2.544  21.116  0.00  0.00    +0.000 C 
ENDBRANCH   2  10
TORSDOF 2
ENDMDL
MODEL 5
REMARK VINA RESULT:      -6.3      2.548      2.895
REMARK  Name = 
REMARK  2 active torsions:
REMARK  status: ('A' for Active; 'I' for Inactive)
REMARK    1  A    between atoms: C_5  and  C_6
REMARK    2  A    between atoms: N_7  and  N_8
REMARK                            x       y       z     vdW  Elec       q    Type
REMARK                         _______ _______ _______ _____ _____    ______ ____
ROOT
ATOM      1  C   UNL     1       4.789   4.256  18.853  0.00  0.00    +0.000 C 
ATOM      2  N   UNL     1       3.556   4.220  18.447  0.00  0.00    +0.000 NA
ENDROOT
BRANCH   1   7
ATOM      3 CL   UNL     1       8.456   8.763  17.430  0.00  0.00    +0.000 Cl
ATOM      4  C   UNL     1       7.415   7.454  17.834  0.00  0.00    +0.000 A 
ATOM      5  C   UNL     1       7.830   6.497  18.759  0.00  0.00    +0.000 A 
ATOM      6  C   UNL     1       6.984   5.433  19.088  0.00  0.00    +0.000 A 
ATOM      7  C   UNL     1       5.726   5.336  18.490  0.00  0.00    +0.000 A 
ATOM      8  C   UNL     1       5.308   6.302  17.563  0.00  0.00    +0.000 A 
ATOM      9  C   UNL     1       6.158   7.362  17.235  0.00  0.00    +0.000 A 
ENDBRANCH   1   7
BRANCH   2  10
ATOM     10  N   UNL     1       2.912   3.087  18.837  0.00  0.00    +0.000 N 
ATOM     11  C   UNL     1       1.441   3.124  18.800  0.00  0.00    +0.000 C 
ATOM     12  C   UNL     1       0.781   3.554  20.110  0.00  0.00    +0.000 C 
ATOM     13  C   UNL     1       1.276   2.705  21.273  0.00  0.00    +0.000 C 
ATOM     14  C   UNL     1       2.795   2.773  21.338  0.00  0.00    +0.000 C 
ATOM     15  C   UNL     1       3.416   2.348  20.009  0.00  0.00    +0.000 C 
ENDBRANCH   2  10
TORSDOF 2
ENDMDL
MODEL 6
REMARK VINA RESULT:      -6.3      2.469      2.939
REMARK  Name = 
REMARK  2 active torsions:
REMARK  status: ('A' for Active; 'I' for Inactive)
REMARK    1  A    between atoms: C_5  and  C_6
REMARK    2  A    between atoms: N_7  and  N_8
REMARK                            x       y       z     vdW  Elec       q    Type
REMARK                         _______ _______ _______ _____ _____    ______ ____
ROOT
ATOM      1  C   UNL     1       4.719   3.903  18.652  0.00  0.00    +0.000 C 
ATOM      2  N   UNL     1       4.736   3.290  19.797  0.00  0.00    +0.000 NA
ENDROOT
BRANCH   1   7
ATOM      3 CL   UNL     1       8.303   8.524  17.392  0.00  0.00    +0.000 Cl
ATOM      4  C   UNL     1       7.258   7.207  17.759  0.00  0.00    +0.000 A 
ATOM      5  C   UNL     1       6.035   7.087  17.099  0.00  0.00    +0.000 A 
ATOM      6  C   UNL     1       5.185   6.016  17.397  0.00  0.00    +0.000 A 
ATOM      7  C   UNL     1       5.568   5.072  18.352  0.00  0.00    +0.000 A 
ATOM      8  C   UNL     1       6.800   5.192  19.011  0.00  0.00    +0.000 A 
ATOM      9  C   UNL     1       7.645   6.266  18.713  0.00  0.00    +0.000 A 
ENDBRANCH   1   7
BRANCH   2  10
ATOM     10  N   UNL     1       3.808   2.298  19.870  0.00  0.00    +0.000 N 
ATOM     11  C   UNL     1       3.360   1.725  18.591  0.00  0.00    +0.000 C 
ATOM     12  C   UNL     1       2.118   2.389  17.995  0.00  0.00    +0.000 C 
ATOM     13  C   UNL     1       0.981   2.421  19.007  0.00  0.00    +0.000 C 
ATOM     14  C   UNL     1       1.454   3.111  20.278  0.00  0.00    +0.000 C 
ATOM     15  C   UNL     1       2.701   2.427  20.836  0.00  0.00    +0.000 C 
ENDBRANCH   2  10
TORSDOF 2
ENDMDL
MODEL 7
REMARK VINA RESULT:      -6.3      0.910      1.679
REMARK  Name = 
REMARK  2 active torsions:
REMARK  status: ('A' for Active; 'I' for Inactive)
REMARK    1  A    between atoms: C_5  and  C_6
REMARK    2  A    between atoms: N_7  and  N_8
REMARK                            x       y       z     vdW  Elec       q    Type
REMARK                         _______ _______ _______ _____ _____    ______ ____
ROOT
ATOM      1  C   UNL     1       4.653   3.844  17.916  0.00  0.00    +0.000 C 
ATOM      2  N   UNL     1       3.836   2.835  17.950  0.00  0.00    +0.000 NA
ENDROOT
BRANCH   1   7
ATOM      3 CL   UNL     1       7.902   5.232  13.088  0.00  0.00    +0.000 Cl
ATOM      4  C   UNL     1       6.954   4.846  14.472  0.00  0.00    +0.000 A 
ATOM      5  C   UNL     1       5.631   4.437  14.314  0.00  0.00    +0.000 A 
ATOM      6  C   UNL     1       4.860   4.123  15.438  0.00  0.00    +0.000 A 
ATOM      7  C   UNL     1       5.422   4.217  16.713  0.00  0.00    +0.000 A 
ATOM      8  C   UNL     1       6.755   4.625  16.870  0.00  0.00    +0.000 A 
ATOM      9  C   UNL     1       7.520   4.941  15.743  0.00  0.00    +0.000 A 
ENDBRANCH   1   7
BRANCH   2  10
ATOM     10  N   UNL     1       3.308   2.634  19.187  0.00  0.00    +0.000 N 
ATOM     11  C   UNL     1       2.032   1.902  19.243  0.00  0.00    +0.000 C 
ATOM     12  C   UNL     1       0.787   2.789  19.218  0.00  0.00    +0.000 C 
ATOM     13  C   UNL     1       0.855   3.852  20.306  0.00  0.00    +0.000 C 
ATOM     14  C   UNL     1       2.140   4.652  20.152  0.00  0.00    +0.000 C 
ATOM     15  C   UNL     1       3.359   3.731  20.170  0.00  0.00    +0.000 C 
ENDBRANCH   2  10
TORSDOF 2
ENDMDL
MODEL 8
REMARK VINA RESULT:      -6.1      2.626      3.065
REMARK  Name = 
REMARK  2 active torsions:
REMARK  status: ('A' for Active; 'I' for Inactive)
REMARK    1  A    between atoms: C_5  and  C_6
REMARK    2  A    between atoms: N_7  and  N_8
REMARK                            x       y       z     vdW  Elec       q    Type
REMARK                         _______ _______ _______ _____ _____    ______ ____
ROOT
ATOM      1  C   UNL     1       5.539   4.259  18.255  0.00  0.00    +0.000 C 
ATOM      2  N   UNL     1       4.793   4.002  19.286  0.00  0.00    +0.000 NA
ENDROOT
BRANCH   1   7
ATOM      3 CL   UNL     1       8.601   9.374  17.763  0.00  0.00    +0.000 Cl
ATOM      4  C   UNL     1       7.736   7.893  17.900  0.00  0.00    +0.000 A 
ATOM      5  C   UNL     1       8.198   6.896  18.758  0.00  0.00    +0.000 A 
ATOM      6  C   UNL     1       7.495   5.692  18.869  0.00  0.00    +0.000 A 
ATOM      7  C   UNL     1       6.332   5.496  18.122  0.00  0.00    +0.000 A 
ATOM      8  C   UNL     1       5.866   6.501  17.262  0.00  0.00    +0.000 A 
ATOM      9  C   UNL     1       6.574   7.702  17.152  0.00  0.00    +0.000 A 
ENDBRANCH   1   7
BRANCH   2  10
ATOM     10  N   UNL     1       4.092   2.845  19.147  0.00  0.00    +0.000 N 
ATOM     11  C   UNL     1       3.541   2.570  17.810  0.00  0.00    +0.000 C 
ATOM     12  C   UNL     1       2.114   3.073  17.592  0.00  0.00    +0.000 C 
ATOM     13  C   UNL     1       1.184   2.558  18.683  0.00  0.00    +0.000 C 
ATOM     14  C   UNL     1       1.736   2.950  20.045  0.00  0.00    +0.000 C 
ATOM     15  C   UNL     1       3.165   2.440  20.220  0.00  0.00    +0.000 C 
ENDBRANCH   2  10
TORSDOF 2
ENDMDL
MODEL 9
REMARK VINA RESULT:      -6.1      4.370      6.016
REMARK  Name = 
REMARK  2 active torsions:
REMARK  status: ('A' for Active; 'I' for Inactive)
REMARK    1  A    between atoms: C_5  and  C_6
REMARK    2  A    between atoms: N_7  and  N_8
REMARK                            x       y       z     vdW  Elec       q    Type
REMARK                         _______ _______ _______ _____ _____    ______ ____
ROOT
ATOM      1  C   UNL     1       3.130   6.523  18.399  0.00  0.00    +0.000 C 
ATOM      2  N   UNL     1       2.947   5.327  18.872  0.00  0.00    +0.000 NA
ENDROOT
BRANCH   1   7
ATOM      3 CL   UNL     1      -0.301  11.182  19.920  0.00  0.00    +0.000 Cl
ATOM      4  C   UNL     1       0.699   9.847  19.496  0.00  0.00    +0.000 A 
ATOM      5  C   UNL     1       1.055   8.911  20.466  0.00  0.00    +0.000 A 
ATOM      6  C   UNL     1       1.867   7.826  20.122  0.00  0.00    +0.000 A 
ATOM      7  C   UNL     1       2.315   7.683  18.806  0.00  0.00    +0.000 A 
ATOM      8  C   UNL     1       1.952   8.624  17.831  0.00  0.00    +0.000 A 
ATOM      9  C   UNL     1       1.143   9.709  18.180  0.00  0.00    +0.000 A 
ENDBRANCH   1   7
BRANCH   2  10
ATOM     10  N   UNL     1       3.759   4.406  18.286  0.00  0.00    +0.000 N 
ATOM     11  C   UNL     1       3.155   3.577  17.231  0.00  0.00    +0.000 C 
ATOM     12  C   UNL     1       2.560   2.256  17.719  0.00  0.00    +0.000 C 
ATOM     13  C   UNL     1       3.585   1.461  18.518  0.00  0.00    +0.000 C 
ATOM     14  C   UNL     1       4.112   2.318  19.659  0.00  0.00    +0.000 C 
ATOM     15  C   UNL     1       4.686   3.633  19.133  0.00  0.00    +0.000 C 
ENDBRANCH   2  10
TORSDOF 2
ENDMDL
