MODEL 1
REMARK VINA RESULT:      -9.5      0.000      0.000
REMARK  Name = 
REMARK  8 active torsions:
REMARK  status: ('A' for Active; 'I' for Inactive)
REMARK    1  A    between atoms: C_4  and  C_5
REMARK    2  A    between atoms: C_14  and  C_15
REMARK    3  A    between atoms: C_15  and  O_16
REMARK    4  A    between atoms: O_16  and  C_17
REMARK    5  A    between atoms: C_17  and  C_18
REMARK    6  A    between atoms: C_18  and  C_19
REMARK    7  A    between atoms: C_19  and  N_20
REMARK    8  A    between atoms: C_23  and  C_24
REMARK                            x       y       z     vdW  Elec       q    Type
REMARK                         _______ _______ _______ _____ _____    ______ ____
ROOT
ATOM      1  O   UNL     1       7.834   7.755  16.917  0.00  0.00    +0.000 OA
ENDROOT
BRANCH   1   2
ATOM      2  C   UNL     1       6.898   6.838  17.504  0.00  0.00    +0.000 C 
BRANCH   2  12
ATOM      3  C   UNL     1       5.134   5.375  16.375  0.00  0.00    +0.000 C 
ATOM      4  O   UNL     1       4.907   4.274  15.474  0.00  0.00    +0.000 OA
ATOM      5  C   UNL     1       5.733   4.304  14.389  0.00  0.00    +0.000 A 
ATOM      6  C   UNL     1       5.331   3.551  13.284  0.00  0.00    +0.000 A 
ATOM      7  C   UNL     1       6.124   3.515  12.138  0.00  0.00    +0.000 A 
ATOM      8  C   UNL     1       7.331   4.213  12.107  0.00  0.00    +0.000 A 
ATOM      9  C   UNL     1       7.732   4.964  13.215  0.00  0.00    +0.000 A 
ATOM     10  C   UNL     1       6.928   5.018  14.355  0.00  0.00    +0.000 A 
ATOM     11  O   UNL     1       7.367   5.809  15.381  0.00  0.00    +0.000 OA
ATOM     12  C   UNL     1       6.637   5.612  16.611  0.00  0.00    +0.000 C 
BRANCH   3  16
ATOM     13  C   UNL     1       3.114   4.376  20.080  0.00  0.00    +0.000 A 
ATOM     14  C   UNL     1       2.761   5.533  19.389  0.00  0.00    +0.000 A 
ATOM     15  C   UNL     1       3.381   5.841  18.176  0.00  0.00    +0.000 A 
ATOM     16  C   UNL     1       4.376   5.000  17.643  0.00  0.00    +0.000 A 
ATOM     17  C   UNL     1       4.701   3.826  18.338  0.00  0.00    +0.000 A 
ATOM     18  C   UNL     1       4.074   3.516  19.549  0.00  0.00    +0.000 A 
ENDBRANCH   3  16
ENDBRANCH   2  12
ENDBRANCH   1   2
BRANCH   1  19
ATOM     19  C   UNL     1       7.806   9.007  17.607  0.00  0.00    +0.000 C 
BRANCH  19  20
ATOM     20  C   UNL     1       8.844   9.042  18.719  0.00  0.00    +0.000 C 
BRANCH  20  21
ATOM     21  C   UNL     1       9.033  10.438  19.326  0.00  0.00    +0.000 C 
BRANCH  21  22
ATOM     22  N   UNL     1      10.380  10.993  19.053  0.00  0.00    +0.000 NA
ATOM     23  C   UNL     1      10.406  11.704  17.765  0.00  0.00    +0.000 C 
ATOM     24  C   UNL     1      11.801  12.247  17.466  0.00  0.00    +0.000 C 
ATOM     25  C   UNL     1      12.246  13.235  18.543  0.00  0.00    +0.000 C 
ATOM     26  C   UNL     1      12.154  12.537  19.908  0.00  0.00    +0.000 C 
ATOM     27  C   UNL     1      10.784  11.886  20.157  0.00  0.00    +0.000 C 
BRANCH  25  28
ATOM     28  C   UNL     1      11.424  14.490  18.491  0.00  0.00    +0.000 A 
ATOM     29  N   UNL     1      11.317  15.357  17.501  0.00  0.00    +0.000 NA
ATOM     30  C   UNL     1      10.580  16.376  18.040  0.00  0.00    +0.000 A 
ATOM     31  C   UNL     1      10.182  17.600  17.489  0.00  0.00    +0.000 A 
ATOM     32  C   UNL     1       9.434  18.469  18.292  0.00  0.00    +0.000 A 
ATOM     33  C   UNL     1       9.085  18.128  19.608  0.00  0.00    +0.000 A 
ATOM     34  C   UNL     1       9.480  16.902  20.170  0.00  0.00    +0.000 A 
ATOM     35  C   UNL     1      10.227  16.071  19.343  0.00  0.00    +0.000 A 
ATOM     36  O   UNL     1      10.755  14.846  19.639  0.00  0.00    +0.000 OA
ENDBRANCH  25  28
ENDBRANCH  21  22
ENDBRANCH  20  21
ENDBRANCH  19  20
ENDBRANCH   1  19
TORSDOF 8
ENDMDL
MODEL 2
REMARK VINA RESULT:      -9.4      0.843      1.233
REMARK  Name = 
REMARK  8 active torsions:
REMARK  status: ('A' for Active; 'I' for Inactive)
REMARK    1  A    between atoms: C_4  and  C_5
REMARK    2  A    between atoms: C_14  and  C_15
REMARK    3  A    between atoms: C_15  and  O_16
REMARK    4  A    between atoms: O_16  and  C_17
REMARK    5  A    between atoms: C_17  and  C_18
REMARK    6  A    between atoms: C_18  and  C_19
REMARK    7  A    between atoms: C_19  and  N_20
REMARK    8  A    between atoms: C_23  and  C_24
REMARK                            x       y       z     vdW  Elec       q    Type
REMARK                         _______ _______ _______ _____ _____    ______ ____
ROOT
ATOM      1  O   UNL     1       7.768   6.618  18.363  0.00  0.00    +0.000 OA
ENDROOT
BRANCH   1   2
ATOM      2  C   UNL     1       6.886   6.871  17.258  0.00  0.00    +0.000 C 
BRANCH   2  12
ATOM      3  C   UNL     1       5.151   5.342  16.171  0.00  0.00    +0.000 C 
ATOM      4  O   UNL     1       4.945   4.216  15.298  0.00  0.00    +0.000 OA
ATOM      5  C   UNL     1       5.768   4.236  14.210  0.00  0.00    +0.000 A 
ATOM      6  C   UNL     1       5.379   3.448  13.126  0.00  0.00    +0.000 A 
ATOM      7  C   UNL     1       6.169   3.400  11.978  0.00  0.00    +0.000 A 
ATOM      8  C   UNL     1       7.360   4.123  11.926  0.00  0.00    +0.000 A 
ATOM      9  C   UNL     1       7.748   4.910  13.013  0.00  0.00    +0.000 A 
ATOM     10  C   UNL     1       6.946   4.975  14.155  0.00  0.00    +0.000 A 
ATOM     11  O   UNL     1       7.371   5.800  15.159  0.00  0.00    +0.000 OA
ATOM     12  C   UNL     1       6.649   5.618  16.396  0.00  0.00    +0.000 C 
BRANCH   3  16
ATOM     13  C   UNL     1       3.160   4.399  19.906  0.00  0.00    +0.000 A 
ATOM     14  C   UNL     1       2.751   5.504  19.163  0.00  0.00    +0.000 A 
ATOM     15  C   UNL     1       3.362   5.791  17.941  0.00  0.00    +0.000 A 
ATOM     16  C   UNL     1       4.405   4.983  17.451  0.00  0.00    +0.000 A 
ATOM     17  C   UNL     1       4.787   3.860  18.198  0.00  0.00    +0.000 A 
ATOM     18  C   UNL     1       4.169   3.569  19.418  0.00  0.00    +0.000 A 
ENDBRANCH   3  16
ENDBRANCH   2  12
ENDBRANCH   1   2
BRANCH   1  19
ATOM     19  C   UNL     1       8.440   7.819  18.751  0.00  0.00    +0.000 C 
BRANCH  19  20
ATOM     20  C   UNL     1       8.225   8.921  17.724  0.00  0.00    +0.000 C 
BRANCH  20  21
ATOM     21  C   UNL     1       8.322  10.330  18.321  0.00  0.00    +0.000 C 
BRANCH  21  22
ATOM     22  N   UNL     1       9.702  10.668  18.743  0.00  0.00    +0.000 NA
ATOM     23  C   UNL     1      10.363  11.526  17.747  0.00  0.00    +0.000 C 
ATOM     24  C   UNL     1      11.796  11.847  18.163  0.00  0.00    +0.000 C 
ATOM     25  C   UNL     1      11.824  12.591  19.497  0.00  0.00    +0.000 C 
ATOM     26  C   UNL     1      11.073  11.748  20.538  0.00  0.00    +0.000 C 
ATOM     27  C   UNL     1       9.673  11.324  20.066  0.00  0.00    +0.000 C 
BRANCH  25  28
ATOM     28  C   UNL     1      11.243  13.968  19.355  0.00  0.00    +0.000 A 
ATOM     29  N   UNL     1      10.386  14.580  20.152  0.00  0.00    +0.000 NA
ATOM     30  C   UNL     1      10.076  15.728  19.475  0.00  0.00    +0.000 A 
ATOM     31  C   UNL     1       9.182  16.757  19.793  0.00  0.00    +0.000 A 
ATOM     32  C   UNL     1       9.055  17.818  18.890  0.00  0.00    +0.000 A 
ATOM     33  C   UNL     1       9.802  17.860  17.703  0.00  0.00    +0.000 A 
ATOM     34  C   UNL     1      10.702  16.831  17.374  0.00  0.00    +0.000 A 
ATOM     35  C   UNL     1      10.794  15.792  18.293  0.00  0.00    +0.000 A 
ATOM     36  O   UNL     1      11.563  14.666  18.213  0.00  0.00    +0.000 OA
ENDBRANCH  25  28
ENDBRANCH  21  22
ENDBRANCH  20  21
ENDBRANCH  19  20
ENDBRANCH   1  19
TORSDOF 8
ENDMDL
MODEL 3
REMARK VINA RESULT:      -9.3      0.877      1.258
REMARK  Name = 
REMARK  8 active torsions:
REMARK  status: ('A' for Active; 'I' for Inactive)
REMARK    1  A    between atoms: C_4  and  C_5
REMARK    2  A    between atoms: C_14  and  C_15
REMARK    3  A    between atoms: C_15  and  O_16
REMARK    4  A    between atoms: O_16  and  C_17
REMARK    5  A    between atoms: C_17  and  C_18
REMARK    6  A    between atoms: C_18  and  C_19
REMARK    7  A    between atoms: C_19  and  N_20
REMARK    8  A    between atoms: C_23  and  C_24
REMARK                            x       y       z     vdW  Elec       q    Type
REMARK                         _______ _______ _______ _____ _____    ______ ____
ROOT
ATOM      1  O   UNL     1       7.676   6.928  17.928  0.00  0.00    +0.000 OA
ENDROOT
BRANCH   1   2
ATOM      2  C   UNL     1       6.338   6.458  17.701  0.00  0.00    +0.000 C 
BRANCH   2  12
ATOM      3  C   UNL     1       4.841   4.919  16.315  0.00  0.00    +0.000 C 
ATOM      4  O   UNL     1       4.807   3.888  15.310  0.00  0.00    +0.000 OA
ATOM      5  C   UNL     1       5.699   4.108  14.301  0.00  0.00    +0.000 A 
ATOM      6  C   UNL     1       5.466   3.420  13.109  0.00  0.00    +0.000 A 
ATOM      7  C   UNL     1       6.337   3.577  12.032  0.00  0.00    +0.000 A 
ATOM      8  C   UNL     1       7.453   4.404  12.155  0.00  0.00    +0.000 A 
ATOM      9  C   UNL     1       7.684   5.090  13.351  0.00  0.00    +0.000 A 
ATOM     10  C   UNL     1       6.801   4.950  14.423  0.00  0.00    +0.000 A 
ATOM     11  O   UNL     1       7.071   5.686  15.543  0.00  0.00    +0.000 OA
ATOM     12  C   UNL     1       6.286   5.298  16.690  0.00  0.00    +0.000 C 
BRANCH   3  16
ATOM     13  C   UNL     1       2.539   3.150  19.536  0.00  0.00    +0.000 A 
ATOM     14  C   UNL     1       3.929   3.058  19.547  0.00  0.00    +0.000 A 
ATOM     15  C   UNL     1       4.678   3.659  18.533  0.00  0.00    +0.000 A 
ATOM     16  C   UNL     1       4.044   4.348  17.483  0.00  0.00    +0.000 A 
ATOM     17  C   UNL     1       2.646   4.454  17.501  0.00  0.00    +0.000 A 
ATOM     18  C   UNL     1       1.898   3.858  18.521  0.00  0.00    +0.000 A 
ENDBRANCH   3  16
ENDBRANCH   2  12
ENDBRANCH   1   2
BRANCH   1  19
ATOM     19  C   UNL     1       7.761   8.333  17.676  0.00  0.00    +0.000 C 
BRANCH  19  20
ATOM     20  C   UNL     1       8.751   8.998  18.622  0.00  0.00    +0.000 C 
BRANCH  20  21
ATOM     21  C   UNL     1       9.007  10.473  18.288  0.00  0.00    +0.000 C 
BRANCH  21  22
ATOM     22  N   UNL     1      10.028  11.081  19.173  0.00  0.00    +0.000 NA
ATOM     23  C   UNL     1      11.092  11.724  18.387  0.00  0.00    +0.000 C 
ATOM     24  C   UNL     1      12.162  12.322  19.297  0.00  0.00    +0.000 C 
ATOM     25  C   UNL     1      11.567  13.387  20.216  0.00  0.00    +0.000 C 
ATOM     26  C   UNL     1      10.402  12.757  20.995  0.00  0.00    +0.000 C 
ATOM     27  C   UNL     1       9.386  12.051  20.084  0.00  0.00    +0.000 C 
BRANCH  25  28
ATOM     28  C   UNL     1      11.139  14.593  19.432  0.00  0.00    +0.000 A 
ATOM     29  N   UNL     1      11.761  15.176  18.423  0.00  0.00    +0.000 NA
ATOM     30  C   UNL     1      11.024  16.307  18.197  0.00  0.00    +0.000 A 
ATOM     31  C   UNL     1      11.218  17.349  17.285  0.00  0.00    +0.000 A 
ATOM     32  C   UNL     1      10.298  18.404  17.288  0.00  0.00    +0.000 A 
ATOM     33  C   UNL     1       9.209  18.420  18.173  0.00  0.00    +0.000 A 
ATOM     34  C   UNL     1       9.006  17.377  19.093  0.00  0.00    +0.000 A 
ATOM     35  C   UNL     1       9.945  16.353  19.063  0.00  0.00    +0.000 A 
ATOM     36  O   UNL     1      10.001  15.242  19.856  0.00  0.00    +0.000 OA
ENDBRANCH  25  28
ENDBRANCH  21  22
ENDBRANCH  20  21
ENDBRANCH  19  20
ENDBRANCH   1  19
TORSDOF 8
ENDMDL
MODEL 4
REMARK VINA RESULT:      -9.2      0.949      1.407
REMARK  Name = 
REMARK  8 active torsions:
REMARK  status: ('A' for Active; 'I' for Inactive)
REMARK    1  A    between atoms: C_4  and  C_5
REMARK    2  A    between atoms: C_14  and  C_15
REMARK    3  A    between atoms: C_15  and  O_16
REMARK    4  A    between atoms: O_16  and  C_17
REMARK    5  A    between atoms: C_17  and  C_18
REMARK    6  A    between atoms: C_18  and  C_19
REMARK    7  A    between atoms: C_19  and  N_20
REMARK    8  A    between atoms: C_23  and  C_24
REMARK                            x       y       z     vdW  Elec       q    Type
REMARK                         _______ _______ _______ _____ _____    ______ ____
ROOT
ATOM      1  O   UNL     1       7.428   7.734  17.144  0.00  0.00    +0.000 OA
ENDROOT
BRANCH   1   2
ATOM      2  C   UNL     1       6.514   6.729  17.612  0.00  0.00    +0.000 C 
BRANCH   2  12
ATOM      3  C   UNL     1       4.970   5.159  16.317  0.00  0.00    +0.000 C 
ATOM      4  O   UNL     1       4.904   4.084  15.361  0.00  0.00    +0.000 OA
ATOM      5  C   UNL     1       5.787   4.239  14.332  0.00  0.00    +0.000 A 
ATOM      6  C   UNL     1       5.526   3.501  13.177  0.00  0.00    +0.000 A 
ATOM      7  C   UNL     1       6.386   3.591  12.083  0.00  0.00    +0.000 A 
ATOM      8  C   UNL     1       7.520   4.399  12.155  0.00  0.00    +0.000 A 
ATOM      9  C   UNL     1       7.780   5.134  13.315  0.00  0.00    +0.000 A 
ATOM     10  C   UNL     1       6.907   5.063  14.403  0.00  0.00    +0.000 A 
ATOM     11  O   UNL     1       7.206   5.844  15.484  0.00  0.00    +0.000 OA
ATOM     12  C   UNL     1       6.427   5.525  16.657  0.00  0.00    +0.000 C 
BRANCH   3  16
ATOM     13  C   UNL     1       2.619   3.632  19.624  0.00  0.00    +0.000 A 
ATOM     14  C   UNL     1       3.889   3.114  19.381  0.00  0.00    +0.000 A 
ATOM     15  C   UNL     1       4.667   3.628  18.341  0.00  0.00    +0.000 A 
ATOM     16  C   UNL     1       4.177   4.659  17.518  0.00  0.00    +0.000 A 
ATOM     17  C   UNL     1       2.907   5.187  17.794  0.00  0.00    +0.000 A 
ATOM     18  C   UNL     1       2.132   4.677  18.840  0.00  0.00    +0.000 A 
ENDBRANCH   3  16
ENDBRANCH   2  12
ENDBRANCH   1   2
BRANCH   1  19
ATOM     19  C   UNL     1       8.258   8.191  18.215  0.00  0.00    +0.000 C 
BRANCH  19  20
ATOM     20  C   UNL     1       8.553   9.678  18.082  0.00  0.00    +0.000 C 
BRANCH  20  21
ATOM     21  C   UNL     1       9.345  10.245  19.267  0.00  0.00    +0.000 C 
BRANCH  21  22
ATOM     22  N   UNL     1      10.411  11.179  18.836  0.00  0.00    +0.000 NA
ATOM     23  C   UNL     1       9.913  12.113  17.814  0.00  0.00    +0.000 C 
ATOM     24  C   UNL     1      11.019  13.054  17.344  0.00  0.00    +0.000 C 
ATOM     25  C   UNL     1      11.556  13.891  18.504  0.00  0.00    +0.000 C 
ATOM     26  C   UNL     1      12.014  12.936  19.617  0.00  0.00    +0.000 C 
ATOM     27  C   UNL     1      10.937  11.911  20.006  0.00  0.00    +0.000 C 
BRANCH  25  28
ATOM     28  C   UNL     1      10.522  14.867  18.983  0.00  0.00    +0.000 A 
ATOM     29  N   UNL     1       9.208  14.731  18.990  0.00  0.00    +0.000 NA
ATOM     30  C   UNL     1       8.755  15.963  19.374  0.00  0.00    +0.000 A 
ATOM     31  C   UNL     1       7.450  16.448  19.515  0.00  0.00    +0.000 A 
ATOM     32  C   UNL     1       7.283  17.779  19.914  0.00  0.00    +0.000 A 
ATOM     33  C   UNL     1       8.386  18.607  20.172  0.00  0.00    +0.000 A 
ATOM     34  C   UNL     1       9.701  18.130  20.032  0.00  0.00    +0.000 A 
ATOM     35  C   UNL     1       9.824  16.806  19.628  0.00  0.00    +0.000 A 
ATOM     36  O   UNL     1      10.971  16.102  19.392  0.00  0.00    +0.000 OA
ENDBRANCH  25  28
ENDBRANCH  21  22
ENDBRANCH  20  21
ENDBRANCH  19  20
ENDBRANCH   1  19
TORSDOF 8
ENDMDL
MODEL 5
REMARK VINA RESULT:      -9.1      2.405      2.822
REMARK  Name = 
REMARK  8 active torsions:
REMARK  status: ('A' for Active; 'I' for Inactive)
REMARK    1  A    between atoms: C_4  and  C_5
REMARK    2  A    between atoms: C_14  and  C_15
REMARK    3  A    between atoms: C_15  and  O_16
REMARK    4  A    between atoms: O_16  and  C_17
REMARK    5  A    between atoms: C_17  and  C_18
REMARK    6  A    between atoms: C_18  and  C_19
REMARK    7  A    between atoms: C_19  and  N_20
REMARK    8  A    between atoms: C_23  and  C_24
REMARK                            x       y       z     vdW  Elec       q    Type
REMARK                         _______ _______ _______ _____ _____    ______ ____
ROOT
ATOM      1  O   UNL     1       7.526   7.734  16.909  0.00  0.00    +0.000 OA
ENDROOT
BRANCH   1   2
ATOM      2  C   UNL     1       7.277   6.501  17.605  0.00  0.00    +0.000 C 
BRANCH   2  12
ATOM      3  C   UNL     1       5.303   5.348  16.464  0.00  0.00    +0.000 C 
ATOM      4  O   UNL     1       4.906   4.340  15.515  0.00  0.00    +0.000 OA
ATOM      5  C   UNL     1       5.698   4.323  14.404  0.00  0.00    +0.000 A 
ATOM      6  C   UNL     1       5.168   3.694  13.277  0.00  0.00    +0.000 A 
ATOM      7  C   UNL     1       5.916   3.619  12.102  0.00  0.00    +0.000 A 
ATOM      8  C   UNL     1       7.203   4.154  12.064  0.00  0.00    +0.000 A 
ATOM      9  C   UNL     1       7.731   4.782  13.195  0.00  0.00    +0.000 A 
ATOM     10  C   UNL     1       6.975   4.876  14.365  0.00  0.00    +0.000 A 
ATOM     11  O   UNL     1       7.544   5.542  15.414  0.00  0.00    +0.000 OA
ATOM     12  C   UNL     1       6.831   5.373  16.658  0.00  0.00    +0.000 C 
BRANCH   3  16
ATOM     13  C   UNL     1       2.997   4.300  19.984  0.00  0.00    +0.000 A 
ATOM     14  C   UNL     1       4.052   3.485  19.579  0.00  0.00    +0.000 A 
ATOM     15  C   UNL     1       4.822   3.837  18.469  0.00  0.00    +0.000 A 
ATOM     16  C   UNL     1       4.539   5.005  17.737  0.00  0.00    +0.000 A 
ATOM     17  C   UNL     1       3.490   5.828  18.174  0.00  0.00    +0.000 A 
ATOM     18  C   UNL     1       2.724   5.478  19.290  0.00  0.00    +0.000 A 
ENDBRANCH   3  16
ENDBRANCH   2  12
ENDBRANCH   1   2
BRANCH   1  19
ATOM     19  C   UNL     1       7.373   8.846  17.794  0.00  0.00    +0.000 C 
BRANCH  19  20
ATOM     20  C   UNL     1       8.619   9.720  17.794  0.00  0.00    +0.000 C 
BRANCH  20  21
ATOM     21  C   UNL     1       9.208   9.932  19.195  0.00  0.00    +0.000 C 
BRANCH  21  22
ATOM     22  N   UNL     1       9.838  11.265  19.344  0.00  0.00    +0.000 NA
ATOM     23  C   UNL     1       9.460  12.155  18.235  0.00  0.00    +0.000 C 
ATOM     24  C   UNL     1      10.135  13.517  18.369  0.00  0.00    +0.000 C 
ATOM     25  C   UNL     1       9.723  14.206  19.669  0.00  0.00    +0.000 C 
ATOM     26  C   UNL     1      10.040  13.263  20.839  0.00  0.00    +0.000 C 
ATOM     27  C   UNL     1       9.459  11.853  20.645  0.00  0.00    +0.000 C 
BRANCH  25  28
ATOM     28  C   UNL     1       8.274  14.597  19.632  0.00  0.00    +0.000 A 
ATOM     29  N   UNL     1       7.465  14.835  20.648  0.00  0.00    +0.000 NA
ATOM     30  C   UNL     1       6.239  14.987  20.059  0.00  0.00    +0.000 A 
ATOM     31  C   UNL     1       4.980  15.209  20.626  0.00  0.00    +0.000 A 
ATOM     32  C   UNL     1       3.880  15.309  19.766  0.00  0.00    +0.000 A 
ATOM     33  C   UNL     1       4.029  15.197  18.375  0.00  0.00    +0.000 A 
ATOM     34  C   UNL     1       5.290  14.974  17.796  0.00  0.00    +0.000 A 
ATOM     35  C   UNL     1       6.355  14.873  18.684  0.00  0.00    +0.000 A 
ATOM     36  O   UNL     1       7.669  14.636  18.396  0.00  0.00    +0.000 OA
ENDBRANCH  25  28
ENDBRANCH  21  22
ENDBRANCH  20  21
ENDBRANCH  19  20
ENDBRANCH   1  19
TORSDOF 8
ENDMDL
MODEL 6
REMARK VINA RESULT:      -9.1      1.049      1.360
REMARK  Name = 
REMARK  8 active torsions:
REMARK  status: ('A' for Active; 'I' for Inactive)
REMARK    1  A    between atoms: C_4  and  C_5
REMARK    2  A    between atoms: C_14  and  C_15
REMARK    3  A    between atoms: C_15  and  O_16
REMARK    4  A    between atoms: O_16  and  C_17
REMARK    5  A    between atoms: C_17  and  C_18
REMARK    6  A    between atoms: C_18  and  C_19
REMARK    7  A    between atoms: C_19  and  N_20
REMARK    8  A    between atoms: C_23  and  C_24
REMARK                            x       y       z     vdW  Elec       q    Type
REMARK                         _______ _______ _______ _____ _____    ______ ____
ROOT
ATOM      1  O   UNL     1       7.069   7.704  17.185  0.00  0.00    +0.000 OA
ENDROOT
BRANCH   1   2
ATOM      2  C   UNL     1       6.490   6.524  17.765  0.00  0.00    +0.000 C 
BRANCH   2  12
ATOM      3  C   UNL     1       4.902   5.095  16.364  0.00  0.00    +0.000 C 
ATOM      4  O   UNL     1       4.805   4.071  15.356  0.00  0.00    +0.000 OA
ATOM      5  C   UNL     1       5.719   4.230  14.355  0.00  0.00    +0.000 A 
ATOM      6  C   UNL     1       5.448   3.562  13.160  0.00  0.00    +0.000 A 
ATOM      7  C   UNL     1       6.337   3.659  12.090  0.00  0.00    +0.000 A 
ATOM      8  C   UNL     1       7.506   4.406  12.224  0.00  0.00    +0.000 A 
ATOM      9  C   UNL     1       7.775   5.072  13.423  0.00  0.00    +0.000 A 
ATOM     10  C   UNL     1       6.876   4.993  14.488  0.00  0.00    +0.000 A 
ATOM     11  O   UNL     1       7.187   5.707  15.611  0.00  0.00    +0.000 OA
ATOM     12  C   UNL     1       6.366   5.372  16.751  0.00  0.00    +0.000 C 
BRANCH   3  16
ATOM     13  C   UNL     1       2.618   3.705  19.777  0.00  0.00    +0.000 A 
ATOM     14  C   UNL     1       2.211   4.847  19.091  0.00  0.00    +0.000 A 
ATOM     15  C   UNL     1       2.920   5.278  17.968  0.00  0.00    +0.000 A 
ATOM     16  C   UNL     1       4.058   4.579  17.524  0.00  0.00    +0.000 A 
ATOM     17  C   UNL     1       4.439   3.417  18.210  0.00  0.00    +0.000 A 
ATOM     18  C   UNL     1       3.724   2.983  19.330  0.00  0.00    +0.000 A 
ENDBRANCH   3  16
ENDBRANCH   2  12
ENDBRANCH   1   2
BRANCH   1  19
ATOM     19  C   UNL     1       8.163   8.166  17.980  0.00  0.00    +0.000 C 
BRANCH  19  20
ATOM     20  C   UNL     1       8.297   9.680  17.899  0.00  0.00    +0.000 C 
BRANCH  20  21
ATOM     21  C   UNL     1       9.153  10.272  19.026  0.00  0.00    +0.000 C 
BRANCH  21  22
ATOM     22  N   UNL     1      10.256  11.116  18.510  0.00  0.00    +0.000 NA
ATOM     23  C   UNL     1       9.732  12.311  17.830  0.00  0.00    +0.000 C 
ATOM     24  C   UNL     1      10.866  13.165  17.268  0.00  0.00    +0.000 C 
ATOM     25  C   UNL     1      11.794  13.644  18.383  0.00  0.00    +0.000 C 
ATOM     26  C   UNL     1      12.296  12.416  19.156  0.00  0.00    +0.000 C 
ATOM     27  C   UNL     1      11.157  11.493  19.618  0.00  0.00    +0.000 C 
BRANCH  25  28
ATOM     28  C   UNL     1      11.096  14.630  19.274  0.00  0.00    +0.000 A 
ATOM     29  N   UNL     1      10.560  15.792  18.947  0.00  0.00    +0.000 NA
ATOM     30  C   UNL     1      10.211  16.340  20.151  0.00  0.00    +0.000 A 
ATOM     31  C   UNL     1       9.645  17.582  20.454  0.00  0.00    +0.000 A 
ATOM     32  C   UNL     1       9.409  17.886  21.800  0.00  0.00    +0.000 A 
ATOM     33  C   UNL     1       9.722  16.975  22.820  0.00  0.00    +0.000 A 
ATOM     34  C   UNL     1      10.292  15.724  22.526  0.00  0.00    +0.000 A 
ATOM     35  C   UNL     1      10.517  15.464  21.179  0.00  0.00    +0.000 A 
ATOM     36  O   UNL     1      11.076  14.349  20.621  0.00  0.00    +0.000 OA
ENDBRANCH  25  28
ENDBRANCH  21  22
ENDBRANCH  20  21
ENDBRANCH  19  20
ENDBRANCH   1  19
TORSDOF 8
ENDMDL
MODEL 7
REMARK VINA RESULT:      -9.0      1.209      4.063
REMARK  Name = 
REMARK  8 active torsions:
REMARK  status: ('A' for Active; 'I' for Inactive)
REMARK    1  A    between atoms: C_4  and  C_5
REMARK    2  A    between atoms: C_14  and  C_15
REMARK    3  A    between atoms: C_15  and  O_16
REMARK    4  A    between atoms: O_16  and  C_17
REMARK    5  A    between atoms: C_17  and  C_18
REMARK    6  A    between atoms: C_18  and  C_19
REMARK    7  A    between atoms: C_19  and  N_20
REMARK    8  A    between atoms: C_23  and  C_24
REMARK                            x       y       z     vdW  Elec       q    Type
REMARK                         _______ _______ _______ _____ _____    ______ ____
ROOT
ATOM      1  O   UNL     1       6.648   6.941  17.752  0.00  0.00    +0.000 OA
ENDROOT
BRANCH   1   2
ATOM      2  C   UNL     1       5.491   7.084  16.912  0.00  0.00    +0.000 C 
BRANCH   2  12
ATOM      3  C   UNL     1       5.342   4.548  16.635  0.00  0.00    +0.000 C 
ATOM      4  O   UNL     1       4.494   3.390  16.758  0.00  0.00    +0.000 OA
ATOM      5  C   UNL     1       3.720   3.422  17.881  0.00  0.00    +0.000 A 
ATOM      6  C   UNL     1       3.190   2.201  18.301  0.00  0.00    +0.000 A 
ATOM      7  C   UNL     1       2.376   2.146  19.432  0.00  0.00    +0.000 A 
ATOM      8  C   UNL     1       2.074   3.316  20.127  0.00  0.00    +0.000 A 
ATOM      9  C   UNL     1       2.606   4.537  19.703  0.00  0.00    +0.000 A 
ATOM     10  C   UNL     1       3.438   4.590  18.584  0.00  0.00    +0.000 A 
ATOM     11  O   UNL     1       3.953   5.814  18.257  0.00  0.00    +0.000 OA
ATOM     12  C   UNL     1       4.577   5.846  16.956  0.00  0.00    +0.000 C 
BRANCH   3  16
ATOM     13  C   UNL     1       6.937   4.256  12.614  0.00  0.00    +0.000 A 
ATOM     14  C   UNL     1       5.685   3.717  12.903  0.00  0.00    +0.000 A 
ATOM     15  C   UNL     1       5.149   3.842  14.186  0.00  0.00    +0.000 A 
ATOM     16  C   UNL     1       5.867   4.495  15.205  0.00  0.00    +0.000 A 
ATOM     17  C   UNL     1       7.114   5.054  14.891  0.00  0.00    +0.000 A 
ATOM     18  C   UNL     1       7.646   4.935  13.603  0.00  0.00    +0.000 A 
ENDBRANCH   3  16
ENDBRANCH   2  12
ENDBRANCH   1   2
BRANCH   1  19
ATOM     19  C   UNL     1       7.702   7.794  17.299  0.00  0.00    +0.000 C 
BRANCH  19  20
ATOM     20  C   UNL     1       8.398   8.472  18.470  0.00  0.00    +0.000 C 
BRANCH  20  21
ATOM     21  C   UNL     1       8.620   9.974  18.254  0.00  0.00    +0.000 C 
BRANCH  21  22
ATOM     22  N   UNL     1       9.756  10.495  19.051  0.00  0.00    +0.000 NA
ATOM     23  C   UNL     1      10.766  11.119  18.183  0.00  0.00    +0.000 C 
ATOM     24  C   UNL     1      11.954  11.626  18.998  0.00  0.00    +0.000 C 
ATOM     25  C   UNL     1      11.510  12.679  20.012  0.00  0.00    +0.000 C 
ATOM     26  C   UNL     1      10.399  12.073  20.884  0.00  0.00    +0.000 C 
ATOM     27  C   UNL     1       9.261  11.455  20.057  0.00  0.00    +0.000 C 
BRANCH  25  28
ATOM     28  C   UNL     1      11.068  13.936  19.322  0.00  0.00    +0.000 A 
ATOM     29  N   UNL     1      11.576  14.496  18.239  0.00  0.00    +0.000 NA
ATOM     30  C   UNL     1      10.908  15.687  18.145  0.00  0.00    +0.000 A 
ATOM     31  C   UNL     1      11.045  16.736  17.230  0.00  0.00    +0.000 A 
ATOM     32  C   UNL     1      10.224  17.859  17.390  0.00  0.00    +0.000 A 
ATOM     33  C   UNL     1       9.286  17.934  18.430  0.00  0.00    +0.000 A 
ATOM     34  C   UNL     1       9.140  16.886  19.355  0.00  0.00    +0.000 A 
ATOM     35  C   UNL     1       9.978  15.793  19.166  0.00  0.00    +0.000 A 
ATOM     36  O   UNL     1      10.064  14.659  19.923  0.00  0.00    +0.000 OA
ENDBRANCH  25  28
ENDBRANCH  21  22
ENDBRANCH  20  21
ENDBRANCH  19  20
ENDBRANCH   1  19
TORSDOF 8
ENDMDL
MODEL 8
REMARK VINA RESULT:      -8.9      6.964     10.733
REMARK  Name = 
REMARK  8 active torsions:
REMARK  status: ('A' for Active; 'I' for Inactive)
REMARK    1  A    between atoms: C_4  and  C_5
REMARK    2  A    between atoms: C_14  and  C_15
REMARK    3  A    between atoms: C_15  and  O_16
REMARK    4  A    between atoms: O_16  and  C_17
REMARK    5  A    between atoms: C_17  and  C_18
REMARK    6  A    between atoms: C_18  and  C_19
REMARK    7  A    between atoms: C_19  and  N_20
REMARK    8  A    between atoms: C_23  and  C_24
REMARK                            x       y       z     vdW  Elec       q    Type
REMARK                         _______ _______ _______ _____ _____    ______ ____
ROOT
ATOM      1  O   UNL     1       2.541   8.145  18.487  0.00  0.00    +0.000 OA
ENDROOT
BRANCH   1   2
ATOM      2  C   UNL     1       3.325   7.283  17.646  0.00  0.00    +0.000 C 
BRANCH   2  12
ATOM      3  C   UNL     1       4.563   5.123  18.219  0.00  0.00    +0.000 C 
ATOM      4  O   UNL     1       4.426   3.760  18.663  0.00  0.00    +0.000 OA
ATOM      5  C   UNL     1       3.502   3.621  19.658  0.00  0.00    +0.000 A 
ATOM      6  C   UNL     1       3.587   2.458  20.423  0.00  0.00    +0.000 A 
ATOM      7  C   UNL     1       2.673   2.231  21.451  0.00  0.00    +0.000 A 
ATOM      8  C   UNL     1       1.660   3.156  21.697  0.00  0.00    +0.000 A 
ATOM      9  C   UNL     1       1.577   4.320  20.927  0.00  0.00    +0.000 A 
ATOM     10  C   UNL     1       2.504   4.559  19.912  0.00  0.00    +0.000 A 
ATOM     11  O   UNL     1       2.383   5.738  19.232  0.00  0.00    +0.000 OA
ATOM     12  C   UNL     1       3.192   5.800  18.038  0.00  0.00    +0.000 C 
BRANCH   3  16
ATOM     13  C   UNL     1       6.934   4.718  14.611  0.00  0.00    +0.000 A 
ATOM     14  C   UNL     1       5.641   4.202  14.651  0.00  0.00    +0.000 A 
ATOM     15  C   UNL     1       4.858   4.363  15.796  0.00  0.00    +0.000 A 
ATOM     16  C   UNL     1       5.366   5.030  16.926  0.00  0.00    +0.000 A 
ATOM     17  C   UNL     1       6.660   5.566  16.860  0.00  0.00    +0.000 A 
ATOM     18  C   UNL     1       7.440   5.411  15.710  0.00  0.00    +0.000 A 
ENDBRANCH   3  16
ENDBRANCH   2  12
ENDBRANCH   1   2
BRANCH   1  19
ATOM     19  C   UNL     1       2.068   9.271  17.744  0.00  0.00    +0.000 C 
BRANCH  19  20
ATOM     20  C   UNL     1       0.772   9.809  18.333  0.00  0.00    +0.000 C 
BRANCH  20  21
ATOM     21  C   UNL     1       0.816   9.951  19.860  0.00  0.00    +0.000 C 
BRANCH  21  22
ATOM     22  N   UNL     1       0.316  11.269  20.317  0.00  0.00    +0.000 NA
ATOM     23  C   UNL     1      -0.293  12.016  19.206  0.00  0.00    +0.000 C 
ATOM     24  C   UNL     1      -0.778  13.388  19.667  0.00  0.00    +0.000 C 
ATOM     25  C   UNL     1      -1.835  13.255  20.762  0.00  0.00    +0.000 C 
ATOM     26  C   UNL     1      -1.247  12.412  21.903  0.00  0.00    +0.000 C 
ATOM     27  C   UNL     1      -0.650  11.081  21.418  0.00  0.00    +0.000 C 
BRANCH  25  28
ATOM     28  C   UNL     1      -3.101  12.663  20.214  0.00  0.00    +0.000 A 
ATOM     29  N   UNL     1      -3.306  12.125  19.026  0.00  0.00    +0.000 NA
ATOM     30  C   UNL     1      -4.655  11.900  18.998  0.00  0.00    +0.000 A 
ATOM     31  C   UNL     1      -5.471  11.392  17.982  0.00  0.00    +0.000 A 
ATOM     32  C   UNL     1      -6.844  11.286  18.233  0.00  0.00    +0.000 A 
ATOM     33  C   UNL     1      -7.392  11.671  19.466  0.00  0.00    +0.000 A 
ATOM     34  C   UNL     1      -6.581  12.184  20.493  0.00  0.00    +0.000 A 
ATOM     35  C   UNL     1      -5.225  12.279  20.202  0.00  0.00    +0.000 A 
ATOM     36  O   UNL     1      -4.227  12.760  21.000  0.00  0.00    +0.000 OA
ENDBRANCH  25  28
ENDBRANCH  21  22
ENDBRANCH  20  21
ENDBRANCH  19  20
ENDBRANCH   1  19
TORSDOF 8
ENDMDL
MODEL 9
REMARK VINA RESULT:      -8.9      1.204      4.047
REMARK  Name = 
REMARK  8 active torsions:
REMARK  status: ('A' for Active; 'I' for Inactive)
REMARK    1  A    between atoms: C_4  and  C_5
REMARK    2  A    between atoms: C_14  and  C_15
REMARK    3  A    between atoms: C_15  and  O_16
REMARK    4  A    between atoms: O_16  and  C_17
REMARK    5  A    between atoms: C_17  and  C_18
REMARK    6  A    between atoms: C_18  and  C_19
REMARK    7  A    between atoms: C_19  and  N_20
REMARK    8  A    between atoms: C_23  and  C_24
REMARK                            x       y       z     vdW  Elec       q    Type
REMARK                         _______ _______ _______ _____ _____    ______ ____
ROOT
ATOM      1  O   UNL     1       6.968   7.875  17.497  0.00  0.00    +0.000 OA
ENDROOT
BRANCH   1   2
ATOM      2  C   UNL     1       6.990   6.563  16.912  0.00  0.00    +0.000 C 
BRANCH   2  12
ATOM      3  C   UNL     1       5.616   4.522  16.225  0.00  0.00    +0.000 C 
ATOM      4  O   UNL     1       4.295   3.954  16.145  0.00  0.00    +0.000 OA
ATOM      5  C   UNL     1       3.537   4.228  17.247  0.00  0.00    +0.000 A 
ATOM      6  C   UNL     1       2.429   3.407  17.455  0.00  0.00    +0.000 A 
ATOM      7  C   UNL     1       1.593   3.626  18.549  0.00  0.00    +0.000 A 
ATOM      8  C   UNL     1       1.854   4.682  19.421  0.00  0.00    +0.000 A 
ATOM      9  C   UNL     1       2.964   5.504  19.209  0.00  0.00    +0.000 A 
ATOM     10  C   UNL     1       3.814   5.272  18.126  0.00  0.00    +0.000 A 
ATOM     11  O   UNL     1       4.902   6.091  18.010  0.00  0.00    +0.000 OA
ATOM     12  C   UNL     1       5.579   5.973  16.741  0.00  0.00    +0.000 C 
BRANCH   3  16
ATOM     13  C   UNL     1       7.090   4.288  12.154  0.00  0.00    +0.000 A 
ATOM     14  C   UNL     1       7.754   5.082  13.086  0.00  0.00    +0.000 A 
ATOM     15  C   UNL     1       7.307   5.132  14.408  0.00  0.00    +0.000 A 
ATOM     16  C   UNL     1       6.178   4.397  14.813  0.00  0.00    +0.000 A 
ATOM     17  C   UNL     1       5.536   3.582  13.869  0.00  0.00    +0.000 A 
ATOM     18  C   UNL     1       5.989   3.528  12.547  0.00  0.00    +0.000 A 
ENDBRANCH   3  16
ENDBRANCH   2  12
ENDBRANCH   1   2
BRANCH   1  19
ATOM     19  C   UNL     1       8.273   8.241  17.953  0.00  0.00    +0.000 C 
BRANCH  19  20
ATOM     20  C   UNL     1       8.419   9.753  18.037  0.00  0.00    +0.000 C 
BRANCH  20  21
ATOM     21  C   UNL     1       9.210  10.216  19.267  0.00  0.00    +0.000 C 
BRANCH  21  22
ATOM     22  N   UNL     1      10.445  10.947  18.899  0.00  0.00    +0.000 NA
ATOM     23  C   UNL     1      10.178  11.935  17.842  0.00  0.00    +0.000 C 
ATOM     24  C   UNL     1      11.455  12.666  17.437  0.00  0.00    +0.000 C 
ATOM     25  C   UNL     1      12.055  13.418  18.624  0.00  0.00    +0.000 C 
ATOM     26  C   UNL     1      12.274  12.418  19.770  0.00  0.00    +0.000 C 
ATOM     27  C   UNL     1      11.016  11.598  20.095  0.00  0.00    +0.000 C 
BRANCH  25  28
ATOM     28  C   UNL     1      11.176  14.564  19.031  0.00  0.00    +0.000 A 
ATOM     29  N   UNL     1      10.954  15.034  20.245  0.00  0.00    +0.000 NA
ATOM     30  C   UNL     1       9.965  15.961  20.060  0.00  0.00    +0.000 A 
ATOM     31  C   UNL     1       9.279  16.755  20.985  0.00  0.00    +0.000 A 
ATOM     32  C   UNL     1       8.287  17.617  20.502  0.00  0.00    +0.000 A 
ATOM     33  C   UNL     1       7.988  17.693  19.133  0.00  0.00    +0.000 A 
ATOM     34  C   UNL     1       8.671  16.898  18.196  0.00  0.00    +0.000 A 
ATOM     35  C   UNL     1       9.643  16.051  18.716  0.00  0.00    +0.000 A 
ATOM     36  O   UNL     1      10.431  15.163  18.040  0.00  0.00    +0.000 OA
ENDBRANCH  25  28
ENDBRANCH  21  22
ENDBRANCH  20  21
ENDBRANCH  19  20
ENDBRANCH   1  19
TORSDOF 8
ENDMDL
