MODEL 1
REMARK VINA RESULT:      -8.9      0.000      0.000
REMARK  Name = 
REMARK  8 active torsions:
REMARK  status: ('A' for Active; 'I' for Inactive)
REMARK    1  A    between atoms: C_1  and  C_2
REMARK    2  A    between atoms: C_4  and  C_5
REMARK    3  A    between atoms: C_7  and  C_8
REMARK    4  A    between atoms: C_8  and  C_9
REMARK    5  A    between atoms: N_11  and  C_12
REMARK    6  A    between atoms: C_12  and  C_13
REMARK    7  A    between atoms: C_23  and  O_24
REMARK    8  A    between atoms: C_25  and  C_26
REMARK                            x       y       z     vdW  Elec       q    Type
REMARK                         _______ _______ _______ _____ _____    ______ ____
ROOT
ATOM      1  C   UNL     1       4.064   5.240  16.738  0.00  0.00    +0.000 C 
ATOM      2  C   UNL     1       4.824   6.541  17.019  0.00  0.00    +0.000 C 
ATOM      3  C   UNL     1       6.330   6.324  17.145  0.00  0.00    +0.000 C 
ATOM      4  C   UNL     1       6.828   5.476  15.984  0.00  0.00    +0.000 C 
ATOM      5  C   UNL     1       5.981   4.299  15.634  0.00  0.00    +0.000 C 
ATOM      6  O   UNL     1       6.456   3.237  15.241  0.00  0.00    +0.000 OA
ATOM      7  O   UNL     1       4.655   4.516  15.648  0.00  0.00    +0.000 OA
ENDROOT
BRANCH   1  11
ATOM      8  C   UNL     1       4.685   1.869  19.870  0.00  0.00    +0.000 C 
ATOM      9  C   UNL     1       3.548   1.879  18.844  0.00  0.00    +0.000 C 
ATOM     10  C   UNL     1       3.888   2.793  17.665  0.00  0.00    +0.000 C 
ATOM     11  C   UNL     1       3.793   4.305  17.959  0.00  0.00    +0.000 C 
ATOM     12  C   UNL     1       2.443   4.654  18.643  0.00  0.00    +0.000 C 
ATOM     13  C   UNL     1       2.142   3.744  19.848  0.00  0.00    +0.000 C 
ATOM     14  C   UNL     1       0.776   4.060  20.458  0.00  0.00    +0.000 C 
ATOM     15  C   UNL     1       2.202   2.263  19.451  0.00  0.00    +0.000 C 
BRANCH  12  16
ATOM     16  O   UNL     1       1.327   4.618  17.760  0.00  0.00    +0.000 OA
ATOM     17  H   UNL     1       0.761   3.851  17.954  0.00  0.00    +0.000 HD
ENDBRANCH  12  16
ENDBRANCH   1  11
BRANCH   3  18
ATOM     18  C   UNL     1       7.097   7.629  17.401  0.00  0.00    +0.000 C 
BRANCH  18  19
ATOM     19  C   UNL     1       8.125   7.547  18.502  0.00  0.00    +0.000 C 
ATOM     20  O   UNL     1       8.350   6.490  19.091  0.00  0.00    +0.000 OA
ATOM     21  N   UNL     1       8.783   8.677  18.879  0.00  0.00    +0.000 N 
ATOM     22  H   UNL     1       9.467   8.512  19.606  0.00  0.00    +0.000 HD
BRANCH  21  23
ATOM     23  C   UNL     1       8.780   9.980  18.246  0.00  0.00    +0.000 C 
BRANCH  23  24
ATOM     24  C   UNL     1       9.825  10.912  18.782  0.00  0.00    +0.000 A 
ATOM     25  C   UNL     1       9.859  11.202  20.154  0.00  0.00    +0.000 A 
ATOM     26  C   UNL     1      10.828  12.059  20.676  0.00  0.00    +0.000 A 
ATOM     27  C   UNL     1      11.775  12.617  19.821  0.00  0.00    +0.000 A 
ATOM     28  C   UNL     1      11.753  12.331  18.458  0.00  0.00    +0.000 A 
ATOM     29  C   UNL     1      10.783  11.477  17.936  0.00  0.00    +0.000 A 
ENDBRANCH  23  24
ENDBRANCH  21  23
ENDBRANCH  18  19
ENDBRANCH   3  18
TORSDOF 6
ENDMDL
MODEL 2
REMARK VINA RESULT:      -8.6      0.610      1.112
REMARK  Name = 
REMARK  8 active torsions:
REMARK  status: ('A' for Active; 'I' for Inactive)
REMARK    1  A    between atoms: C_1  and  C_2
REMARK    2  A    between atoms: C_4  and  C_5
REMARK    3  A    between atoms: C_7  and  C_8
REMARK    4  A    between atoms: C_8  and  C_9
REMARK    5  A    between atoms: N_11  and  C_12
REMARK    6  A    between atoms: C_12  and  C_13
REMARK    7  A    between atoms: C_23  and  O_24
REMARK    8  A    between atoms: C_25  and  C_26
REMARK                            x       y       z     vdW  Elec       q    Type
REMARK                         _______ _______ _______ _____ _____    ______ ____
ROOT
ATOM      1  C   UNL     1       4.022   5.120  16.671  0.00  0.00    +0.000 C 
ATOM      2  C   UNL     1       4.760   6.416  17.024  0.00  0.00    +0.000 C 
ATOM      3  C   UNL     1       6.275   6.235  17.066  0.00  0.00    +0.000 C 
ATOM      4  C   UNL     1       6.741   5.499  15.819  0.00  0.00    +0.000 C 
ATOM      5  C   UNL     1       5.910   4.329  15.411  0.00  0.00    +0.000 C 
ATOM      6  O   UNL     1       6.395   3.317  14.911  0.00  0.00    +0.000 OA
ATOM      7  O   UNL     1       4.581   4.504  15.500  0.00  0.00    +0.000 OA
ENDROOT
BRANCH   1  11
ATOM      8  C   UNL     1       4.167   1.092  18.976  0.00  0.00    +0.000 C 
ATOM      9  C   UNL     1       2.868   1.791  18.565  0.00  0.00    +0.000 C 
ATOM     10  C   UNL     1       3.119   2.773  17.419  0.00  0.00    +0.000 C 
ATOM     11  C   UNL     1       3.832   4.081  17.822  0.00  0.00    +0.000 C 
ATOM     12  C   UNL     1       3.147   4.731  19.054  0.00  0.00    +0.000 C 
ATOM     13  C   UNL     1       2.938   3.730  20.206  0.00  0.00    +0.000 C 
ATOM     14  C   UNL     1       2.197   4.375  21.378  0.00  0.00    +0.000 C 
ATOM     15  C   UNL     1       2.172   2.489  19.729  0.00  0.00    +0.000 C 
BRANCH  12  16
ATOM     16  O   UNL     1       1.897   5.345  18.758  0.00  0.00    +0.000 OA
ATOM     17  H   UNL     1       1.790   6.169  19.265  0.00  0.00    +0.000 HD
ENDBRANCH  12  16
ENDBRANCH   1  11
BRANCH   3  18
ATOM     18  C   UNL     1       7.018   7.538  17.395  0.00  0.00    +0.000 C 
BRANCH  18  19
ATOM     19  C   UNL     1       8.072   7.406  18.466  0.00  0.00    +0.000 C 
ATOM     20  O   UNL     1       8.319   6.320  18.992  0.00  0.00    +0.000 OA
ATOM     21  N   UNL     1       8.731   8.519  18.888  0.00  0.00    +0.000 N 
ATOM     22  H   UNL     1       9.433   8.322  19.589  0.00  0.00    +0.000 HD
BRANCH  21  23
ATOM     23  C   UNL     1       8.704   9.854  18.325  0.00  0.00    +0.000 C 
BRANCH  23  24
ATOM     24  C   UNL     1       9.731  10.776  18.912  0.00  0.00    +0.000 A 
ATOM     25  C   UNL     1      10.738  11.304  18.093  0.00  0.00    +0.000 A 
ATOM     26  C   UNL     1      11.698  12.171  18.616  0.00  0.00    +0.000 A 
ATOM     27  C   UNL     1      11.639  12.520  19.963  0.00  0.00    +0.000 A 
ATOM     28  C   UNL     1      10.639  12.004  20.784  0.00  0.00    +0.000 A 
ATOM     29  C   UNL     1       9.682  11.136  20.262  0.00  0.00    +0.000 A 
ENDBRANCH  23  24
ENDBRANCH  21  23
ENDBRANCH  18  19
ENDBRANCH   3  18
TORSDOF 6
ENDMDL
MODEL 3
REMARK VINA RESULT:      -8.4      0.930      1.100
REMARK  Name = 
REMARK  8 active torsions:
REMARK  status: ('A' for Active; 'I' for Inactive)
REMARK    1  A    between atoms: C_1  and  C_2
REMARK    2  A    between atoms: C_4  and  C_5
REMARK    3  A    between atoms: C_7  and  C_8
REMARK    4  A    between atoms: C_8  and  C_9
REMARK    5  A    between atoms: N_11  and  C_12
REMARK    6  A    between atoms: C_12  and  C_13
REMARK    7  A    between atoms: C_23  and  O_24
REMARK    8  A    between atoms: C_25  and  C_26
REMARK                            x       y       z     vdW  Elec       q    Type
REMARK                         _______ _______ _______ _____ _____    ______ ____
ROOT
ATOM      1  C   UNL     1       4.124   5.705  16.545  0.00  0.00    +0.000 C 
ATOM      2  C   UNL     1       5.060   6.905  16.730  0.00  0.00    +0.000 C 
ATOM      3  C   UNL     1       6.491   6.488  17.060  0.00  0.00    +0.000 C 
ATOM      4  C   UNL     1       6.948   5.405  16.093  0.00  0.00    +0.000 C 
ATOM      5  C   UNL     1       5.954   4.328  15.814  0.00  0.00    +0.000 C 
ATOM      6  O   UNL     1       6.282   3.159  15.630  0.00  0.00    +0.000 OA
ATOM      7  O   UNL     1       4.687   4.740  15.643  0.00  0.00    +0.000 OA
ENDROOT
BRANCH   1  11
ATOM      8  C   UNL     1       3.162   2.386  19.646  0.00  0.00    +0.000 C 
ATOM      9  C   UNL     1       2.093   3.181  18.891  0.00  0.00    +0.000 C 
ATOM     10  C   UNL     1       2.675   3.801  17.619  0.00  0.00    +0.000 C 
ATOM     11  C   UNL     1       3.590   5.022  17.845  0.00  0.00    +0.000 C 
ATOM     12  C   UNL     1       2.914   6.058  18.783  0.00  0.00    +0.000 C 
ATOM     13  C   UNL     1       2.369   5.415  20.072  0.00  0.00    +0.000 C 
ATOM     14  C   UNL     1       1.644   6.441  20.944  0.00  0.00    +0.000 C 
ATOM     15  C   UNL     1       1.425   4.248  19.752  0.00  0.00    +0.000 C 
BRANCH  12  16
ATOM     16  O   UNL     1       1.862   6.790  18.165  0.00  0.00    +0.000 OA
ATOM     17  H   UNL     1       2.187   7.644  17.832  0.00  0.00    +0.000 HD
ENDBRANCH  12  16
ENDBRANCH   1  11
BRANCH   3  18
ATOM     18  C   UNL     1       7.435   7.688  17.220  0.00  0.00    +0.000 C 
BRANCH  18  19
ATOM     19  C   UNL     1       8.246   7.682  18.491  0.00  0.00    +0.000 C 
ATOM     20  O   UNL     1       8.411   6.650  19.142  0.00  0.00    +0.000 OA
ATOM     21  N   UNL     1       8.769   8.852  18.949  0.00  0.00    +0.000 N 
ATOM     22  H   UNL     1       9.315   8.738  19.793  0.00  0.00    +0.000 HD
BRANCH  21  23
ATOM     23  C   UNL     1       8.819  10.140  18.288  0.00  0.00    +0.000 C 
BRANCH  23  24
ATOM     24  C   UNL     1       9.949  11.011  18.751  0.00  0.00    +0.000 A 
ATOM     25  C   UNL     1      10.116  11.262  20.121  0.00  0.00    +0.000 A 
ATOM     26  C   UNL     1      11.166  12.061  20.574  0.00  0.00    +0.000 A 
ATOM     27  C   UNL     1      12.060  12.599  19.652  0.00  0.00    +0.000 A 
ATOM     28  C   UNL     1      11.905  12.351  18.290  0.00  0.00    +0.000 A 
ATOM     29  C   UNL     1      10.855  11.555  17.837  0.00  0.00    +0.000 A 
ENDBRANCH  23  24
ENDBRANCH  21  23
ENDBRANCH  18  19
ENDBRANCH   3  18
TORSDOF 6
ENDMDL
MODEL 4
REMARK VINA RESULT:      -7.9      1.164      1.520
REMARK  Name = 
REMARK  8 active torsions:
REMARK  status: ('A' for Active; 'I' for Inactive)
REMARK    1  A    between atoms: C_1  and  C_2
REMARK    2  A    between atoms: C_4  and  C_5
REMARK    3  A    between atoms: C_7  and  C_8
REMARK    4  A    between atoms: C_8  and  C_9
REMARK    5  A    between atoms: N_11  and  C_12
REMARK    6  A    between atoms: C_12  and  C_13
REMARK    7  A    between atoms: C_23  and  O_24
REMARK    8  A    between atoms: C_25  and  C_26
REMARK                            x       y       z     vdW  Elec       q    Type
REMARK                         _______ _______ _______ _____ _____    ______ ____
ROOT
ATOM      1  C   UNL     1       4.427   5.478  16.987  0.00  0.00    +0.000 C 
ATOM      2  C   UNL     1       5.375   6.517  17.594  0.00  0.00    +0.000 C 
ATOM      3  C   UNL     1       6.823   6.036  17.639  0.00  0.00    +0.000 C 
ATOM      4  C   UNL     1       7.216   5.457  16.287  0.00  0.00    +0.000 C 
ATOM      5  C   UNL     1       6.204   4.566  15.648  0.00  0.00    +0.000 C 
ATOM      6  O   UNL     1       6.516   3.585  14.980  0.00  0.00    +0.000 OA
ATOM      7  O   UNL     1       4.929   4.982  15.736  0.00  0.00    +0.000 OA
ENDROOT
BRANCH   1  11
ATOM      8  C   UNL     1       3.703   1.155  18.520  0.00  0.00    +0.000 C 
ATOM      9  C   UNL     1       2.578   2.139  18.186  0.00  0.00    +0.000 C 
ATOM     10  C   UNL     1       3.081   3.242  17.251  0.00  0.00    +0.000 C 
ATOM     11  C   UNL     1       3.975   4.308  17.919  0.00  0.00    +0.000 C 
ATOM     12  C   UNL     1       3.318   4.850  19.217  0.00  0.00    +0.000 C 
ATOM     13  C   UNL     1       2.853   3.721  20.156  0.00  0.00    +0.000 C 
ATOM     14  C   UNL     1       2.145   4.279  21.392  0.00  0.00    +0.000 C 
ATOM     15  C   UNL     1       1.925   2.741  19.426  0.00  0.00    +0.000 C 
BRANCH  12  16
ATOM     16  O   UNL     1       2.218   5.723  18.983  0.00  0.00    +0.000 OA
ATOM     17  H   UNL     1       1.376   5.241  19.054  0.00  0.00    +0.000 HD
ENDBRANCH  12  16
ENDBRANCH   1  11
BRANCH   3  18
ATOM     18  C   UNL     1       7.778   7.086  18.223  0.00  0.00    +0.000 C 
BRANCH  18  19
ATOM     19  C   UNL     1       7.603   8.475  17.661  0.00  0.00    +0.000 C 
ATOM     20  O   UNL     1       6.829   8.697  16.730  0.00  0.00    +0.000 OA
ATOM     21  N   UNL     1       8.352   9.493  18.165  0.00  0.00    +0.000 N 
ATOM     22  H   UNL     1       8.144  10.387  17.739  0.00  0.00    +0.000 HD
BRANCH  21  23
ATOM     23  C   UNL     1       9.211   9.492  19.332  0.00  0.00    +0.000 C 
BRANCH  23  24
ATOM     24  C   UNL     1       9.877  10.811  19.591  0.00  0.00    +0.000 A 
ATOM     25  C   UNL     1      10.674  11.394  18.595  0.00  0.00    +0.000 A 
ATOM     26  C   UNL     1      11.295  12.624  18.811  0.00  0.00    +0.000 A 
ATOM     27  C   UNL     1      11.104  13.280  20.024  0.00  0.00    +0.000 A 
ATOM     28  C   UNL     1      10.310  12.712  21.018  0.00  0.00    +0.000 A 
ATOM     29  C   UNL     1       9.692  11.481  20.803  0.00  0.00    +0.000 A 
ENDBRANCH  23  24
ENDBRANCH  21  23
ENDBRANCH  18  19
ENDBRANCH   3  18
TORSDOF 6
ENDMDL
MODEL 5
REMARK VINA RESULT:      -7.9      6.948     10.307
REMARK  Name = 
REMARK  8 active torsions:
REMARK  status: ('A' for Active; 'I' for Inactive)
REMARK    1  A    between atoms: C_1  and  C_2
REMARK    2  A    between atoms: C_4  and  C_5
REMARK    3  A    between atoms: C_7  and  C_8
REMARK    4  A    between atoms: C_8  and  C_9
REMARK    5  A    between atoms: N_11  and  C_12
REMARK    6  A    between atoms: C_12  and  C_13
REMARK    7  A    between atoms: C_23  and  O_24
REMARK    8  A    between atoms: C_25  and  C_26
REMARK                            x       y       z     vdW  Elec       q    Type
REMARK                         _______ _______ _______ _____ _____    ______ ____
ROOT
ATOM      1  C   UNL     1      -1.747  11.294  19.676  0.00  0.00    +0.000 C 
ATOM      2  C   UNL     1      -0.642  10.279  19.991  0.00  0.00    +0.000 C 
ATOM      3  C   UNL     1       0.562  10.415  19.063  0.00  0.00    +0.000 C 
ATOM      4  C   UNL     1       0.979  11.876  18.970  0.00  0.00    +0.000 C 
ATOM      5  C   UNL     1      -0.135  12.857  18.816  0.00  0.00    +0.000 C 
ATOM      6  O   UNL     1      -0.029  13.875  18.137  0.00  0.00    +0.000 OA
ATOM      7  O   UNL     1      -1.218  12.625  19.576  0.00  0.00    +0.000 OA
ENDROOT
BRANCH   1  11
ATOM      8  C   UNL     1      -3.129   9.699  15.540  0.00  0.00    +0.000 C 
ATOM      9  C   UNL     1      -3.127  11.182  15.923  0.00  0.00    +0.000 C 
ATOM     10  C   UNL     1      -2.173  11.439  17.092  0.00  0.00    +0.000 C 
ATOM     11  C   UNL     1      -2.682  10.963  18.469  0.00  0.00    +0.000 C 
ATOM     12  C   UNL     1      -4.129  11.463  18.730  0.00  0.00    +0.000 C 
ATOM     13  C   UNL     1      -5.076  11.161  17.554  0.00  0.00    +0.000 C 
ATOM     14  C   UNL     1      -6.475  11.726  17.804  0.00  0.00    +0.000 C 
ATOM     15  C   UNL     1      -4.520  11.718  16.237  0.00  0.00    +0.000 C 
BRANCH  12  16
ATOM     16  O   UNL     1      -4.210  12.853  19.028  0.00  0.00    +0.000 OA
ATOM     17  H   UNL     1      -4.975  13.037  19.601  0.00  0.00    +0.000 HD
ENDBRANCH  12  16
ENDBRANCH   1  11
BRANCH   3  18
ATOM     18  C   UNL     1       1.680   9.417  19.393  0.00  0.00    +0.000 C 
BRANCH  18  19
ATOM     19  C   UNL     1       2.174   8.615  18.215  0.00  0.00    +0.000 C 
ATOM     20  O   UNL     1       2.282   9.119  17.097  0.00  0.00    +0.000 OA
ATOM     21  N   UNL     1       2.461   7.296  18.385  0.00  0.00    +0.000 N 
ATOM     22  H   UNL     1       2.806   6.854  17.543  0.00  0.00    +0.000 HD
BRANCH  21  23
ATOM     23  C   UNL     1       2.538   6.538  19.618  0.00  0.00    +0.000 C 
BRANCH  23  24
ATOM     24  C   UNL     1       2.004   5.142  19.500  0.00  0.00    +0.000 A 
ATOM     25  C   UNL     1       2.100   4.462  18.277  0.00  0.00    +0.000 A 
ATOM     26  C   UNL     1       1.618   3.159  18.148  0.00  0.00    +0.000 A 
ATOM     27  C   UNL     1       1.051   2.530  19.254  0.00  0.00    +0.000 A 
ATOM     28  C   UNL     1       0.957   3.195  20.474  0.00  0.00    +0.000 A 
ATOM     29  C   UNL     1       1.435   4.498  20.602  0.00  0.00    +0.000 A 
ENDBRANCH  23  24
ENDBRANCH  21  23
ENDBRANCH  18  19
ENDBRANCH   3  18
TORSDOF 6
ENDMDL
MODEL 6
REMARK VINA RESULT:      -7.9      9.261     11.691
REMARK  Name = 
REMARK  8 active torsions:
REMARK  status: ('A' for Active; 'I' for Inactive)
REMARK    1  A    between atoms: C_1  and  C_2
REMARK    2  A    between atoms: C_4  and  C_5
REMARK    3  A    between atoms: C_7  and  C_8
REMARK    4  A    between atoms: C_8  and  C_9
REMARK    5  A    between atoms: N_11  and  C_12
REMARK    6  A    between atoms: C_12  and  C_13
REMARK    7  A    between atoms: C_23  and  O_24
REMARK    8  A    between atoms: C_25  and  C_26
REMARK                            x       y       z     vdW  Elec       q    Type
REMARK                         _______ _______ _______ _____ _____    ______ ____
ROOT
ATOM      1  C   UNL     1      -3.070  12.032  18.227  0.00  0.00    +0.000 C 
ATOM      2  C   UNL     1      -1.787  11.819  19.038  0.00  0.00    +0.000 C 
ATOM      3  C   UNL     1      -1.302  10.373  19.000  0.00  0.00    +0.000 C 
ATOM      4  C   UNL     1      -1.296   9.869  17.564  0.00  0.00    +0.000 C 
ATOM      5  C   UNL     1      -2.495  10.224  16.750  0.00  0.00    +0.000 C 
ATOM      6  O   UNL     1      -2.965   9.469  15.903  0.00  0.00    +0.000 OA
ATOM      7  O   UNL     1      -2.950  11.478  16.907  0.00  0.00    +0.000 OA
ENDROOT
BRANCH   1  11
ATOM      8  C   UNL     1      -6.892   9.558  19.142  0.00  0.00    +0.000 C 
ATOM      9  C   UNL     1      -6.914  10.992  18.604  0.00  0.00    +0.000 C 
ATOM     10  C   UNL     1      -5.584  11.341  17.934  0.00  0.00    +0.000 C 
ATOM     11  C   UNL     1      -4.410  11.599  18.903  0.00  0.00    +0.000 C 
ATOM     12  C   UNL     1      -4.820  12.596  20.020  0.00  0.00    +0.000 C 
ATOM     13  C   UNL     1      -6.144  12.202  20.702  0.00  0.00    +0.000 C 
ATOM     14  C   UNL     1      -6.562  13.237  21.747  0.00  0.00    +0.000 C 
ATOM     15  C   UNL     1      -7.266  12.023  19.672  0.00  0.00    +0.000 C 
BRANCH  12  16
ATOM     16  O   UNL     1      -4.926  13.944  19.575  0.00  0.00    +0.000 OA
ATOM     17  H   UNL     1      -4.236  14.496  19.983  0.00  0.00    +0.000 HD
ENDBRANCH  12  16
ENDBRANCH   1  11
BRANCH   3  18
ATOM     18  C   UNL     1      -0.003  10.163  19.791  0.00  0.00    +0.000 C 
BRANCH  18  19
ATOM     19  C   UNL     1      -0.196   9.599  21.176  0.00  0.00    +0.000 C 
ATOM     20  O   UNL     1      -0.227   8.384  21.375  0.00  0.00    +0.000 OA
ATOM     21  N   UNL     1      -0.386  10.452  22.218  0.00  0.00    +0.000 N 
ATOM     22  H   UNL     1      -0.482   9.978  23.107  0.00  0.00    +0.000 HD
BRANCH  21  23
ATOM     23  C   UNL     1      -0.254  11.895  22.242  0.00  0.00    +0.000 C 
BRANCH  23  24
ATOM     24  C   UNL     1      -1.377  12.591  22.952  0.00  0.00    +0.000 A 
ATOM     25  C   UNL     1      -2.573  11.902  23.201  0.00  0.00    +0.000 A 
ATOM     26  C   UNL     1      -3.627  12.528  23.868  0.00  0.00    +0.000 A 
ATOM     27  C   UNL     1      -3.476  13.843  24.299  0.00  0.00    +0.000 A 
ATOM     28  C   UNL     1      -2.290  14.534  24.061  0.00  0.00    +0.000 A 
ATOM     29  C   UNL     1      -1.238  13.910  23.392  0.00  0.00    +0.000 A 
ENDBRANCH  23  24
ENDBRANCH  21  23
ENDBRANCH  18  19
ENDBRANCH   3  18
TORSDOF 6
ENDMDL
MODEL 7
REMARK VINA RESULT:      -7.9      4.230      6.960
REMARK  Name = 
REMARK  8 active torsions:
REMARK  status: ('A' for Active; 'I' for Inactive)
REMARK    1  A    between atoms: C_1  and  C_2
REMARK    2  A    between atoms: C_4  and  C_5
REMARK    3  A    between atoms: C_7  and  C_8
REMARK    4  A    between atoms: C_8  and  C_9
REMARK    5  A    between atoms: N_11  and  C_12
REMARK    6  A    between atoms: C_12  and  C_13
REMARK    7  A    between atoms: C_23  and  O_24
REMARK    8  A    between atoms: C_25  and  C_26
REMARK                            x       y       z     vdW  Elec       q    Type
REMARK                         _______ _______ _______ _____ _____    ______ ____
ROOT
ATOM      1  C   UNL     1       2.379   6.856  18.258  0.00  0.00    +0.000 C 
ATOM      2  C   UNL     1       3.743   6.874  17.559  0.00  0.00    +0.000 C 
ATOM      3  C   UNL     1       4.870   6.376  18.460  0.00  0.00    +0.000 C 
ATOM      4  C   UNL     1       4.459   5.071  19.126  0.00  0.00    +0.000 C 
ATOM      5  C   UNL     1       3.068   5.031  19.663  0.00  0.00    +0.000 C 
ATOM      6  O   UNL     1       2.774   4.427  20.691  0.00  0.00    +0.000 OA
ATOM      7  O   UNL     1       2.129   5.585  18.878  0.00  0.00    +0.000 OA
ENDROOT
BRANCH   1  11
ATOM      8  C   UNL     1       1.664   9.150  22.231  0.00  0.00    +0.000 C 
ATOM      9  C   UNL     1       0.591   8.955  21.155  0.00  0.00    +0.000 C 
ATOM     10  C   UNL     1       0.939   7.772  20.249  0.00  0.00    +0.000 C 
ATOM     11  C   UNL     1       2.073   8.034  19.236  0.00  0.00    +0.000 C 
ATOM     12  C   UNL     1       1.831   9.357  18.460  0.00  0.00    +0.000 C 
ATOM     13  C   UNL     1       1.518  10.539  19.397  0.00  0.00    +0.000 C 
ATOM     14  C   UNL     1       1.212  11.812  18.606  0.00  0.00    +0.000 C 
ATOM     15  C   UNL     1       0.343  10.212  20.328  0.00  0.00    +0.000 C 
BRANCH  12  16
ATOM     16  O   UNL     1       0.797   9.269  17.485  0.00  0.00    +0.000 OA
ATOM     17  H   UNL     1       1.174   9.168  16.594  0.00  0.00    +0.000 HD
ENDBRANCH  12  16
ENDBRANCH   1  11
BRANCH   3  18
ATOM     18  C   UNL     1       6.233   6.370  17.754  0.00  0.00    +0.000 C 
BRANCH  18  19
ATOM     19  C   UNL     1       6.962   5.050  17.808  0.00  0.00    +0.000 C 
ATOM     20  O   UNL     1       7.790   4.810  18.687  0.00  0.00    +0.000 OA
ATOM     21  N   UNL     1       6.728   4.124  16.838  0.00  0.00    +0.000 N 
ATOM     22  H   UNL     1       7.246   3.266  16.977  0.00  0.00    +0.000 HD
BRANCH  21  23
ATOM     23  C   UNL     1       5.714   4.133  15.804  0.00  0.00    +0.000 C 
BRANCH  23  24
ATOM     24  C   UNL     1       6.271   4.223  14.415  0.00  0.00    +0.000 A 
ATOM     25  C   UNL     1       5.703   3.455  13.388  0.00  0.00    +0.000 A 
ATOM     26  C   UNL     1       6.200   3.531  12.086  0.00  0.00    +0.000 A 
ATOM     27  C   UNL     1       7.261   4.389  11.811  0.00  0.00    +0.000 A 
ATOM     28  C   UNL     1       7.828   5.160  12.823  0.00  0.00    +0.000 A 
ATOM     29  C   UNL     1       7.334   5.082  14.124  0.00  0.00    +0.000 A 
ENDBRANCH  23  24
ENDBRANCH  21  23
ENDBRANCH  18  19
ENDBRANCH   3  18
TORSDOF 6
ENDMDL
MODEL 8
REMARK VINA RESULT:      -7.8      4.301      6.824
REMARK  Name = 
REMARK  8 active torsions:
REMARK  status: ('A' for Active; 'I' for Inactive)
REMARK    1  A    between atoms: C_1  and  C_2
REMARK    2  A    between atoms: C_4  and  C_5
REMARK    3  A    between atoms: C_7  and  C_8
REMARK    4  A    between atoms: C_8  and  C_9
REMARK    5  A    between atoms: N_11  and  C_12
REMARK    6  A    between atoms: C_12  and  C_13
REMARK    7  A    between atoms: C_23  and  O_24
REMARK    8  A    between atoms: C_25  and  C_26
REMARK                            x       y       z     vdW  Elec       q    Type
REMARK                         _______ _______ _______ _____ _____    ______ ____
ROOT
ATOM      1  C   UNL     1       4.266   5.765  19.400  0.00  0.00    +0.000 C 
ATOM      2  C   UNL     1       5.506   5.859  18.504  0.00  0.00    +0.000 C 
ATOM      3  C   UNL     1       5.158   6.171  17.051  0.00  0.00    +0.000 C 
ATOM      4  C   UNL     1       4.181   7.336  16.992  0.00  0.00    +0.000 C 
ATOM      5  C   UNL     1       3.066   7.293  17.983  0.00  0.00    +0.000 C 
ATOM      6  O   UNL     1       1.937   7.701  17.724  0.00  0.00    +0.000 OA
ATOM      7  O   UNL     1       3.408   6.903  19.222  0.00  0.00    +0.000 OA
ENDROOT
BRANCH   1  11
ATOM      8  C   UNL     1       2.381   1.878  17.696  0.00  0.00    +0.000 C 
ATOM      9  C   UNL     1       1.563   3.068  18.208  0.00  0.00    +0.000 C 
ATOM     10  C   UNL     1       2.407   4.345  18.214  0.00  0.00    +0.000 C 
ATOM     11  C   UNL     1       3.456   4.431  19.342  0.00  0.00    +0.000 C 
ATOM     12  C   UNL     1       2.819   4.104  20.720  0.00  0.00    +0.000 C 
ATOM     13  C   UNL     1       2.005   2.797  20.696  0.00  0.00    +0.000 C 
ATOM     14  C   UNL     1       1.329   2.535  22.043  0.00  0.00    +0.000 C 
ATOM     15  C   UNL     1       0.950   2.822  19.583  0.00  0.00    +0.000 C 
BRANCH  12  16
ATOM     16  O   UNL     1       1.988   5.142  21.229  0.00  0.00    +0.000 OA
ATOM     17  H   UNL     1       2.526   5.891  21.540  0.00  0.00    +0.000 HD
ENDBRANCH  12  16
ENDBRANCH   1  11
BRANCH   3  18
ATOM     18  C   UNL     1       6.401   6.290  16.157  0.00  0.00    +0.000 C 
BRANCH  18  19
ATOM     19  C   UNL     1       7.209   5.023  16.034  0.00  0.00    +0.000 C 
ATOM     20  O   UNL     1       7.613   4.421  17.029  0.00  0.00    +0.000 OA
ATOM     21  N   UNL     1       7.536   4.563  14.796  0.00  0.00    +0.000 N 
ATOM     22  H   UNL     1       8.058   3.696  14.820  0.00  0.00    +0.000 HD
BRANCH  21  23
ATOM     23  C   UNL     1       7.063   5.023  13.506  0.00  0.00    +0.000 C 
BRANCH  23  24
ATOM     24  C   UNL     1       6.478   3.935  12.656  0.00  0.00    +0.000 A 
ATOM     25  C   UNL     1       7.327   3.016  12.022  0.00  0.00    +0.000 A 
ATOM     26  C   UNL     1       6.803   1.991  11.235  0.00  0.00    +0.000 A 
ATOM     27  C   UNL     1       5.423   1.878  11.093  0.00  0.00    +0.000 A 
ATOM     28  C   UNL     1       4.571   2.783  11.723  0.00  0.00    +0.000 A 
ATOM     29  C   UNL     1       5.094   3.809  12.507  0.00  0.00    +0.000 A 
ENDBRANCH  23  24
ENDBRANCH  21  23
ENDBRANCH  18  19
ENDBRANCH   3  18
TORSDOF 6
ENDMDL
MODEL 9
REMARK VINA RESULT:      -7.8      1.452      1.896
REMARK  Name = 
REMARK  8 active torsions:
REMARK  status: ('A' for Active; 'I' for Inactive)
REMARK    1  A    between atoms: C_1  and  C_2
REMARK    2  A    between atoms: C_4  and  C_5
REMARK    3  A    between atoms: C_7  and  C_8
REMARK    4  A    between atoms: C_8  and  C_9
REMARK    5  A    between atoms: N_11  and  C_12
REMARK    6  A    between atoms: C_12  and  C_13
REMARK    7  A    between atoms: C_23  and  O_24
REMARK    8  A    between atoms: C_25  and  C_26
REMARK                            x       y       z     vdW  Elec       q    Type
REMARK                         _______ _______ _______ _____ _____    ______ ____
ROOT
ATOM      1  C   UNL     1       3.747   5.915  17.142  0.00  0.00    +0.000 C 
ATOM      2  C   UNL     1       4.934   6.882  17.067  0.00  0.00    +0.000 C 
ATOM      3  C   UNL     1       6.251   6.228  17.476  0.00  0.00    +0.000 C 
ATOM      4  C   UNL     1       6.408   4.894  16.761  0.00  0.00    +0.000 C 
ATOM      5  C   UNL     1       5.187   4.037  16.719  0.00  0.00    +0.000 C 
ATOM      6  O   UNL     1       5.238   2.812  16.786  0.00  0.00    +0.000 OA
ATOM      7  O   UNL     1       4.037   4.682  16.465  0.00  0.00    +0.000 OA
ENDROOT
BRANCH   1  11
ATOM      8  C   UNL     1       2.425   3.641  20.968  0.00  0.00    +0.000 C 
ATOM      9  C   UNL     1       1.449   4.317  20.000  0.00  0.00    +0.000 C 
ATOM     10  C   UNL     1       2.098   4.519  18.629  0.00  0.00    +0.000 C 
ATOM     11  C   UNL     1       3.140   5.655  18.558  0.00  0.00    +0.000 C 
ATOM     12  C   UNL     1       2.578   6.964  19.174  0.00  0.00    +0.000 C 
ATOM     13  C   UNL     1       1.963   6.741  20.568  0.00  0.00    +0.000 C 
ATOM     14  C   UNL     1       1.352   8.029  21.122  0.00  0.00    +0.000 C 
ATOM     15  C   UNL     1       0.899   5.636  20.534  0.00  0.00    +0.000 C 
BRANCH  12  16
ATOM     16  O   UNL     1       1.612   7.615  18.355  0.00  0.00    +0.000 OA
ATOM     17  H   UNL     1       1.396   7.070  17.579  0.00  0.00    +0.000 HD
ENDBRANCH  12  16
ENDBRANCH   1  11
BRANCH   3  18
ATOM     18  C   UNL     1       7.445   7.188  17.377  0.00  0.00    +0.000 C 
BRANCH  18  19
ATOM     19  C   UNL     1       8.254   7.315  18.643  0.00  0.00    +0.000 C 
ATOM     20  O   UNL     1       8.446   6.348  19.381  0.00  0.00    +0.000 OA
ATOM     21  N   UNL     1       8.744   8.534  18.997  0.00  0.00    +0.000 N 
ATOM     22  H   UNL     1       9.292   8.509  19.848  0.00  0.00    +0.000 HD
BRANCH  21  23
ATOM     23  C   UNL     1       8.760   9.761  18.227  0.00  0.00    +0.000 C 
BRANCH  23  24
ATOM     24  C   UNL     1       9.628  10.832  18.817  0.00  0.00    +0.000 A 
ATOM     25  C   UNL     1       9.672  11.001  20.209  0.00  0.00    +0.000 A 
ATOM     26  C   UNL     1      10.481  11.985  20.780  0.00  0.00    +0.000 A 
ATOM     27  C   UNL     1      11.258  12.792  19.953  0.00  0.00    +0.000 A 
ATOM     28  C   UNL     1      11.225  12.627  18.570  0.00  0.00    +0.000 A 
ATOM     29  C   UNL     1      10.416  11.647  18.000  0.00  0.00    +0.000 A 
ENDBRANCH  23  24
ENDBRANCH  21  23
ENDBRANCH  18  19
ENDBRANCH   3  18
TORSDOF 6
ENDMDL
