MODEL 1
REMARK VINA RESULT:      -8.3      0.000      0.000
REMARK  Name = 
REMARK  7 active torsions:
REMARK  status: ('A' for Active; 'I' for Inactive)
REMARK    1  A    between atoms: C_1  and  N_2
REMARK    2  A    between atoms: N_4  and  C_5
REMARK    3  A    between atoms: C_5  and  C_6
REMARK    4  A    between atoms: C_6  and  C_7
REMARK    5  A    between atoms: N_13  and  C_14
REMARK    6  A    between atoms: C_16  and  C_17
REMARK    7  A    between atoms: N_18  and  C_19
REMARK                            x       y       z     vdW  Elec       q    Type
REMARK                         _______ _______ _______ _____ _____    ______ ____
ROOT
ATOM      1  C   UNL     1       8.121   5.559  20.296  0.00  0.00    +0.000 C 
ATOM      2  N   UNL     1       7.728   5.678  18.904  0.00  0.00    +0.000 NA
ATOM      3  C   UNL     1       7.978   6.754  18.249  0.00  0.00    +0.000 C 
ATOM      4  N   UNL     1       8.557   7.901  18.722  0.00  0.00    +0.000 N 
ATOM      5  N   UNL     1       7.690   6.835  16.923  0.00  0.00    +0.000 N 
ATOM      6  H   UNL     1       8.703   7.886  19.722  0.00  0.00    +0.000 HD
ATOM      7  H   UNL     1       8.051   7.644  16.441  0.00  0.00    +0.000 HD
ENDROOT
BRANCH   5   8
ATOM      8  C   UNL     1       6.568   6.179  16.284  0.00  0.00    +0.000 C 
ATOM      9  C   UNL     1       7.021   4.794  15.815  0.00  0.00    +0.000 C 
ATOM     10  C   UNL     1       5.746   3.964  15.781  0.00  0.00    +0.000 C 
ATOM     11  C   UNL     1       5.021   4.077  14.442  0.00  0.00    +0.000 C 
ATOM     12  N   UNL     1       4.936   4.533  16.858  0.00  0.00    +0.000 N 
ATOM     13  C   UNL     1       5.372   5.895  17.205  0.00  0.00    +0.000 C 
BRANCH  12  14
ATOM     14  C   UNL     1       3.796   3.941  17.345  0.00  0.00    +0.000 A 
ATOM     15  C   UNL     1       2.640   4.694  17.613  0.00  0.00    +0.000 A 
ATOM     16  C   UNL     1       1.478   4.120  18.139  0.00  0.00    +0.000 A 
ATOM     17  C   UNL     1       1.444   2.762  18.420  0.00  0.00    +0.000 A 
ATOM     18  C   UNL     1       2.563   1.983  18.148  0.00  0.00    +0.000 A 
ATOM     19  C   UNL     1       3.713   2.566  17.601  0.00  0.00    +0.000 A 
ENDBRANCH  12  14
ENDBRANCH   5   8
BRANCH   4  20
ATOM     20  C   UNL     1       8.228   9.231  18.208  0.00  0.00    +0.000 C 
BRANCH  20  21
ATOM     21  C   UNL     1       9.070  10.314  18.882  0.00  0.00    +0.000 C 
BRANCH  21  22
ATOM     22  C   UNL     1       9.607  11.403  17.960  0.00  0.00    +0.000 C 
ATOM     23  C   UNL     1       8.932  12.554  17.740  0.00  0.00    +0.000 C 
ATOM     24  C   UNL     1       9.227  13.695  18.708  0.00  0.00    +0.000 C 
ATOM     25  O   UNL     1      10.082  13.262  19.772  0.00  0.00    +0.000 OA
ATOM     26  C   UNL     1      11.289  12.617  19.333  0.00  0.00    +0.000 C 
ATOM     27  C   UNL     1      11.088  11.634  18.168  0.00  0.00    +0.000 C 
ENDBRANCH  21  22
ENDBRANCH  20  21
ENDBRANCH   4  20
TORSDOF 5
ENDMDL
MODEL 2
REMARK VINA RESULT:      -8.0      0.710      1.122
REMARK  Name = 
REMARK  7 active torsions:
REMARK  status: ('A' for Active; 'I' for Inactive)
REMARK    1  A    between atoms: C_1  and  N_2
REMARK    2  A    between atoms: N_4  and  C_5
REMARK    3  A    between atoms: C_5  and  C_6
REMARK    4  A    between atoms: C_6  and  C_7
REMARK    5  A    between atoms: N_13  and  C_14
REMARK    6  A    between atoms: C_16  and  C_17
REMARK    7  A    between atoms: N_18  and  C_19
REMARK                            x       y       z     vdW  Elec       q    Type
REMARK                         _______ _______ _______ _____ _____    ______ ____
ROOT
ATOM      1  C   UNL     1       8.105   5.484  20.237  0.00  0.00    +0.000 C 
ATOM      2  N   UNL     1       7.696   5.615  18.850  0.00  0.00    +0.000 NA
ATOM      3  C   UNL     1       7.929   6.701  18.205  0.00  0.00    +0.000 C 
ATOM      4  N   UNL     1       8.502   7.848  18.685  0.00  0.00    +0.000 N 
ATOM      5  N   UNL     1       7.627   6.795  16.883  0.00  0.00    +0.000 N 
ATOM      6  H   UNL     1       8.659   7.824  19.684  0.00  0.00    +0.000 HD
ATOM      7  H   UNL     1       7.976   7.611  16.406  0.00  0.00    +0.000 HD
ENDROOT
BRANCH   5   8
ATOM      8  C   UNL     1       6.505   6.134  16.248  0.00  0.00    +0.000 C 
ATOM      9  C   UNL     1       6.953   4.741  15.800  0.00  0.00    +0.000 C 
ATOM     10  C   UNL     1       5.675   3.917  15.771  0.00  0.00    +0.000 C 
ATOM     11  C   UNL     1       4.957   4.015  14.428  0.00  0.00    +0.000 C 
ATOM     12  N   UNL     1       4.863   4.504  16.837  0.00  0.00    +0.000 N 
ATOM     13  C   UNL     1       5.303   5.869  17.167  0.00  0.00    +0.000 C 
BRANCH  12  14
ATOM     14  C   UNL     1       3.717   3.924  17.327  0.00  0.00    +0.000 A 
ATOM     15  C   UNL     1       2.557   4.683  17.558  0.00  0.00    +0.000 A 
ATOM     16  C   UNL     1       1.389   4.122  18.086  0.00  0.00    +0.000 A 
ATOM     17  C   UNL     1       1.354   2.773  18.406  0.00  0.00    +0.000 A 
ATOM     18  C   UNL     1       2.478   1.988  18.172  0.00  0.00    +0.000 A 
ATOM     19  C   UNL     1       3.634   2.557  17.622  0.00  0.00    +0.000 A 
ENDBRANCH  12  14
ENDBRANCH   5   8
BRANCH   4  20
ATOM     20  C   UNL     1       8.155   9.180  18.189  0.00  0.00    +0.000 C 
BRANCH  20  21
ATOM     21  C   UNL     1       9.355  10.127  18.245  0.00  0.00    +0.000 C 
BRANCH  21  22
ATOM     22  C   UNL     1       9.221  11.308  19.199  0.00  0.00    +0.000 C 
ATOM     23  C   UNL     1      10.025  11.457  20.276  0.00  0.00    +0.000 C 
ATOM     24  C   UNL     1      11.321  12.225  20.038  0.00  0.00    +0.000 C 
ATOM     25  O   UNL     1      11.497  12.525  18.650  0.00  0.00    +0.000 OA
ATOM     26  C   UNL     1      10.373  13.184  18.042  0.00  0.00    +0.000 C 
ATOM     27  C   UNL     1       9.010  12.608  18.454  0.00  0.00    +0.000 C 
ENDBRANCH  21  22
ENDBRANCH  20  21
ENDBRANCH   4  20
TORSDOF 5
ENDMDL
MODEL 3
REMARK VINA RESULT:      -7.8      0.651      1.234
REMARK  Name = 
REMARK  7 active torsions:
REMARK  status: ('A' for Active; 'I' for Inactive)
REMARK    1  A    between atoms: C_1  and  N_2
REMARK    2  A    between atoms: N_4  and  C_5
REMARK    3  A    between atoms: C_5  and  C_6
REMARK    4  A    between atoms: C_6  and  C_7
REMARK    5  A    between atoms: N_13  and  C_14
REMARK    6  A    between atoms: C_16  and  C_17
REMARK    7  A    between atoms: N_18  and  C_19
REMARK                            x       y       z     vdW  Elec       q    Type
REMARK                         _______ _______ _______ _____ _____    ______ ____
ROOT
ATOM      1  C   UNL     1       8.182   5.767  20.149  0.00  0.00    +0.000 C 
ATOM      2  N   UNL     1       7.756   5.821  18.762  0.00  0.00    +0.000 NA
ATOM      3  C   UNL     1       7.970   6.873  18.058  0.00  0.00    +0.000 C 
ATOM      4  N   UNL     1       8.536   8.050  18.471  0.00  0.00    +0.000 N 
ATOM      5  N   UNL     1       7.652   6.894  16.737  0.00  0.00    +0.000 N 
ATOM      6  H   UNL     1       8.705   8.080  19.467  0.00  0.00    +0.000 HD
ATOM      7  H   UNL     1       7.986   7.688  16.214  0.00  0.00    +0.000 HD
ENDROOT
BRANCH   5   8
ATOM      8  C   UNL     1       6.530   6.190  16.151  0.00  0.00    +0.000 C 
ATOM      9  C   UNL     1       6.990   4.784  15.762  0.00  0.00    +0.000 C 
ATOM     10  C   UNL     1       5.723   3.942  15.792  0.00  0.00    +0.000 C 
ATOM     11  C   UNL     1       4.983   3.967  14.457  0.00  0.00    +0.000 C 
ATOM     12  N   UNL     1       4.919   4.568  16.842  0.00  0.00    +0.000 N 
ATOM     13  C   UNL     1       5.345   5.952  17.101  0.00  0.00    +0.000 C 
BRANCH  12  14
ATOM     14  C   UNL     1       3.789   3.997  17.376  0.00  0.00    +0.000 A 
ATOM     15  C   UNL     1       3.720   2.616  17.629  0.00  0.00    +0.000 A 
ATOM     16  C   UNL     1       2.570   2.006  18.142  0.00  0.00    +0.000 A 
ATOM     17  C   UNL     1       1.445   2.769  18.412  0.00  0.00    +0.000 A 
ATOM     18  C   UNL     1       1.485   4.142  18.194  0.00  0.00    +0.000 A 
ATOM     19  C   UNL     1       2.650   4.744  17.701  0.00  0.00    +0.000 A 
ENDBRANCH  12  14
ENDBRANCH   5   8
BRANCH   4  20
ATOM     20  C   UNL     1       8.170   9.351  17.909  0.00  0.00    +0.000 C 
BRANCH  20  21
ATOM     21  C   UNL     1       8.561  10.494  18.846  0.00  0.00    +0.000 C 
BRANCH  21  22
ATOM     22  C   UNL     1      10.034  10.889  18.826  0.00  0.00    +0.000 C 
ATOM     23  C   UNL     1      10.562  11.636  17.830  0.00  0.00    +0.000 C 
ATOM     24  C   UNL     1      10.503  13.147  18.027  0.00  0.00    +0.000 C 
ATOM     25  O   UNL     1       9.753  13.486  19.197  0.00  0.00    +0.000 OA
ATOM     26  C   UNL     1      10.188  12.816  20.392  0.00  0.00    +0.000 C 
ATOM     27  C   UNL     1      10.515  11.328  20.192  0.00  0.00    +0.000 C 
ENDBRANCH  21  22
ENDBRANCH  20  21
ENDBRANCH   4  20
TORSDOF 5
ENDMDL
MODEL 4
REMARK VINA RESULT:      -7.6      5.069      7.692
REMARK  Name = 
REMARK  7 active torsions:
REMARK  status: ('A' for Active; 'I' for Inactive)
REMARK    1  A    between atoms: C_1  and  N_2
REMARK    2  A    between atoms: N_4  and  C_5
REMARK    3  A    between atoms: C_5  and  C_6
REMARK    4  A    between atoms: C_6  and  C_7
REMARK    5  A    between atoms: N_13  and  C_14
REMARK    6  A    between atoms: C_16  and  C_17
REMARK    7  A    between atoms: N_18  and  C_19
REMARK                            x       y       z     vdW  Elec       q    Type
REMARK                         _______ _______ _______ _____ _____    ______ ____
ROOT
ATOM      1  C   UNL     1       1.432   4.083  21.011  0.00  0.00    +0.000 C 
ATOM      2  N   UNL     1       1.679   5.241  20.170  0.00  0.00    +0.000 NA
ATOM      3  C   UNL     1       2.500   5.165  19.187  0.00  0.00    +0.000 C 
ATOM      4  N   UNL     1       3.266   4.089  18.822  0.00  0.00    +0.000 N 
ATOM      5  N   UNL     1       2.667   6.219  18.346  0.00  0.00    +0.000 N 
ATOM      6  H   UNL     1       3.215   3.326  19.483  0.00  0.00    +0.000 HD
ATOM      7  H   UNL     1       3.204   6.041  17.513  0.00  0.00    +0.000 HD
ENDROOT
BRANCH   5   8
ATOM      8  C   UNL     1       2.580   7.609  18.745  0.00  0.00    +0.000 C 
ATOM      9  C   UNL     1       1.688   8.346  17.744  0.00  0.00    +0.000 C 
ATOM     10  C   UNL     1       1.124   9.523  18.525  0.00  0.00    +0.000 C 
ATOM     11  C   UNL     1       2.038  10.745  18.465  0.00  0.00    +0.000 C 
ATOM     12  N   UNL     1       1.028   9.014  19.893  0.00  0.00    +0.000 N 
ATOM     13  C   UNL     1       1.907   7.854  20.104  0.00  0.00    +0.000 C 
BRANCH  12  14
ATOM     14  C   UNL     1       0.349   9.660  20.898  0.00  0.00    +0.000 A 
ATOM     15  C   UNL     1       0.388   9.191  22.223  0.00  0.00    +0.000 A 
ATOM     16  C   UNL     1      -0.321   9.812  23.257  0.00  0.00    +0.000 A 
ATOM     17  C   UNL     1      -1.101  10.926  22.988  0.00  0.00    +0.000 A 
ATOM     18  C   UNL     1      -1.147  11.429  21.693  0.00  0.00    +0.000 A 
ATOM     19  C   UNL     1      -0.415  10.812  20.670  0.00  0.00    +0.000 A 
ENDBRANCH  12  14
ENDBRANCH   5   8
BRANCH   4  20
ATOM     20  C   UNL     1       4.583   4.224  18.199  0.00  0.00    +0.000 C 
BRANCH  20  21
ATOM     21  C   UNL     1       4.492   4.124  16.675  0.00  0.00    +0.000 C 
BRANCH  21  22
ATOM     22  C   UNL     1       5.019   5.327  15.902  0.00  0.00    +0.000 C 
ATOM     23  C   UNL     1       5.625   6.367  16.518  0.00  0.00    +0.000 C 
ATOM     24  C   UNL     1       7.134   6.246  16.703  0.00  0.00    +0.000 C 
ATOM     25  O   UNL     1       7.601   4.955  16.299  0.00  0.00    +0.000 OA
ATOM     26  C   UNL     1       7.199   4.571  14.973  0.00  0.00    +0.000 C 
ATOM     27  C   UNL     1       5.738   4.909  14.638  0.00  0.00    +0.000 C 
ENDBRANCH  21  22
ENDBRANCH  20  21
ENDBRANCH   4  20
TORSDOF 5
ENDMDL
MODEL 5
REMARK VINA RESULT:      -7.5      5.506      9.142
REMARK  Name = 
REMARK  7 active torsions:
REMARK  status: ('A' for Active; 'I' for Inactive)
REMARK    1  A    between atoms: C_1  and  N_2
REMARK    2  A    between atoms: N_4  and  C_5
REMARK    3  A    between atoms: C_5  and  C_6
REMARK    4  A    between atoms: C_6  and  C_7
REMARK    5  A    between atoms: N_13  and  C_14
REMARK    6  A    between atoms: C_16  and  C_17
REMARK    7  A    between atoms: N_18  and  C_19
REMARK                            x       y       z     vdW  Elec       q    Type
REMARK                         _______ _______ _______ _____ _____    ______ ____
ROOT
ATOM      1  C   UNL     1       5.222   5.996  16.356  0.00  0.00    +0.000 C 
ATOM      2  N   UNL     1       4.409   6.617  17.387  0.00  0.00    +0.000 NA
ATOM      3  C   UNL     1       3.408   5.990  17.889  0.00  0.00    +0.000 C 
ATOM      4  N   UNL     1       2.935   4.755  17.532  0.00  0.00    +0.000 N 
ATOM      5  N   UNL     1       2.699   6.533  18.913  0.00  0.00    +0.000 N 
ATOM      6  H   UNL     1       3.399   4.373  16.720  0.00  0.00    +0.000 HD
ATOM      7  H   UNL     1       2.029   5.925  19.359  0.00  0.00    +0.000 HD
ENDROOT
BRANCH   5   8
ATOM      8  C   UNL     1       2.467   7.951  19.091  0.00  0.00    +0.000 C 
ATOM      9  C   UNL     1       1.557   8.439  17.963  0.00  0.00    +0.000 C 
ATOM     10  C   UNL     1       0.852   9.659  18.537  0.00  0.00    +0.000 C 
ATOM     11  C   UNL     1       1.651  10.941  18.319  0.00  0.00    +0.000 C 
ATOM     12  N   UNL     1       0.743   9.353  19.964  0.00  0.00    +0.000 N 
ATOM     13  C   UNL     1       1.715   8.329  20.377  0.00  0.00    +0.000 C 
BRANCH  12  14
ATOM     14  C   UNL     1      -0.037  10.073  20.837  0.00  0.00    +0.000 A 
ATOM     15  C   UNL     1      -0.799  11.171  20.400  0.00  0.00    +0.000 A 
ATOM     16  C   UNL     1      -1.575  11.938  21.275  0.00  0.00    +0.000 A 
ATOM     17  C   UNL     1      -1.604  11.627  22.626  0.00  0.00    +0.000 A 
ATOM     18  C   UNL     1      -0.879  10.536  23.090  0.00  0.00    +0.000 A 
ATOM     19  C   UNL     1      -0.123   9.761  22.200  0.00  0.00    +0.000 A 
ENDBRANCH  12  14
ENDBRANCH   5   8
BRANCH   4  20
ATOM     20  C   UNL     1       1.520   4.390  17.611  0.00  0.00    +0.000 C 
BRANCH  20  21
ATOM     21  C   UNL     1       1.120   4.008  19.037  0.00  0.00    +0.000 C 
BRANCH  21  22
ATOM     22  C   UNL     1       1.376   2.557  19.427  0.00  0.00    +0.000 C 
ATOM     23  C   UNL     1       2.106   1.723  18.653  0.00  0.00    +0.000 C 
ATOM     24  C   UNL     1       3.608   1.710  18.920  0.00  0.00    +0.000 C 
ATOM     25  O   UNL     1       3.972   2.715  19.872  0.00  0.00    +0.000 OA
ATOM     26  C   UNL     1       3.217   2.670  21.095  0.00  0.00    +0.000 C 
ATOM     27  C   UNL     1       1.714   2.424  20.896  0.00  0.00    +0.000 C 
ENDBRANCH  21  22
ENDBRANCH  20  21
ENDBRANCH   4  20
TORSDOF 5
ENDMDL
MODEL 6
REMARK VINA RESULT:      -7.5      0.793      1.288
REMARK  Name = 
REMARK  7 active torsions:
REMARK  status: ('A' for Active; 'I' for Inactive)
REMARK    1  A    between atoms: C_1  and  N_2
REMARK    2  A    between atoms: N_4  and  C_5
REMARK    3  A    between atoms: C_5  and  C_6
REMARK    4  A    between atoms: C_6  and  C_7
REMARK    5  A    between atoms: N_13  and  C_14
REMARK    6  A    between atoms: C_16  and  C_17
REMARK    7  A    between atoms: N_18  and  C_19
REMARK                            x       y       z     vdW  Elec       q    Type
REMARK                         _______ _______ _______ _____ _____    ______ ____
ROOT
ATOM      1  C   UNL     1       8.222   5.658  20.184  0.00  0.00    +0.000 C 
ATOM      2  N   UNL     1       7.778   5.802  18.809  0.00  0.00    +0.000 NA
ATOM      3  C   UNL     1       7.967   6.905  18.179  0.00  0.00    +0.000 C 
ATOM      4  N   UNL     1       8.520   8.059  18.667  0.00  0.00    +0.000 N 
ATOM      5  N   UNL     1       7.632   7.013  16.866  0.00  0.00    +0.000 N 
ATOM      6  H   UNL     1       8.701   8.021  19.660  0.00  0.00    +0.000 HD
ATOM      7  H   UNL     1       7.947   7.847  16.396  0.00  0.00    +0.000 HD
ENDROOT
BRANCH   5   8
ATOM      8  C   UNL     1       6.513   6.334  16.245  0.00  0.00    +0.000 C 
ATOM      9  C   UNL     1       6.981   4.952  15.785  0.00  0.00    +0.000 C 
ATOM     10  C   UNL     1       5.718   4.103  15.772  0.00  0.00    +0.000 C 
ATOM     11  C   UNL     1       4.978   4.193  14.440  0.00  0.00    +0.000 C 
ATOM     12  N   UNL     1       4.911   4.671  16.852  0.00  0.00    +0.000 N 
ATOM     13  C   UNL     1       5.331   6.042  17.181  0.00  0.00    +0.000 C 
BRANCH  12  14
ATOM     14  C   UNL     1       3.785   4.067  17.357  0.00  0.00    +0.000 A 
ATOM     15  C   UNL     1       3.760   2.690  17.639  0.00  0.00    +0.000 A 
ATOM     16  C   UNL     1       2.616   2.046  18.122  0.00  0.00    +0.000 A 
ATOM     17  C   UNL     1       1.452   2.770  18.332  0.00  0.00    +0.000 A 
ATOM     18  C   UNL     1       1.447   4.138  18.083  0.00  0.00    +0.000 A 
ATOM     19  C   UNL     1       2.605   4.776  17.620  0.00  0.00    +0.000 A 
ENDBRANCH  12  14
ENDBRANCH   5   8
BRANCH   4  20
ATOM     20  C   UNL     1       8.127   9.389  18.202  0.00  0.00    +0.000 C 
BRANCH  20  21
ATOM     21  C   UNL     1       9.341  10.206  17.757  0.00  0.00    +0.000 C 
BRANCH  21  22
ATOM     22  C   UNL     1       9.387  11.646  18.256  0.00  0.00    +0.000 C 
ATOM     23  C   UNL     1       8.866  12.009  19.450  0.00  0.00    +0.000 C 
ATOM     24  C   UNL     1       9.810  11.916  20.645  0.00  0.00    +0.000 C 
ATOM     25  O   UNL     1      11.054  11.314  20.274  0.00  0.00    +0.000 OA
ATOM     26  C   UNL     1      11.693  11.929  19.143  0.00  0.00    +0.000 C 
ATOM     27  C   UNL     1      10.734  12.286  17.997  0.00  0.00    +0.000 C 
ENDBRANCH  21  22
ENDBRANCH  20  21
ENDBRANCH   4  20
TORSDOF 5
ENDMDL
MODEL 7
REMARK VINA RESULT:      -7.4      4.943      8.064
REMARK  Name = 
REMARK  7 active torsions:
REMARK  status: ('A' for Active; 'I' for Inactive)
REMARK    1  A    between atoms: C_1  and  N_2
REMARK    2  A    between atoms: N_4  and  C_5
REMARK    3  A    between atoms: C_5  and  C_6
REMARK    4  A    between atoms: C_6  and  C_7
REMARK    5  A    between atoms: N_13  and  C_14
REMARK    6  A    between atoms: C_16  and  C_17
REMARK    7  A    between atoms: N_18  and  C_19
REMARK                            x       y       z     vdW  Elec       q    Type
REMARK                         _______ _______ _______ _____ _____    ______ ____
ROOT
ATOM      1  C   UNL     1       2.392   9.312  18.150  0.00  0.00    +0.000 C 
ATOM      2  N   UNL     1       3.108   8.106  17.773  0.00  0.00    +0.000 NA
ATOM      3  C   UNL     1       2.856   6.992  18.360  0.00  0.00    +0.000 C 
ATOM      4  N   UNL     1       1.987   6.775  19.396  0.00  0.00    +0.000 N 
ATOM      5  N   UNL     1       3.460   5.846  17.950  0.00  0.00    +0.000 N 
ATOM      6  H   UNL     1       1.591   7.628  19.766  0.00  0.00    +0.000 HD
ATOM      7  H   UNL     1       3.104   4.991  18.348  0.00  0.00    +0.000 HD
ENDROOT
BRANCH   5   8
ATOM      8  C   UNL     1       4.804   5.771  17.415  0.00  0.00    +0.000 C 
ATOM      9  C   UNL     1       5.398   4.411  17.785  0.00  0.00    +0.000 C 
ATOM     10  C   UNL     1       6.441   4.141  16.711  0.00  0.00    +0.000 C 
ATOM     11  C   UNL     1       7.803   4.728  17.071  0.00  0.00    +0.000 C 
ATOM     12  N   UNL     1       5.891   4.797  15.525  0.00  0.00    +0.000 N 
ATOM     13  C   UNL     1       4.896   5.821  15.882  0.00  0.00    +0.000 C 
BRANCH  12  14
ATOM     14  C   UNL     1       6.385   4.611  14.256  0.00  0.00    +0.000 A 
ATOM     15  C   UNL     1       5.857   3.625  13.405  0.00  0.00    +0.000 A 
ATOM     16  C   UNL     1       6.365   3.395  12.122  0.00  0.00    +0.000 A 
ATOM     17  C   UNL     1       7.429   4.150  11.654  0.00  0.00    +0.000 A 
ATOM     18  C   UNL     1       7.962   5.149  12.462  0.00  0.00    +0.000 A 
ATOM     19  C   UNL     1       7.431   5.384  13.736  0.00  0.00    +0.000 A 
ENDBRANCH  12  14
ENDBRANCH   5   8
BRANCH   4  20
ATOM     20  C   UNL     1       2.207   5.751  20.419  0.00  0.00    +0.000 C 
BRANCH  20  21
ATOM     21  C   UNL     1       0.914   5.002  20.745  0.00  0.00    +0.000 C 
BRANCH  21  22
ATOM     22  C   UNL     1       0.873   3.539  20.316  0.00  0.00    +0.000 C 
ATOM     23  C   UNL     1       1.395   3.121  19.141  0.00  0.00    +0.000 C 
ATOM     24  C   UNL     1       2.868   2.725  19.169  0.00  0.00    +0.000 C 
ATOM     25  O   UNL     1       3.456   3.014  20.441  0.00  0.00    +0.000 OA
ATOM     26  C   UNL     1       2.740   2.467  21.561  0.00  0.00    +0.000 C 
ATOM     27  C   UNL     1       1.213   2.610  21.460  0.00  0.00    +0.000 C 
ENDBRANCH  21  22
ENDBRANCH  20  21
ENDBRANCH   4  20
TORSDOF 5
ENDMDL
MODEL 8
REMARK VINA RESULT:      -7.4      1.172      1.590
REMARK  Name = 
REMARK  7 active torsions:
REMARK  status: ('A' for Active; 'I' for Inactive)
REMARK    1  A    between atoms: C_1  and  N_2
REMARK    2  A    between atoms: N_4  and  C_5
REMARK    3  A    between atoms: C_5  and  C_6
REMARK    4  A    between atoms: C_6  and  C_7
REMARK    5  A    between atoms: N_13  and  C_14
REMARK    6  A    between atoms: C_16  and  C_17
REMARK    7  A    between atoms: N_18  and  C_19
REMARK                            x       y       z     vdW  Elec       q    Type
REMARK                         _______ _______ _______ _____ _____    ______ ____
ROOT
ATOM      1  C   UNL     1       8.452   5.473  20.468  0.00  0.00    +0.000 C 
ATOM      2  N   UNL     1       7.700   5.536  19.227  0.00  0.00    +0.000 NA
ATOM      3  C   UNL     1       7.819   6.549  18.447  0.00  0.00    +0.000 C 
ATOM      4  N   UNL     1       8.566   7.678  18.656  0.00  0.00    +0.000 N 
ATOM      5  N   UNL     1       7.185   6.570  17.246  0.00  0.00    +0.000 N 
ATOM      6  H   UNL     1       8.979   7.713  19.578  0.00  0.00    +0.000 HD
ATOM      7  H   UNL     1       7.443   7.319  16.622  0.00  0.00    +0.000 HD
ENDROOT
BRANCH   5   8
ATOM      8  C   UNL     1       5.898   5.959  16.985  0.00  0.00    +0.000 C 
ATOM      9  C   UNL     1       6.112   4.465  16.734  0.00  0.00    +0.000 C 
ATOM     10  C   UNL     1       4.791   3.816  17.119  0.00  0.00    +0.000 C 
ATOM     11  C   UNL     1       3.809   3.775  15.952  0.00  0.00    +0.000 C 
ATOM     12  N   UNL     1       4.287   4.675  18.191  0.00  0.00    +0.000 N 
ATOM     13  C   UNL     1       4.907   6.008  18.158  0.00  0.00    +0.000 C 
BRANCH  12  14
ATOM     14  C   UNL     1       3.229   4.336  19.001  0.00  0.00    +0.000 A 
ATOM     15  C   UNL     1       2.740   3.019  19.048  0.00  0.00    +0.000 A 
ATOM     16  C   UNL     1       1.644   2.657  19.840  0.00  0.00    +0.000 A 
ATOM     17  C   UNL     1       1.000   3.614  20.608  0.00  0.00    +0.000 A 
ATOM     18  C   UNL     1       1.470   4.922  20.601  0.00  0.00    +0.000 A 
ATOM     19  C   UNL     1       2.581   5.269  19.821  0.00  0.00    +0.000 A 
ENDBRANCH  12  14
ENDBRANCH   5   8
BRANCH   4  20
ATOM     20  C   UNL     1       8.181   8.994  18.146  0.00  0.00    +0.000 C 
BRANCH  20  21
ATOM     21  C   UNL     1       8.943  10.113  18.856  0.00  0.00    +0.000 C 
BRANCH  21  22
ATOM     22  C   UNL     1       9.340  11.299  17.984  0.00  0.00    +0.000 C 
ATOM     23  C   UNL     1       8.747  12.508  18.104  0.00  0.00    +0.000 C 
ATOM     24  C   UNL     1       9.380  13.464  19.110  0.00  0.00    +0.000 C 
ATOM     25  O   UNL     1      10.423  12.820  19.848  0.00  0.00    +0.000 OA
ATOM     26  C   UNL     1      11.417  12.181  19.029  0.00  0.00    +0.000 C 
ATOM     27  C   UNL     1      10.842  11.406  17.833  0.00  0.00    +0.000 C 
ENDBRANCH  21  22
ENDBRANCH  20  21
ENDBRANCH   4  20
TORSDOF 5
ENDMDL
MODEL 9
REMARK VINA RESULT:      -7.3      5.010      7.792
REMARK  Name = 
REMARK  7 active torsions:
REMARK  status: ('A' for Active; 'I' for Inactive)
REMARK    1  A    between atoms: C_1  and  N_2
REMARK    2  A    between atoms: N_4  and  C_5
REMARK    3  A    between atoms: C_5  and  C_6
REMARK    4  A    between atoms: C_6  and  C_7
REMARK    5  A    between atoms: N_13  and  C_14
REMARK    6  A    between atoms: C_16  and  C_17
REMARK    7  A    between atoms: N_18  and  C_19
REMARK                            x       y       z     vdW  Elec       q    Type
REMARK                         _______ _______ _______ _____ _____    ______ ____
ROOT
ATOM      1  C   UNL     1       7.528   5.246  18.917  0.00  0.00    +0.000 C 
ATOM      2  N   UNL     1       6.172   4.788  18.677  0.00  0.00    +0.000 NA
ATOM      3  C   UNL     1       5.799   4.457  17.494  0.00  0.00    +0.000 C 
ATOM      4  N   UNL     1       6.533   4.527  16.339  0.00  0.00    +0.000 N 
ATOM      5  N   UNL     1       4.559   3.945  17.280  0.00  0.00    +0.000 N 
ATOM      6  H   UNL     1       7.428   4.980  16.467  0.00  0.00    +0.000 HD
ATOM      7  H   UNL     1       4.389   3.565  16.362  0.00  0.00    +0.000 HD
ENDROOT
BRANCH   5   8
ATOM      8  C   UNL     1       3.376   4.317  18.029  0.00  0.00    +0.000 C 
ATOM      9  C   UNL     1       3.667   4.131  19.519  0.00  0.00    +0.000 C 
ATOM     10  C   UNL     1       2.728   5.102  20.219  0.00  0.00    +0.000 C 
ATOM     11  C   UNL     1       1.364   4.480  20.504  0.00  0.00    +0.000 C 
ATOM     12  N   UNL     1       2.605   6.207  19.268  0.00  0.00    +0.000 N 
ATOM     13  C   UNL     1       2.968   5.793  17.904  0.00  0.00    +0.000 C 
BRANCH  12  14
ATOM     14  C   UNL     1       2.038   7.419  19.581  0.00  0.00    +0.000 A 
ATOM     15  C   UNL     1       1.635   7.718  20.895  0.00  0.00    +0.000 A 
ATOM     16  C   UNL     1       1.026   8.932  21.232  0.00  0.00    +0.000 A 
ATOM     17  C   UNL     1       0.797   9.886  20.252  0.00  0.00    +0.000 A 
ATOM     18  C   UNL     1       1.202   9.632  18.947  0.00  0.00    +0.000 A 
ATOM     19  C   UNL     1       1.830   8.422  18.625  0.00  0.00    +0.000 A 
ENDBRANCH  12  14
ENDBRANCH   5   8
BRANCH   4  20
ATOM     20  C   UNL     1       5.936   4.790  15.030  0.00  0.00    +0.000 C 
BRANCH  20  21
ATOM     21  C   UNL     1       6.116   3.602  14.085  0.00  0.00    +0.000 C 
BRANCH  21  22
ATOM     22  C   UNL     1       6.272   3.950  12.609  0.00  0.00    +0.000 C 
ATOM     23  C   UNL     1       7.298   3.478  11.864  0.00  0.00    +0.000 C 
ATOM     24  C   UNL     1       7.063   2.136  11.180  0.00  0.00    +0.000 C 
ATOM     25  O   UNL     1       5.817   1.560  11.586  0.00  0.00    +0.000 OA
ATOM     26  C   UNL     1       4.686   2.435  11.436  0.00  0.00    +0.000 C 
ATOM     27  C   UNL     1       4.950   3.883  11.875  0.00  0.00    +0.000 C 
ENDBRANCH  21  22
ENDBRANCH  20  21
ENDBRANCH   4  20
TORSDOF 5
ENDMDL
