MODEL 1
REMARK VINA RESULT:      -7.9      0.000      0.000
REMARK  Name = 
REMARK  6 active torsions:
REMARK  status: ('A' for Active; 'I' for Inactive)
REMARK    1  A    between atoms: C_1  and  O_2
REMARK    2  A    between atoms: O_2  and  C_3
REMARK    3  A    between atoms: C_6  and  N_7
REMARK    4  A    between atoms: N_7  and  C_8
REMARK    5  A    between atoms: C_19  and  O_20
REMARK    6  A    between atoms: O_20  and  C_21
REMARK                            x       y       z     vdW  Elec       q    Type
REMARK                         _______ _______ _______ _____ _____    ______ ____
ROOT
ATOM      1  N   UNL     1       4.773   6.071  18.817  0.00  0.00    +0.000 N 
ATOM      2  H   UNL     1       5.346   5.857  19.623  0.00  0.00    +0.000 HD
ENDROOT
BRANCH   1   3
ATOM      3  C   UNL     1       3.378   5.868  19.024  0.00  0.00    +0.000 A 
ATOM      4  N   UNL     1       2.775   6.881  19.662  0.00  0.00    +0.000 NA
ATOM      5  C   UNL     1       1.714   6.563  20.389  0.00  0.00    +0.000 A 
ATOM      6 CL   UNL     1       0.936   7.843  21.199  0.00  0.00    +0.000 Cl
ATOM      7  N   UNL     1       1.203   5.350  20.568  0.00  0.00    +0.000 NA
ATOM      8  C   UNL     1       1.691   4.394  19.787  0.00  0.00    +0.000 A 
ATOM      9  C   UNL     1       1.074   3.155  19.932  0.00  0.00    +0.000 A 
ATOM     10  C   UNL     1       1.282   2.118  19.033  0.00  0.00    +0.000 A 
ATOM     11  C   UNL     1       2.175   2.331  17.981  0.00  0.00    +0.000 A 
ATOM     12  C   UNL     1       2.927   3.528  17.924  0.00  0.00    +0.000 A 
ATOM     13  C   UNL     1       2.725   4.590  18.871  0.00  0.00    +0.000 A 
ENDBRANCH   1   3
BRANCH   1  17
ATOM     14  C   UNL     1       6.523   4.812  15.100  0.00  0.00    +0.000 A 
ATOM     15  C   UNL     1       5.452   5.699  15.140  0.00  0.00    +0.000 A 
ATOM     16  C   UNL     1       4.912   6.124  16.364  0.00  0.00    +0.000 A 
ATOM     17  C   UNL     1       5.459   5.715  17.595  0.00  0.00    +0.000 A 
ATOM     18  C   UNL     1       6.606   4.880  17.544  0.00  0.00    +0.000 A 
ATOM     19  C   UNL     1       7.092   4.404  16.300  0.00  0.00    +0.000 A 
BRANCH  14  21
ATOM     20  C   UNL     1       6.028   3.699  13.038  0.00  0.00    +0.000 C 
ATOM     21  O   UNL     1       6.926   4.446  13.847  0.00  0.00    +0.000 OA
ENDBRANCH  14  21
BRANCH  18  22
ATOM     22  O   UNL     1       7.267   4.573  18.719  0.00  0.00    +0.000 OA
ATOM     23  C   UNL     1       8.135   5.614  19.200  0.00  0.00    +0.000 C 
ENDBRANCH  18  22
ENDBRANCH   1  17
TORSDOF 4
ENDMDL
MODEL 2
REMARK VINA RESULT:      -7.8      3.040      6.648
REMARK  Name = 
REMARK  6 active torsions:
REMARK  status: ('A' for Active; 'I' for Inactive)
REMARK    1  A    between atoms: C_1  and  O_2
REMARK    2  A    between atoms: O_2  and  C_3
REMARK    3  A    between atoms: C_6  and  N_7
REMARK    4  A    between atoms: N_7  and  C_8
REMARK    5  A    between atoms: C_19  and  O_20
REMARK    6  A    between atoms: O_20  and  C_21
REMARK                            x       y       z     vdW  Elec       q    Type
REMARK                         _______ _______ _______ _____ _____    ______ ____
ROOT
ATOM      1  N   UNL     1       3.842   4.002  16.014  0.00  0.00    +0.000 N 
ATOM      2  H   UNL     1       3.396   3.437  15.303  0.00  0.00    +0.000 HD
ENDROOT
BRANCH   1   3
ATOM      3  C   UNL     1       5.256   4.113  15.866  0.00  0.00    +0.000 A 
ATOM      4  N   UNL     1       5.887   4.486  16.989  0.00  0.00    +0.000 NA
ATOM      5  C   UNL     1       7.017   5.158  16.826  0.00  0.00    +0.000 A 
ATOM      6 CL   UNL     1       7.829   5.632  18.245  0.00  0.00    +0.000 Cl
ATOM      7  N   UNL     1       7.573   5.517  15.675  0.00  0.00    +0.000 NA
ATOM      8  C   UNL     1       7.043   4.982  14.582  0.00  0.00    +0.000 A 
ATOM      9  C   UNL     1       7.703   5.303  13.400  0.00  0.00    +0.000 A 
ATOM     10  C   UNL     1       7.442   4.642  12.207  0.00  0.00    +0.000 A 
ATOM     11  C   UNL     1       6.454   3.656  12.206  0.00  0.00    +0.000 A 
ATOM     12  C   UNL     1       5.668   3.443  13.363  0.00  0.00    +0.000 A 
ATOM     13  C   UNL     1       5.926   4.146  14.588  0.00  0.00    +0.000 A 
ENDBRANCH   1   3
BRANCH   1  17
ATOM     14  C   UNL     1       1.599   3.364  19.622  0.00  0.00    +0.000 A 
ATOM     15  C   UNL     1       2.082   2.303  18.866  0.00  0.00    +0.000 A 
ATOM     16  C   UNL     1       2.840   2.528  17.705  0.00  0.00    +0.000 A 
ATOM     17  C   UNL     1       3.184   3.828  17.290  0.00  0.00    +0.000 A 
ATOM     18  C   UNL     1       2.761   4.902  18.115  0.00  0.00    +0.000 A 
ATOM     19  C   UNL     1       1.936   4.657  19.243  0.00  0.00    +0.000 A 
BRANCH  14  21
ATOM     20  C   UNL     1       1.505   2.561  21.876  0.00  0.00    +0.000 C 
ATOM     21  O   UNL     1       0.841   3.010  20.703  0.00  0.00    +0.000 OA
ENDBRANCH  14  21
BRANCH  18  22
ATOM     22  O   UNL     1       3.198   6.182  17.832  0.00  0.00    +0.000 OA
ATOM     23  C   UNL     1       2.470   7.221  18.511  0.00  0.00    +0.000 C 
ENDBRANCH  18  22
ENDBRANCH   1  17
TORSDOF 4
ENDMDL
MODEL 3
REMARK VINA RESULT:      -7.6      1.277      1.361
REMARK  Name = 
REMARK  6 active torsions:
REMARK  status: ('A' for Active; 'I' for Inactive)
REMARK    1  A    between atoms: C_1  and  O_2
REMARK    2  A    between atoms: O_2  and  C_3
REMARK    3  A    between atoms: C_6  and  N_7
REMARK    4  A    between atoms: N_7  and  C_8
REMARK    5  A    between atoms: C_19  and  O_20
REMARK    6  A    between atoms: O_20  and  C_21
REMARK                            x       y       z     vdW  Elec       q    Type
REMARK                         _______ _______ _______ _____ _____    ______ ____
ROOT
ATOM      1  N   UNL     1       5.152   5.126  18.336  0.00  0.00    +0.000 N 
ATOM      2  H   UNL     1       5.643   4.472  18.932  0.00  0.00    +0.000 HD
ENDROOT
BRANCH   1   3
ATOM      3  C   UNL     1       3.777   5.298  18.668  0.00  0.00    +0.000 A 
ATOM      4  N   UNL     1       3.391   6.581  18.722  0.00  0.00    +0.000 NA
ATOM      5  C   UNL     1       2.392   6.856  19.547  0.00  0.00    +0.000 A 
ATOM      6 CL   UNL     1       1.891   8.481  19.617  0.00  0.00    +0.000 Cl
ATOM      7  N   UNL     1       1.753   6.002  20.339  0.00  0.00    +0.000 NA
ATOM      8  C   UNL     1       2.014   4.717  20.137  0.00  0.00    +0.000 A 
ATOM      9  C   UNL     1       1.263   3.843  20.917  0.00  0.00    +0.000 A 
ATOM     10  C   UNL     1       1.225   2.478  20.666  0.00  0.00    +0.000 A 
ATOM     11  C   UNL     1       2.006   1.981  19.621  0.00  0.00    +0.000 A 
ATOM     12  C   UNL     1       2.896   2.840  18.934  0.00  0.00    +0.000 A 
ATOM     13  C   UNL     1       2.948   4.248  19.213  0.00  0.00    +0.000 A 
ENDBRANCH   1   3
BRANCH   1  17
ATOM     14  C   UNL     1       6.591   4.516  14.334  0.00  0.00    +0.000 A 
ATOM     15  C   UNL     1       5.277   4.233  14.688  0.00  0.00    +0.000 A 
ATOM     16  C   UNL     1       4.814   4.466  15.993  0.00  0.00    +0.000 A 
ATOM     17  C   UNL     1       5.640   5.041  16.977  0.00  0.00    +0.000 A 
ATOM     18  C   UNL     1       6.953   5.408  16.583  0.00  0.00    +0.000 A 
ATOM     19  C   UNL     1       7.423   5.098  15.281  0.00  0.00    +0.000 A 
BRANCH  14  21
ATOM     20  C   UNL     1       6.062   3.347  12.311  0.00  0.00    +0.000 C 
ATOM     21  O   UNL     1       6.926   4.203  13.046  0.00  0.00    +0.000 OA
ENDBRANCH  14  21
BRANCH  18  22
ATOM     22  O   UNL     1       7.751   6.109  17.468  0.00  0.00    +0.000 OA
ATOM     23  C   UNL     1       7.566   7.535  17.430  0.00  0.00    +0.000 C 
ENDBRANCH  18  22
ENDBRANCH   1  17
TORSDOF 4
ENDMDL
MODEL 4
REMARK VINA RESULT:      -7.5      1.687      2.053
REMARK  Name = 
REMARK  6 active torsions:
REMARK  status: ('A' for Active; 'I' for Inactive)
REMARK    1  A    between atoms: C_1  and  O_2
REMARK    2  A    between atoms: O_2  and  C_3
REMARK    3  A    between atoms: C_6  and  N_7
REMARK    4  A    between atoms: N_7  and  C_8
REMARK    5  A    between atoms: C_19  and  O_20
REMARK    6  A    between atoms: O_20  and  C_21
REMARK                            x       y       z     vdW  Elec       q    Type
REMARK                         _______ _______ _______ _____ _____    ______ ____
ROOT
ATOM      1  N   UNL     1       3.979   3.544  17.060  0.00  0.00    +0.000 N 
ATOM      2  H   UNL     1       3.532   2.856  16.467  0.00  0.00    +0.000 HD
ENDROOT
BRANCH   1   3
ATOM      3  C   UNL     1       3.079   4.258  17.903  0.00  0.00    +0.000 A 
ATOM      4  N   UNL     1       2.965   5.557  17.590  0.00  0.00    +0.000 NA
ATOM      5  C   UNL     1       2.665   6.373  18.590  0.00  0.00    +0.000 A 
ATOM      6 CL   UNL     1       2.511   8.024  18.203  0.00  0.00    +0.000 Cl
ATOM      7  N   UNL     1       2.489   6.044  19.864  0.00  0.00    +0.000 NA
ATOM      8  C   UNL     1       2.418   4.743  20.123  0.00  0.00    +0.000 A 
ATOM      9  C   UNL     1       2.142   4.430  21.450  0.00  0.00    +0.000 A 
ATOM     10  C   UNL     1       1.790   3.147  21.847  0.00  0.00    +0.000 A 
ATOM     11  C   UNL     1       1.758   2.145  20.875  0.00  0.00    +0.000 A 
ATOM     12  C   UNL     1       2.198   2.423  19.559  0.00  0.00    +0.000 A 
ATOM     13  C   UNL     1       2.583   3.748  19.159  0.00  0.00    +0.000 A 
ENDBRANCH   1   3
BRANCH   1  17
ATOM     14  C   UNL     1       7.321   5.073  14.834  0.00  0.00    +0.000 A 
ATOM     15  C   UNL     1       6.081   4.866  14.240  0.00  0.00    +0.000 A 
ATOM     16  C   UNL     1       4.991   4.394  14.989  0.00  0.00    +0.000 A 
ATOM     17  C   UNL     1       5.091   4.162  16.373  0.00  0.00    +0.000 A 
ATOM     18  C   UNL     1       6.336   4.459  16.988  0.00  0.00    +0.000 A 
ATOM     19  C   UNL     1       7.444   4.866  16.202  0.00  0.00    +0.000 A 
BRANCH  14  21
ATOM     20  C   UNL     1       8.060   5.456  12.588  0.00  0.00    +0.000 C 
ATOM     21  O   UNL     1       8.307   5.493  13.988  0.00  0.00    +0.000 OA
ENDBRANCH  14  21
BRANCH  18  22
ATOM     22  O   UNL     1       6.440   4.389  18.364  0.00  0.00    +0.000 OA
ATOM     23  C   UNL     1       6.890   5.606  18.987  0.00  0.00    +0.000 C 
ENDBRANCH  18  22
ENDBRANCH   1  17
TORSDOF 4
ENDMDL
MODEL 5
REMARK VINA RESULT:      -7.5      3.188      6.099
REMARK  Name = 
REMARK  6 active torsions:
REMARK  status: ('A' for Active; 'I' for Inactive)
REMARK    1  A    between atoms: C_1  and  O_2
REMARK    2  A    between atoms: O_2  and  C_3
REMARK    3  A    between atoms: C_6  and  N_7
REMARK    4  A    between atoms: N_7  and  C_8
REMARK    5  A    between atoms: C_19  and  O_20
REMARK    6  A    between atoms: O_20  and  C_21
REMARK                            x       y       z     vdW  Elec       q    Type
REMARK                         _______ _______ _______ _____ _____    ______ ____
ROOT
ATOM      1  N   UNL     1       3.886   4.274  18.374  0.00  0.00    +0.000 N 
ATOM      2  H   UNL     1       3.642   3.496  18.974  0.00  0.00    +0.000 HD
ENDROOT
BRANCH   1   3
ATOM      3  C   UNL     1       5.261   4.314  18.002  0.00  0.00    +0.000 A 
ATOM      4  N   UNL     1       6.082   4.642  19.009  0.00  0.00    +0.000 NA
ATOM      5  C   UNL     1       7.206   5.257  18.669  0.00  0.00    +0.000 A 
ATOM      6 CL   UNL     1       8.259   5.673  19.940  0.00  0.00    +0.000 Cl
ATOM      7  N   UNL     1       7.588   5.601  17.444  0.00  0.00    +0.000 NA
ATOM      8  C   UNL     1       6.862   5.105  16.449  0.00  0.00    +0.000 A 
ATOM      9  C   UNL     1       7.340   5.406  15.178  0.00  0.00    +0.000 A 
ATOM     10  C   UNL     1       6.857   4.773  14.040  0.00  0.00    +0.000 A 
ATOM     11  C   UNL     1       5.831   3.839  14.195  0.00  0.00    +0.000 A 
ATOM     12  C   UNL     1       5.230   3.653  15.462  0.00  0.00    +0.000 A 
ATOM     13  C   UNL     1       5.719   4.328  16.632  0.00  0.00    +0.000 A 
ENDBRANCH   1   3
BRANCH   1  17
ATOM     14  C   UNL     1       1.922   7.945  19.437  0.00  0.00    +0.000 A 
ATOM     15  C   UNL     1       2.491   7.758  18.182  0.00  0.00    +0.000 A 
ATOM     16  C   UNL     1       3.102   6.541  17.840  0.00  0.00    +0.000 A 
ATOM     17  C   UNL     1       3.120   5.449  18.728  0.00  0.00    +0.000 A 
ATOM     18  C   UNL     1       2.460   5.619  19.973  0.00  0.00    +0.000 A 
ATOM     19  C   UNL     1       1.912   6.879  20.327  0.00  0.00    +0.000 A 
BRANCH  14  21
ATOM     20  C   UNL     1       1.137  10.021  18.535  0.00  0.00    +0.000 C 
ATOM     21  O   UNL     1       1.398   9.187  19.657  0.00  0.00    +0.000 OA
ENDBRANCH  14  21
BRANCH  18  22
ATOM     22  O   UNL     1       2.322   4.533  20.816  0.00  0.00    +0.000 OA
ATOM     23  C   UNL     1       1.127   3.761  20.596  0.00  0.00    +0.000 C 
ENDBRANCH  18  22
ENDBRANCH   1  17
TORSDOF 4
ENDMDL
MODEL 6
REMARK VINA RESULT:      -7.5      3.098      6.350
REMARK  Name = 
REMARK  6 active torsions:
REMARK  status: ('A' for Active; 'I' for Inactive)
REMARK    1  A    between atoms: C_1  and  O_2
REMARK    2  A    between atoms: O_2  and  C_3
REMARK    3  A    between atoms: C_6  and  N_7
REMARK    4  A    between atoms: N_7  and  C_8
REMARK    5  A    between atoms: C_19  and  O_20
REMARK    6  A    between atoms: O_20  and  C_21
REMARK                            x       y       z     vdW  Elec       q    Type
REMARK                         _______ _______ _______ _____ _____    ______ ____
ROOT
ATOM      1  N   UNL     1       3.761   4.184  17.171  0.00  0.00    +0.000 N 
ATOM      2  H   UNL     1       3.374   3.254  17.265  0.00  0.00    +0.000 HD
ENDROOT
BRANCH   1   3
ATOM      3  C   UNL     1       5.163   4.208  16.915  0.00  0.00    +0.000 A 
ATOM      4  N   UNL     1       5.902   4.526  17.987  0.00  0.00    +0.000 NA
ATOM      5  C   UNL     1       7.057   5.128  17.742  0.00  0.00    +0.000 A 
ATOM      6 CL   UNL     1       8.005   5.531  19.096  0.00  0.00    +0.000 Cl
ATOM      7  N   UNL     1       7.544   5.465  16.554  0.00  0.00    +0.000 NA
ATOM      8  C   UNL     1       6.897   4.978  15.501  0.00  0.00    +0.000 A 
ATOM      9  C   UNL     1       7.483   5.272  14.274  0.00  0.00    +0.000 A 
ATOM     10  C   UNL     1       7.089   4.644  13.100  0.00  0.00    +0.000 A 
ATOM     11  C   UNL     1       6.042   3.723  13.168  0.00  0.00    +0.000 A 
ATOM     12  C   UNL     1       5.336   3.545  14.381  0.00  0.00    +0.000 A 
ATOM     13  C   UNL     1       5.733   4.215  15.588  0.00  0.00    +0.000 A 
ENDBRANCH   1   3
BRANCH   1  17
ATOM     14  C   UNL     1       2.117   7.058  19.910  0.00  0.00    +0.000 A 
ATOM     15  C   UNL     1       2.632   7.437  18.675  0.00  0.00    +0.000 A 
ATOM     16  C   UNL     1       3.138   6.482  17.779  0.00  0.00    +0.000 A 
ATOM     17  C   UNL     1       3.098   5.105  18.068  0.00  0.00    +0.000 A 
ATOM     18  C   UNL     1       2.492   4.720  19.292  0.00  0.00    +0.000 A 
ATOM     19  C   UNL     1       2.053   5.704  20.215  0.00  0.00    +0.000 A 
BRANCH  14  21
ATOM     20  C   UNL     1       1.006   9.171  20.098  0.00  0.00    +0.000 C 
ATOM     21  O   UNL     1       1.696   8.087  20.705  0.00  0.00    +0.000 OA
ENDBRANCH  14  21
BRANCH  18  22
ATOM     22  O   UNL     1       2.296   3.377  19.554  0.00  0.00    +0.000 OA
ATOM     23  C   UNL     1       1.183   3.099  20.422  0.00  0.00    +0.000 C 
ENDBRANCH  18  22
ENDBRANCH   1  17
TORSDOF 4
ENDMDL
MODEL 7
REMARK VINA RESULT:      -7.4      4.192      6.656
REMARK  Name = 
REMARK  6 active torsions:
REMARK  status: ('A' for Active; 'I' for Inactive)
REMARK    1  A    between atoms: C_1  and  O_2
REMARK    2  A    between atoms: O_2  and  C_3
REMARK    3  A    between atoms: C_6  and  N_7
REMARK    4  A    between atoms: N_7  and  C_8
REMARK    5  A    between atoms: C_19  and  O_20
REMARK    6  A    between atoms: O_20  and  C_21
REMARK                            x       y       z     vdW  Elec       q    Type
REMARK                         _______ _______ _______ _____ _____    ______ ____
ROOT
ATOM      1  N   UNL     1       2.237   7.480  20.499  0.00  0.00    +0.000 N 
ATOM      2  H   UNL     1       3.142   7.867  20.733  0.00  0.00    +0.000 HD
ENDROOT
BRANCH   1   3
ATOM      3  C   UNL     1       2.292   6.167  19.947  0.00  0.00    +0.000 A 
ATOM      4  N   UNL     1       1.627   5.252  20.667  0.00  0.00    +0.000 NA
ATOM      5  C   UNL     1       2.082   4.009  20.595  0.00  0.00    +0.000 A 
ATOM      6 CL   UNL     1       1.240   2.839  21.500  0.00  0.00    +0.000 Cl
ATOM      7  N   UNL     1       3.135   3.584  19.906  0.00  0.00    +0.000 NA
ATOM      8  C   UNL     1       3.664   4.456  19.056  0.00  0.00    +0.000 A 
ATOM      9  C   UNL     1       4.706   3.954  18.284  0.00  0.00    +0.000 A 
ATOM     10  C   UNL     1       5.205   4.640  17.184  0.00  0.00    +0.000 A 
ATOM     11  C   UNL     1       4.658   5.889  16.887  0.00  0.00    +0.000 A 
ATOM     12  C   UNL     1       3.716   6.475  17.764  0.00  0.00    +0.000 A 
ATOM     13  C   UNL     1       3.220   5.771  18.914  0.00  0.00    +0.000 A 
ENDBRANCH   1   3
BRANCH   1  17
ATOM     14  C   UNL     1      -0.109  10.771  19.041  0.00  0.00    +0.000 A 
ATOM     15  C   UNL     1       0.808  10.112  18.230  0.00  0.00    +0.000 A 
ATOM     16  C   UNL     1       1.545   9.019  18.713  0.00  0.00    +0.000 A 
ATOM     17  C   UNL     1       1.351   8.514  20.012  0.00  0.00    +0.000 A 
ATOM     18  C   UNL     1       0.351   9.137  20.803  0.00  0.00    +0.000 A 
ATOM     19  C   UNL     1      -0.330  10.285  20.323  0.00  0.00    +0.000 A 
BRANCH  14  21
ATOM     20  C   UNL     1      -2.038  11.668  17.940  0.00  0.00    +0.000 C 
ATOM     21  O   UNL     1      -0.728  11.844  18.465  0.00  0.00    +0.000 OA
ENDBRANCH  14  21
BRANCH  18  22
ATOM     22  O   UNL     1       0.021   8.587  22.027  0.00  0.00    +0.000 OA
ATOM     23  C   UNL     1      -0.076   9.541  23.100  0.00  0.00    +0.000 C 
ENDBRANCH  18  22
ENDBRANCH   1  17
TORSDOF 4
ENDMDL
MODEL 8
REMARK VINA RESULT:      -7.3      4.021      6.195
REMARK  Name = 
REMARK  6 active torsions:
REMARK  status: ('A' for Active; 'I' for Inactive)
REMARK    1  A    between atoms: C_1  and  O_2
REMARK    2  A    between atoms: O_2  and  C_3
REMARK    3  A    between atoms: C_6  and  N_7
REMARK    4  A    between atoms: N_7  and  C_8
REMARK    5  A    between atoms: C_19  and  O_20
REMARK    6  A    between atoms: O_20  and  C_21
REMARK                            x       y       z     vdW  Elec       q    Type
REMARK                         _______ _______ _______ _____ _____    ______ ____
ROOT
ATOM      1  N   UNL     1       2.887   7.224  20.126  0.00  0.00    +0.000 N 
ATOM      2  H   UNL     1       3.714   7.713  20.446  0.00  0.00    +0.000 HD
ENDROOT
BRANCH   1   3
ATOM      3  C   UNL     1       3.160   6.002  19.446  0.00  0.00    +0.000 A 
ATOM      4  N   UNL     1       4.047   6.127  18.448  0.00  0.00    +0.000 NA
ATOM      5  C   UNL     1       3.922   5.270  17.446  0.00  0.00    +0.000 A 
ATOM      6 CL   UNL     1       5.047   5.417  16.177  0.00  0.00    +0.000 Cl
ATOM      7  N   UNL     1       3.002   4.321  17.317  0.00  0.00    +0.000 NA
ATOM      8  C   UNL     1       2.256   4.087  18.390  0.00  0.00    +0.000 A 
ATOM      9  C   UNL     1       1.364   3.027  18.256  0.00  0.00    +0.000 A 
ATOM     10  C   UNL     1       0.691   2.488  19.345  0.00  0.00    +0.000 A 
ATOM     11  C   UNL     1       0.897   3.070  20.597  0.00  0.00    +0.000 A 
ATOM     12  C   UNL     1       1.673   4.248  20.710  0.00  0.00    +0.000 A 
ATOM     13  C   UNL     1       2.348   4.815  19.576  0.00  0.00    +0.000 A 
ENDBRANCH   1   3
BRANCH   1  17
ATOM     14  C   UNL     1       0.138  10.237  18.776  0.00  0.00    +0.000 A 
ATOM     15  C   UNL     1       0.909   9.499  17.885  0.00  0.00    +0.000 A 
ATOM     16  C   UNL     1       1.780   8.497  18.340  0.00  0.00    +0.000 A 
ATOM     17  C   UNL     1       1.872   8.163  19.705  0.00  0.00    +0.000 A 
ATOM     18  C   UNL     1       1.017   8.860  20.598  0.00  0.00    +0.000 A 
ATOM     19  C   UNL     1       0.198   9.918  20.127  0.00  0.00    +0.000 A 
BRANCH  14  21
ATOM     20  C   UNL     1      -1.892  10.838  17.656  0.00  0.00    +0.000 C 
ATOM     21  O   UNL     1      -0.636  11.209  18.208  0.00  0.00    +0.000 OA
ENDBRANCH  14  21
BRANCH  18  22
ATOM     22  O   UNL     1       0.963   8.468  21.922  0.00  0.00    +0.000 OA
ATOM     23  C   UNL     1       0.143   9.306  22.755  0.00  0.00    +0.000 C 
ENDBRANCH  18  22
ENDBRANCH   1  17
TORSDOF 4
ENDMDL
MODEL 9
REMARK VINA RESULT:      -7.3      1.900      2.812
REMARK  Name = 
REMARK  6 active torsions:
REMARK  status: ('A' for Active; 'I' for Inactive)
REMARK    1  A    between atoms: C_1  and  O_2
REMARK    2  A    between atoms: O_2  and  C_3
REMARK    3  A    between atoms: C_6  and  N_7
REMARK    4  A    between atoms: N_7  and  C_8
REMARK    5  A    between atoms: C_19  and  O_20
REMARK    6  A    between atoms: O_20  and  C_21
REMARK                            x       y       z     vdW  Elec       q    Type
REMARK                         _______ _______ _______ _____ _____    ______ ____
ROOT
ATOM      1  N   UNL     1       4.837   3.488  17.901  0.00  0.00    +0.000 N 
ATOM      2  H   UNL     1       4.352   2.651  17.603  0.00  0.00    +0.000 HD
ENDROOT
BRANCH   1   3
ATOM      3  C   UNL     1       4.128   4.260  18.866  0.00  0.00    +0.000 A 
ATOM      4  N   UNL     1       3.706   3.549  19.921  0.00  0.00    +0.000 NA
ATOM      5  C   UNL     1       2.609   3.988  20.520  0.00  0.00    +0.000 A 
ATOM      6 CL   UNL     1       2.069   3.096  21.865  0.00  0.00    +0.000 Cl
ATOM      7  N   UNL     1       1.876   5.040  20.171  0.00  0.00    +0.000 NA
ATOM      8  C   UNL     1       2.406   5.837  19.251  0.00  0.00    +0.000 A 
ATOM      9  C   UNL     1       1.659   6.977  18.973  0.00  0.00    +0.000 A 
ATOM     10  C   UNL     1       2.173   8.032  18.230  0.00  0.00    +0.000 A 
ATOM     11  C   UNL     1       3.467   7.907  17.721  0.00  0.00    +0.000 A 
ATOM     12  C   UNL     1       4.166   6.684  17.861  0.00  0.00    +0.000 A 
ATOM     13  C   UNL     1       3.619   5.587  18.611  0.00  0.00    +0.000 A 
ENDBRANCH   1   3
BRANCH   1  17
ATOM     14  C   UNL     1       7.020   4.884  14.473  0.00  0.00    +0.000 A 
ATOM     15  C   UNL     1       5.668   4.567  14.399  0.00  0.00    +0.000 A 
ATOM     16  C   UNL     1       4.963   4.141  15.536  0.00  0.00    +0.000 A 
ATOM     17  C   UNL     1       5.576   4.067  16.801  0.00  0.00    +0.000 A 
ATOM     18  C   UNL     1       6.932   4.476  16.884  0.00  0.00    +0.000 A 
ATOM     19  C   UNL     1       7.646   4.833  15.712  0.00  0.00    +0.000 A 
BRANCH  14  21
ATOM     20  C   UNL     1       7.289   4.485  12.127  0.00  0.00    +0.000 C 
ATOM     21  O   UNL     1       7.598   5.244  13.289  0.00  0.00    +0.000 OA
ENDBRANCH  14  21
BRANCH  18  22
ATOM     22  O   UNL     1       7.534   4.562  18.126  0.00  0.00    +0.000 OA
ATOM     23  C   UNL     1       7.685   5.905  18.619  0.00  0.00    +0.000 C 
ENDBRANCH  18  22
ENDBRANCH   1  17
TORSDOF 4
ENDMDL
