MODEL 1
REMARK VINA RESULT:      -7.3      0.000      0.000
REMARK  Name = 
REMARK  13 active torsions:
REMARK  status: ('A' for Active; 'I' for Inactive)
REMARK    1  A    between atoms: C_1  and  O_2
REMARK    2  A    between atoms: O_2  and  C_3
REMARK    3  A    between atoms: C_6  and  C_7
REMARK    4  A    between atoms: C_8  and  C_9
REMARK    5  A    between atoms: C_9  and  C_11
REMARK    6  A    between atoms: C_11  and  O_12
REMARK    7  A    between atoms: O_12  and  C_13
REMARK    8  A    between atoms: C_13  and  C_14
REMARK    9  A    between atoms: C_16  and  O_17
REMARK   10  A    between atoms: C_16  and  C_18
REMARK   11  A    between atoms: C_19  and  C_20
REMARK   12  A    between atoms: C_23  and  O_24
REMARK   13  A    between atoms: O_24  and  C_25
REMARK                            x       y       z     vdW  Elec       q    Type
REMARK                         _______ _______ _______ _____ _____    ______ ____
ROOT
ATOM      1  C   UNL     1       0.120   9.908  21.156  0.00  0.00    +0.000 C 
ATOM      2  C   UNL     1       0.997   8.994  21.646  0.00  0.00    +0.000 C 
ENDROOT
BRANCH   1   3
ATOM      3  C   UNL     1       0.090  11.310  21.726  0.00  0.00    +0.000 C 
ATOM      4  O   UNL     1       1.033  12.083  21.571  0.00  0.00    +0.000 OA
BRANCH   3   6
ATOM      5  C   UNL     1      -2.240  12.195  21.791  0.00  0.00    +0.000 C 
ATOM      6  C   UNL     1      -1.156  11.735  22.438  0.00  0.00    +0.000 C 
BRANCH   5  10
ATOM      7  C   UNL     1      -5.936  13.047  23.849  0.00  0.00    +0.000 A 
ATOM      8  C   UNL     1      -5.839  13.229  22.467  0.00  0.00    +0.000 A 
ATOM      9  C   UNL     1      -4.641  12.956  21.786  0.00  0.00    +0.000 A 
ATOM     10  C   UNL     1      -3.508  12.514  22.486  0.00  0.00    +0.000 A 
ATOM     11  C   UNL     1      -3.628  12.320  23.870  0.00  0.00    +0.000 A 
ATOM     12  C   UNL     1      -4.822  12.592  24.547  0.00  0.00    +0.000 A 
BRANCH   7  14
ATOM     13  C   UNL     1      -7.914  14.351  23.728  0.00  0.00    +0.000 C 
ATOM     14  O   UNL     1      -7.144  13.364  24.407  0.00  0.00    +0.000 OA
ENDBRANCH   7  14
ENDBRANCH   5  10
ENDBRANCH   3   6
ENDBRANCH   1   3
BRANCH   2  15
ATOM     15  O   UNL     1       1.902   9.281  22.657  0.00  0.00    +0.000 OA
ATOM     16  H   UNL     1       2.746   8.814  22.464  0.00  0.00    +0.000 HD
ENDBRANCH   2  15
BRANCH   2  17
ATOM     17  C   UNL     1       1.128   7.625  21.134  0.00  0.00    +0.000 C 
ATOM     18  C   UNL     1       2.017   7.218  20.204  0.00  0.00    +0.000 C 
BRANCH  18  19
ATOM     19  C   UNL     1       2.142   5.846  19.666  0.00  0.00    +0.000 A 
ATOM     20  C   UNL     1       2.807   5.653  18.446  0.00  0.00    +0.000 A 
ATOM     21  C   UNL     1       2.932   4.374  17.888  0.00  0.00    +0.000 A 
ATOM     22  C   UNL     1       2.430   3.254  18.551  0.00  0.00    +0.000 A 
ATOM     23  C   UNL     1       1.797   3.426  19.779  0.00  0.00    +0.000 A 
ATOM     24  C   UNL     1       1.660   4.711  20.333  0.00  0.00    +0.000 A 
BRANCH  22  25
ATOM     25  O   UNL     1       2.576   2.069  17.884  0.00  0.00    +0.000 OA
ATOM     26  C   UNL     1       3.732   1.303  18.202  0.00  0.00    +0.000 C 
ENDBRANCH  22  25
ENDBRANCH  18  19
ENDBRANCH   2  17
BRANCH   1  27
ATOM     27  O   UNL     1      -0.558   9.686  19.928  0.00  0.00    +0.000 OA
BRANCH  27  28
ATOM     28  C   UNL     1      -0.253  10.452  18.834  0.00  0.00    +0.000 C 
ATOM     29  C   UNL     1       0.800   9.726  18.050  0.00  0.00    +0.000 C 
ATOM     30  O   UNL     1      -0.702  11.556  18.575  0.00  0.00    +0.000 OA
ENDBRANCH  27  28
ENDBRANCH   1  27
TORSDOF 10
ENDMDL
MODEL 2
REMARK VINA RESULT:      -6.9      1.398     10.477
REMARK  Name = 
REMARK  13 active torsions:
REMARK  status: ('A' for Active; 'I' for Inactive)
REMARK    1  A    between atoms: C_1  and  O_2
REMARK    2  A    between atoms: O_2  and  C_3
REMARK    3  A    between atoms: C_6  and  C_7
REMARK    4  A    between atoms: C_8  and  C_9
REMARK    5  A    between atoms: C_9  and  C_11
REMARK    6  A    between atoms: C_11  and  O_12
REMARK    7  A    between atoms: O_12  and  C_13
REMARK    8  A    between atoms: C_13  and  C_14
REMARK    9  A    between atoms: C_16  and  O_17
REMARK   10  A    between atoms: C_16  and  C_18
REMARK   11  A    between atoms: C_19  and  C_20
REMARK   12  A    between atoms: C_23  and  O_24
REMARK   13  A    between atoms: O_24  and  C_25
REMARK                            x       y       z     vdW  Elec       q    Type
REMARK                         _______ _______ _______ _____ _____    ______ ____
ROOT
ATOM      1  C   UNL     1       0.524  10.201  19.138  0.00  0.00    +0.000 C 
ATOM      2  C   UNL     1      -0.654  10.708  18.691  0.00  0.00    +0.000 C 
ENDROOT
BRANCH   1   3
ATOM      3  C   UNL     1       1.608   9.825  18.151  0.00  0.00    +0.000 C 
ATOM      4  O   UNL     1       2.335  10.677  17.644  0.00  0.00    +0.000 OA
BRANCH   3   6
ATOM      5  C   UNL     1       2.926   7.708  18.166  0.00  0.00    +0.000 C 
ATOM      6  C   UNL     1       1.796   8.369  17.860  0.00  0.00    +0.000 C 
BRANCH   5  10
ATOM      7  C   UNL     1       3.381   3.464  17.532  0.00  0.00    +0.000 A 
ATOM      8  C   UNL     1       2.142   3.994  17.902  0.00  0.00    +0.000 A 
ATOM      9  C   UNL     1       1.982   5.373  18.112  0.00  0.00    +0.000 A 
ATOM     10  C   UNL     1       3.071   6.247  17.976  0.00  0.00    +0.000 A 
ATOM     11  C   UNL     1       4.304   5.701  17.587  0.00  0.00    +0.000 A 
ATOM     12  C   UNL     1       4.462   4.326  17.377  0.00  0.00    +0.000 A 
BRANCH   7  14
ATOM     13  C   UNL     1       3.713   1.344  18.545  0.00  0.00    +0.000 C 
ATOM     14  O   UNL     1       3.425   2.105  17.376  0.00  0.00    +0.000 OA
ENDBRANCH   7  14
ENDBRANCH   5  10
ENDBRANCH   3   6
ENDBRANCH   1   3
BRANCH   2  15
ATOM     15  O   UNL     1      -0.925  10.921  17.348  0.00  0.00    +0.000 OA
ATOM     16  H   UNL     1      -0.219  10.494  16.813  0.00  0.00    +0.000 HD
ENDBRANCH   2  15
BRANCH   2  17
ATOM     17  C   UNL     1      -1.748  11.138  19.569  0.00  0.00    +0.000 C 
ATOM     18  C   UNL     1      -1.750  12.252  20.331  0.00  0.00    +0.000 C 
BRANCH  18  19
ATOM     19  C   UNL     1      -2.839  12.681  21.237  0.00  0.00    +0.000 A 
ATOM     20  C   UNL     1      -2.689  12.491  22.618  0.00  0.00    +0.000 A 
ATOM     21  C   UNL     1      -3.702  12.864  23.511  0.00  0.00    +0.000 A 
ATOM     22  C   UNL     1      -4.871  13.469  23.052  0.00  0.00    +0.000 A 
ATOM     23  C   UNL     1      -5.021  13.695  21.686  0.00  0.00    +0.000 A 
ATOM     24  C   UNL     1      -4.010  13.309  20.788  0.00  0.00    +0.000 A 
BRANCH  22  25
ATOM     25  O   UNL     1      -5.801  13.747  24.016  0.00  0.00    +0.000 OA
ATOM     26  C   UNL     1      -7.138  13.349  23.738  0.00  0.00    +0.000 C 
ENDBRANCH  22  25
ENDBRANCH  18  19
ENDBRANCH   2  17
BRANCH   1  27
ATOM     27  O   UNL     1       0.888  10.295  20.507  0.00  0.00    +0.000 OA
BRANCH  27  28
ATOM     28  C   UNL     1       0.750   9.203  21.324  0.00  0.00    +0.000 C 
ATOM     29  C   UNL     1      -0.193   9.578  22.428  0.00  0.00    +0.000 C 
ATOM     30  O   UNL     1       1.338   8.140  21.218  0.00  0.00    +0.000 OA
ENDBRANCH  27  28
ENDBRANCH   1  27
TORSDOF 10
ENDMDL
MODEL 3
REMARK VINA RESULT:      -6.8      1.018      1.136
REMARK  Name = 
REMARK  13 active torsions:
REMARK  status: ('A' for Active; 'I' for Inactive)
REMARK    1  A    between atoms: C_1  and  O_2
REMARK    2  A    between atoms: O_2  and  C_3
REMARK    3  A    between atoms: C_6  and  C_7
REMARK    4  A    between atoms: C_8  and  C_9
REMARK    5  A    between atoms: C_9  and  C_11
REMARK    6  A    between atoms: C_11  and  O_12
REMARK    7  A    between atoms: O_12  and  C_13
REMARK    8  A    between atoms: C_13  and  C_14
REMARK    9  A    between atoms: C_16  and  O_17
REMARK   10  A    between atoms: C_16  and  C_18
REMARK   11  A    between atoms: C_19  and  C_20
REMARK   12  A    between atoms: C_23  and  O_24
REMARK   13  A    between atoms: O_24  and  C_25
REMARK                            x       y       z     vdW  Elec       q    Type
REMARK                         _______ _______ _______ _____ _____    ______ ____
ROOT
ATOM      1  C   UNL     1       0.752   9.870  20.671  0.00  0.00    +0.000 C 
ATOM      2  C   UNL     1       1.481   8.984  21.398  0.00  0.00    +0.000 C 
ENDROOT
BRANCH   1   3
ATOM      3  C   UNL     1       0.408  11.224  21.253  0.00  0.00    +0.000 C 
ATOM      4  O   UNL     1       1.278  12.064  21.475  0.00  0.00    +0.000 OA
BRANCH   3   6
ATOM      5  C   UNL     1      -1.509  11.905  22.694  0.00  0.00    +0.000 C 
ATOM      6  C   UNL     1      -1.038  11.520  21.495  0.00  0.00    +0.000 C 
BRANCH   5  10
ATOM      7  C   UNL     1      -5.635  12.981  23.357  0.00  0.00    +0.000 A 
ATOM      8  C   UNL     1      -5.105  12.977  22.064  0.00  0.00    +0.000 A 
ATOM      9  C   UNL     1      -3.764  12.629  21.836  0.00  0.00    +0.000 A 
ATOM     10  C   UNL     1      -2.920  12.299  22.907  0.00  0.00    +0.000 A 
ATOM     11  C   UNL     1      -3.472  12.292  24.197  0.00  0.00    +0.000 A 
ATOM     12  C   UNL     1      -4.810  12.638  24.423  0.00  0.00    +0.000 A 
BRANCH   7  14
ATOM     13  C   UNL     1      -7.916  12.361  23.144  0.00  0.00    +0.000 C 
ATOM     14  O   UNL     1      -6.947  13.356  23.461  0.00  0.00    +0.000 OA
ENDBRANCH   7  14
ENDBRANCH   5  10
ENDBRANCH   3   6
ENDBRANCH   1   3
BRANCH   2  15
ATOM     15  O   UNL     1       1.954   9.258  22.672  0.00  0.00    +0.000 OA
ATOM     16  H   UNL     1       1.636   8.556  23.283  0.00  0.00    +0.000 HD
ENDBRANCH   2  15
BRANCH   2  17
ATOM     17  C   UNL     1       1.897   7.665  20.907  0.00  0.00    +0.000 C 
ATOM     18  C   UNL     1       1.124   6.560  20.875  0.00  0.00    +0.000 C 
BRANCH  18  19
ATOM     19  C   UNL     1       1.542   5.221  20.404  0.00  0.00    +0.000 A 
ATOM     20  C   UNL     1       2.161   5.106  19.151  0.00  0.00    +0.000 A 
ATOM     21  C   UNL     1       2.557   3.856  18.655  0.00  0.00    +0.000 A 
ATOM     22  C   UNL     1       2.378   2.699  19.412  0.00  0.00    +0.000 A 
ATOM     23  C   UNL     1       1.795   2.802  20.672  0.00  0.00    +0.000 A 
ATOM     24  C   UNL     1       1.386   4.054  21.164  0.00  0.00    +0.000 A 
BRANCH  22  25
ATOM     25  O   UNL     1       2.765   1.538  18.801  0.00  0.00    +0.000 OA
ATOM     26  C   UNL     1       3.791   1.651  17.822  0.00  0.00    +0.000 C 
ENDBRANCH  22  25
ENDBRANCH  18  19
ENDBRANCH   2  17
BRANCH   1  27
ATOM     27  O   UNL     1       0.562   9.689  19.275  0.00  0.00    +0.000 OA
BRANCH  27  28
ATOM     28  C   UNL     1       1.540  10.080  18.399  0.00  0.00    +0.000 C 
ATOM     29  C   UNL     1       2.017   8.856  17.675  0.00  0.00    +0.000 C 
ATOM     30  O   UNL     1       1.993  11.205  18.273  0.00  0.00    +0.000 OA
ENDBRANCH  27  28
ENDBRANCH   1  27
TORSDOF 10
ENDMDL
MODEL 4
REMARK VINA RESULT:      -6.8      1.537      2.660
REMARK  Name = 
REMARK  13 active torsions:
REMARK  status: ('A' for Active; 'I' for Inactive)
REMARK    1  A    between atoms: C_1  and  O_2
REMARK    2  A    between atoms: O_2  and  C_3
REMARK    3  A    between atoms: C_6  and  C_7
REMARK    4  A    between atoms: C_8  and  C_9
REMARK    5  A    between atoms: C_9  and  C_11
REMARK    6  A    between atoms: C_11  and  O_12
REMARK    7  A    between atoms: O_12  and  C_13
REMARK    8  A    between atoms: C_13  and  C_14
REMARK    9  A    between atoms: C_16  and  O_17
REMARK   10  A    between atoms: C_16  and  C_18
REMARK   11  A    between atoms: C_19  and  C_20
REMARK   12  A    between atoms: C_23  and  O_24
REMARK   13  A    between atoms: O_24  and  C_25
REMARK                            x       y       z     vdW  Elec       q    Type
REMARK                         _______ _______ _______ _____ _____    ______ ____
ROOT
ATOM      1  C   UNL     1       0.782  10.135  19.820  0.00  0.00    +0.000 C 
ATOM      2  C   UNL     1       1.354   9.627  18.698  0.00  0.00    +0.000 C 
ENDROOT
BRANCH   1   3
ATOM      3  C   UNL     1       0.419  11.603  19.886  0.00  0.00    +0.000 C 
ATOM      4  O   UNL     1       1.245  12.478  19.637  0.00  0.00    +0.000 OA
BRANCH   3   6
ATOM      5  C   UNL     1      -1.355  12.570  21.348  0.00  0.00    +0.000 C 
ATOM      6  C   UNL     1      -1.001  11.944  20.212  0.00  0.00    +0.000 C 
BRANCH   5  10
ATOM      7  C   UNL     1      -5.426  13.748  22.158  0.00  0.00    +0.000 A 
ATOM      8  C   UNL     1      -4.799  14.143  20.973  0.00  0.00    +0.000 A 
ATOM      9  C   UNL     1      -3.474  13.767  20.699  0.00  0.00    +0.000 A 
ATOM     10  C   UNL     1      -2.744  13.002  21.622  0.00  0.00    +0.000 A 
ATOM     11  C   UNL     1      -3.394  12.599  22.798  0.00  0.00    +0.000 A 
ATOM     12  C   UNL     1      -4.715  12.974  23.070  0.00  0.00    +0.000 A 
BRANCH   7  14
ATOM     13  C   UNL     1      -7.699  13.593  21.494  0.00  0.00    +0.000 C 
ATOM     14  O   UNL     1      -6.710  14.190  22.328  0.00  0.00    +0.000 OA
ENDBRANCH   7  14
ENDBRANCH   5  10
ENDBRANCH   3   6
ENDBRANCH   1   3
BRANCH   2  15
ATOM     15  O   UNL     1       1.618  10.391  17.571  0.00  0.00    +0.000 OA
ATOM     16  H   UNL     1       1.930  11.278  17.859  0.00  0.00    +0.000 HD
ENDBRANCH   2  15
BRANCH   2  17
ATOM     17  C   UNL     1       1.706   8.214  18.523  0.00  0.00    +0.000 C 
ATOM     18  C   UNL     1       2.878   7.751  18.040  0.00  0.00    +0.000 C 
BRANCH  18  19
ATOM     19  C   UNL     1       3.233   6.329  17.839  0.00  0.00    +0.000 A 
ATOM     20  C   UNL     1       2.250   5.349  18.036  0.00  0.00    +0.000 A 
ATOM     21  C   UNL     1       2.545   3.989  17.876  0.00  0.00    +0.000 A 
ATOM     22  C   UNL     1       3.817   3.577  17.480  0.00  0.00    +0.000 A 
ATOM     23  C   UNL     1       4.795   4.540  17.248  0.00  0.00    +0.000 A 
ATOM     24  C   UNL     1       4.502   5.905  17.421  0.00  0.00    +0.000 A 
BRANCH  22  25
ATOM     25  O   UNL     1       3.992   2.223  17.401  0.00  0.00    +0.000 OA
ATOM     26  C   UNL     1       3.545   1.461  18.517  0.00  0.00    +0.000 C 
ENDBRANCH  22  25
ENDBRANCH  18  19
ENDBRANCH   2  17
BRANCH   1  27
ATOM     27  O   UNL     1       0.240   9.280  20.815  0.00  0.00    +0.000 OA
BRANCH  27  28
ATOM     28  C   UNL     1       0.682   9.374  22.108  0.00  0.00    +0.000 C 
ATOM     29  C   UNL     1      -0.523   9.451  22.997  0.00  0.00    +0.000 C 
ATOM     30  O   UNL     1       1.844   9.450  22.473  0.00  0.00    +0.000 OA
ENDBRANCH  27  28
ENDBRANCH   1  27
TORSDOF 10
ENDMDL
MODEL 5
REMARK VINA RESULT:      -6.8      2.731      3.741
REMARK  Name = 
REMARK  13 active torsions:
REMARK  status: ('A' for Active; 'I' for Inactive)
REMARK    1  A    between atoms: C_1  and  O_2
REMARK    2  A    between atoms: O_2  and  C_3
REMARK    3  A    between atoms: C_6  and  C_7
REMARK    4  A    between atoms: C_8  and  C_9
REMARK    5  A    between atoms: C_9  and  C_11
REMARK    6  A    between atoms: C_11  and  O_12
REMARK    7  A    between atoms: O_12  and  C_13
REMARK    8  A    between atoms: C_13  and  C_14
REMARK    9  A    between atoms: C_16  and  O_17
REMARK   10  A    between atoms: C_16  and  C_18
REMARK   11  A    between atoms: C_19  and  C_20
REMARK   12  A    between atoms: C_23  and  O_24
REMARK   13  A    between atoms: O_24  and  C_25
REMARK                            x       y       z     vdW  Elec       q    Type
REMARK                         _______ _______ _______ _____ _____    ______ ____
ROOT
ATOM      1  C   UNL     1       0.645  10.548  19.452  0.00  0.00    +0.000 C 
ATOM      2  C   UNL     1       1.430   9.932  18.531  0.00  0.00    +0.000 C 
ENDROOT
BRANCH   1   3
ATOM      3  C   UNL     1       0.298  12.013  19.292  0.00  0.00    +0.000 C 
ATOM      4  O   UNL     1       1.170  12.879  19.291  0.00  0.00    +0.000 OA
BRANCH   3   6
ATOM      5  C   UNL     1      -2.035  11.480  18.592  0.00  0.00    +0.000 C 
ATOM      6  C   UNL     1      -1.142  12.358  19.080  0.00  0.00    +0.000 C 
BRANCH   5  10
ATOM      7  C   UNL     1      -6.227  12.426  18.206  0.00  0.00    +0.000 A 
ATOM      8  C   UNL     1      -5.562  12.645  19.415  0.00  0.00    +0.000 A 
ATOM      9  C   UNL     1      -4.198  12.340  19.553  0.00  0.00    +0.000 A 
ATOM     10  C   UNL     1      -3.479  11.788  18.483  0.00  0.00    +0.000 A 
ATOM     11  C   UNL     1      -4.157  11.590  17.271  0.00  0.00    +0.000 A 
ATOM     12  C   UNL     1      -5.516  11.895  17.134  0.00  0.00    +0.000 A 
BRANCH   7  14
ATOM     13  C   UNL     1      -7.895  14.048  17.741  0.00  0.00    +0.000 C 
ATOM     14  O   UNL     1      -7.559  12.740  18.193  0.00  0.00    +0.000 OA
ENDBRANCH   7  14
ENDBRANCH   5  10
ENDBRANCH   3   6
ENDBRANCH   1   3
BRANCH   2  15
ATOM     15  O   UNL     1       1.936  10.578  17.414  0.00  0.00    +0.000 OA
ATOM     16  H   UNL     1       2.796  10.165  17.174  0.00  0.00    +0.000 HD
ENDBRANCH   2  15
BRANCH   2  17
ATOM     17  C   UNL     1       1.788   8.510  18.578  0.00  0.00    +0.000 C 
ATOM     18  C   UNL     1       2.684   7.900  17.773  0.00  0.00    +0.000 C 
BRANCH  18  19
ATOM     19  C   UNL     1       3.034   6.462  17.798  0.00  0.00    +0.000 A 
ATOM     20  C   UNL     1       4.374   6.087  17.619  0.00  0.00    +0.000 A 
ATOM     21  C   UNL     1       4.749   4.737  17.615  0.00  0.00    +0.000 A 
ATOM     22  C   UNL     1       3.805   3.733  17.827  0.00  0.00    +0.000 A 
ATOM     23  C   UNL     1       2.476   4.092  18.039  0.00  0.00    +0.000 A 
ATOM     24  C   UNL     1       2.097   5.446  18.030  0.00  0.00    +0.000 A 
BRANCH  22  25
ATOM     25  O   UNL     1       4.288   2.455  17.757  0.00  0.00    +0.000 OA
ATOM     26  C   UNL     1       3.641   1.489  18.577  0.00  0.00    +0.000 C 
ENDBRANCH  22  25
ENDBRANCH  18  19
ENDBRANCH   2  17
BRANCH   1  27
ATOM     27  O   UNL     1      -0.107   9.796  20.392  0.00  0.00    +0.000 OA
BRANCH  27  28
ATOM     28  C   UNL     1       0.017  10.060  21.731  0.00  0.00    +0.000 C 
ATOM     29  C   UNL     1      -0.513   8.873  22.480  0.00  0.00    +0.000 C 
ATOM     30  O   UNL     1       0.422  11.096  22.231  0.00  0.00    +0.000 OA
ENDBRANCH  27  28
ENDBRANCH   1  27
TORSDOF 10
ENDMDL
MODEL 6
REMARK VINA RESULT:      -6.7      1.739      2.937
REMARK  Name = 
REMARK  13 active torsions:
REMARK  status: ('A' for Active; 'I' for Inactive)
REMARK    1  A    between atoms: C_1  and  O_2
REMARK    2  A    between atoms: O_2  and  C_3
REMARK    3  A    between atoms: C_6  and  C_7
REMARK    4  A    between atoms: C_8  and  C_9
REMARK    5  A    between atoms: C_9  and  C_11
REMARK    6  A    between atoms: C_11  and  O_12
REMARK    7  A    between atoms: O_12  and  C_13
REMARK    8  A    between atoms: C_13  and  C_14
REMARK    9  A    between atoms: C_16  and  O_17
REMARK   10  A    between atoms: C_16  and  C_18
REMARK   11  A    between atoms: C_19  and  C_20
REMARK   12  A    between atoms: C_23  and  O_24
REMARK   13  A    between atoms: O_24  and  C_25
REMARK                            x       y       z     vdW  Elec       q    Type
REMARK                         _______ _______ _______ _____ _____    ______ ____
ROOT
ATOM      1  C   UNL     1       0.695  10.246  19.568  0.00  0.00    +0.000 C 
ATOM      2  C   UNL     1       1.386   9.670  18.551  0.00  0.00    +0.000 C 
ENDROOT
BRANCH   1   3
ATOM      3  C   UNL     1       0.437  11.737  19.559  0.00  0.00    +0.000 C 
ATOM      4  O   UNL     1       1.257  12.525  19.092  0.00  0.00    +0.000 OA
BRANCH   3   6
ATOM      5  C   UNL     1      -2.020  12.125  19.388  0.00  0.00    +0.000 C 
ATOM      6  C   UNL     1      -0.878  12.210  20.093  0.00  0.00    +0.000 C 
BRANCH   5  10
ATOM      7  C   UNL     1      -5.876  13.243  20.969  0.00  0.00    +0.000 A 
ATOM      8  C   UNL     1      -4.711  13.509  21.694  0.00  0.00    +0.000 A 
ATOM      9  C   UNL     1      -3.450  13.149  21.190  0.00  0.00    +0.000 A 
ATOM     10  C   UNL     1      -3.337  12.493  19.955  0.00  0.00    +0.000 A 
ATOM     11  C   UNL     1      -4.514  12.249  19.232  0.00  0.00    +0.000 A 
ATOM     12  C   UNL     1      -5.770  12.609  19.735  0.00  0.00    +0.000 A 
BRANCH   7  14
ATOM     13  C   UNL     1      -7.301  13.074  22.859  0.00  0.00    +0.000 C 
ATOM     14  O   UNL     1      -7.048  13.619  21.567  0.00  0.00    +0.000 OA
ENDBRANCH   7  14
ENDBRANCH   5  10
ENDBRANCH   3   6
ENDBRANCH   1   3
BRANCH   2  15
ATOM     15  O   UNL     1       1.870  10.385  17.466  0.00  0.00    +0.000 OA
ATOM     16  H   UNL     1       2.609   9.878  17.060  0.00  0.00    +0.000 HD
ENDBRANCH   2  15
BRANCH   2  17
ATOM     17  C   UNL     1       1.652   8.231  18.450  0.00  0.00    +0.000 C 
ATOM     18  C   UNL     1       2.813   7.674  18.046  0.00  0.00    +0.000 C 
BRANCH  18  19
ATOM     19  C   UNL     1       3.083   6.225  17.919  0.00  0.00    +0.000 A 
ATOM     20  C   UNL     1       2.000   5.334  17.878  0.00  0.00    +0.000 A 
ATOM     21  C   UNL     1       2.208   3.952  17.778  0.00  0.00    +0.000 A 
ATOM     22  C   UNL     1       3.497   3.429  17.680  0.00  0.00    +0.000 A 
ATOM     23  C   UNL     1       4.581   4.304  17.687  0.00  0.00    +0.000 A 
ATOM     24  C   UNL     1       4.373   5.690  17.800  0.00  0.00    +0.000 A 
BRANCH  22  25
ATOM     25  O   UNL     1       3.570   2.064  17.632  0.00  0.00    +0.000 OA
ATOM     26  C   UNL     1       3.900   1.405  18.849  0.00  0.00    +0.000 C 
ENDBRANCH  22  25
ENDBRANCH  18  19
ENDBRANCH   2  17
BRANCH   1  27
ATOM     27  O   UNL     1      -0.052   9.457  20.483  0.00  0.00    +0.000 OA
BRANCH  27  28
ATOM     28  C   UNL     1       0.457   9.193  21.727  0.00  0.00    +0.000 C 
ATOM     29  C   UNL     1      -0.485   9.778  22.737  0.00  0.00    +0.000 C 
ATOM     30  O   UNL     1       1.517   8.642  21.975  0.00  0.00    +0.000 OA
ENDBRANCH  27  28
ENDBRANCH   1  27
TORSDOF 10
ENDMDL
MODEL 7
REMARK VINA RESULT:      -6.7      3.884      7.111
REMARK  Name = 
REMARK  13 active torsions:
REMARK  status: ('A' for Active; 'I' for Inactive)
REMARK    1  A    between atoms: C_1  and  O_2
REMARK    2  A    between atoms: O_2  and  C_3
REMARK    3  A    between atoms: C_6  and  C_7
REMARK    4  A    between atoms: C_8  and  C_9
REMARK    5  A    between atoms: C_9  and  C_11
REMARK    6  A    between atoms: C_11  and  O_12
REMARK    7  A    between atoms: O_12  and  C_13
REMARK    8  A    between atoms: C_13  and  C_14
REMARK    9  A    between atoms: C_16  and  O_17
REMARK   10  A    between atoms: C_16  and  C_18
REMARK   11  A    between atoms: C_19  and  C_20
REMARK   12  A    between atoms: C_23  and  O_24
REMARK   13  A    between atoms: O_24  and  C_25
REMARK                            x       y       z     vdW  Elec       q    Type
REMARK                         _______ _______ _______ _____ _____    ______ ____
ROOT
ATOM      1  C   UNL     1       3.053   4.500  19.292  0.00  0.00    +0.000 C 
ATOM      2  C   UNL     1       4.343   4.835  19.031  0.00  0.00    +0.000 C 
ENDROOT
BRANCH   1   3
ATOM      3  C   UNL     1       2.410   4.923  20.596  0.00  0.00    +0.000 C 
ATOM      4  O   UNL     1       2.455   4.205  21.592  0.00  0.00    +0.000 OA
BRANCH   3   6
ATOM      5  C   UNL     1       2.122   7.272  19.813  0.00  0.00    +0.000 C 
ATOM      6  C   UNL     1       1.767   6.273  20.638  0.00  0.00    +0.000 C 
BRANCH   5  10
ATOM      7  C   UNL     1      -0.014  11.021  19.749  0.00  0.00    +0.000 A 
ATOM      8  C   UNL     1       0.680  10.584  18.617  0.00  0.00    +0.000 A 
ATOM      9  C   UNL     1       1.380   9.366  18.626  0.00  0.00    +0.000 A 
ATOM     10  C   UNL     1       1.414   8.572  19.782  0.00  0.00    +0.000 A 
ATOM     11  C   UNL     1       0.698   9.017  20.904  0.00  0.00    +0.000 A 
ATOM     12  C   UNL     1      -0.000  10.230  20.893  0.00  0.00    +0.000 A 
BRANCH   7  14
ATOM     13  C   UNL     1      -0.736  12.769  18.316  0.00  0.00    +0.000 C 
ATOM     14  O   UNL     1      -0.642  12.231  19.632  0.00  0.00    +0.000 OA
ENDBRANCH   7  14
ENDBRANCH   5  10
ENDBRANCH   3   6
ENDBRANCH   1   3
BRANCH   2  15
ATOM     15  O   UNL     1       5.125   5.574  19.907  0.00  0.00    +0.000 OA
ATOM     16  H   UNL     1       5.538   6.315  19.409  0.00  0.00    +0.000 HD
ENDBRANCH   2  15
BRANCH   2  17
ATOM     17  C   UNL     1       5.040   4.506  17.783  0.00  0.00    +0.000 C 
ATOM     18  C   UNL     1       4.890   5.152  16.607  0.00  0.00    +0.000 C 
BRANCH  18  19
ATOM     19  C   UNL     1       5.572   4.813  15.338  0.00  0.00    +0.000 A 
ATOM     20  C   UNL     1       4.867   4.099  14.359  0.00  0.00    +0.000 A 
ATOM     21  C   UNL     1       5.478   3.740  13.150  0.00  0.00    +0.000 A 
ATOM     22  C   UNL     1       6.792   4.116  12.875  0.00  0.00    +0.000 A 
ATOM     23  C   UNL     1       7.494   4.854  13.825  0.00  0.00    +0.000 A 
ATOM     24  C   UNL     1       6.885   5.204  15.043  0.00  0.00    +0.000 A 
BRANCH  22  25
ATOM     25  O   UNL     1       7.289   3.668  11.682  0.00  0.00    +0.000 OA
ATOM     26  C   UNL     1       7.056   2.298  11.374  0.00  0.00    +0.000 C 
ENDBRANCH  22  25
ENDBRANCH  18  19
ENDBRANCH   2  17
BRANCH   1  27
ATOM     27  O   UNL     1       2.196   4.032  18.261  0.00  0.00    +0.000 OA
BRANCH  27  28
ATOM     28  C   UNL     1       1.665   2.772  18.337  0.00  0.00    +0.000 C 
ATOM     29  C   UNL     1       2.699   1.811  17.830  0.00  0.00    +0.000 C 
ATOM     30  O   UNL     1       0.533   2.482  18.687  0.00  0.00    +0.000 OA
ENDBRANCH  27  28
ENDBRANCH   1  27
TORSDOF 10
ENDMDL
MODEL 8
REMARK VINA RESULT:      -6.7      1.312      1.627
REMARK  Name = 
REMARK  13 active torsions:
REMARK  status: ('A' for Active; 'I' for Inactive)
REMARK    1  A    between atoms: C_1  and  O_2
REMARK    2  A    between atoms: O_2  and  C_3
REMARK    3  A    between atoms: C_6  and  C_7
REMARK    4  A    between atoms: C_8  and  C_9
REMARK    5  A    between atoms: C_9  and  C_11
REMARK    6  A    between atoms: C_11  and  O_12
REMARK    7  A    between atoms: O_12  and  C_13
REMARK    8  A    between atoms: C_13  and  C_14
REMARK    9  A    between atoms: C_16  and  O_17
REMARK   10  A    between atoms: C_16  and  C_18
REMARK   11  A    between atoms: C_19  and  C_20
REMARK   12  A    between atoms: C_23  and  O_24
REMARK   13  A    between atoms: O_24  and  C_25
REMARK                            x       y       z     vdW  Elec       q    Type
REMARK                         _______ _______ _______ _____ _____    ______ ____
ROOT
ATOM      1  C   UNL     1       0.457  10.337  20.692  0.00  0.00    +0.000 C 
ATOM      2  C   UNL     1       0.882   9.292  21.447  0.00  0.00    +0.000 C 
ENDROOT
BRANCH   1   3
ATOM      3  C   UNL     1       0.469  11.738  21.264  0.00  0.00    +0.000 C 
ATOM      4  O   UNL     1       1.519  12.362  21.406  0.00  0.00    +0.000 OA
BRANCH   3   6
ATOM      5  C   UNL     1      -1.274  12.527  22.863  0.00  0.00    +0.000 C 
ATOM      6  C   UNL     1      -0.853  12.355  21.598  0.00  0.00    +0.000 C 
BRANCH   5  10
ATOM      7  C   UNL     1      -4.985  14.524  23.789  0.00  0.00    +0.000 A 
ATOM      8  C   UNL     1      -3.941  15.223  23.177  0.00  0.00    +0.000 A 
ATOM      9  C   UNL     1      -2.728  14.584  22.872  0.00  0.00    +0.000 A 
ATOM     10  C   UNL     1      -2.532  13.232  23.196  0.00  0.00    +0.000 A 
ATOM     11  C   UNL     1      -3.597  12.542  23.794  0.00  0.00    +0.000 A 
ATOM     12  C   UNL     1      -4.806  13.180  24.097  0.00  0.00    +0.000 A 
BRANCH   7  14
ATOM     13  C   UNL     1      -6.300  16.434  23.284  0.00  0.00    +0.000 C 
ATOM     14  O   UNL     1      -6.111  15.253  24.058  0.00  0.00    +0.000 OA
ENDBRANCH   7  14
ENDBRANCH   5  10
ENDBRANCH   3   6
ENDBRANCH   1   3
BRANCH   2  15
ATOM     15  O   UNL     1       1.354   9.437  22.743  0.00  0.00    +0.000 OA
ATOM     16  H   UNL     1       1.856   8.627  22.987  0.00  0.00    +0.000 HD
ENDBRANCH   2  15
BRANCH   2  17
ATOM     17  C   UNL     1       0.945   7.906  20.969  0.00  0.00    +0.000 C 
ATOM     18  C   UNL     1       2.072   7.238  20.647  0.00  0.00    +0.000 C 
BRANCH  18  19
ATOM     19  C   UNL     1       2.144   5.848  20.143  0.00  0.00    +0.000 A 
ATOM     20  C   UNL     1       2.064   4.789  21.058  0.00  0.00    +0.000 A 
ATOM     21  C   UNL     1       2.146   3.458  20.629  0.00  0.00    +0.000 A 
ATOM     22  C   UNL     1       2.273   3.151  19.275  0.00  0.00    +0.000 A 
ATOM     23  C   UNL     1       2.320   4.192  18.350  0.00  0.00    +0.000 A 
ATOM     24  C   UNL     1       2.250   5.528  18.782  0.00  0.00    +0.000 A 
BRANCH  22  25
ATOM     25  O   UNL     1       2.387   1.819  18.987  0.00  0.00    +0.000 OA
ATOM     26  C   UNL     1       3.568   1.418  18.304  0.00  0.00    +0.000 C 
ENDBRANCH  22  25
ENDBRANCH  18  19
ENDBRANCH   2  17
BRANCH   1  27
ATOM     27  O   UNL     1       0.288  10.204  19.288  0.00  0.00    +0.000 OA
BRANCH  27  28
ATOM     28  C   UNL     1       1.346  10.440  18.450  0.00  0.00    +0.000 C 
ATOM     29  C   UNL     1       1.632   9.166  17.711  0.00  0.00    +0.000 C 
ATOM     30  O   UNL     1       1.986  11.474  18.365  0.00  0.00    +0.000 OA
ENDBRANCH  27  28
ENDBRANCH   1  27
TORSDOF 10
ENDMDL
MODEL 9
REMARK VINA RESULT:      -6.6      1.510     10.563
REMARK  Name = 
REMARK  13 active torsions:
REMARK  status: ('A' for Active; 'I' for Inactive)
REMARK    1  A    between atoms: C_1  and  O_2
REMARK    2  A    between atoms: O_2  and  C_3
REMARK    3  A    between atoms: C_6  and  C_7
REMARK    4  A    between atoms: C_8  and  C_9
REMARK    5  A    between atoms: C_9  and  C_11
REMARK    6  A    between atoms: C_11  and  O_12
REMARK    7  A    between atoms: O_12  and  C_13
REMARK    8  A    between atoms: C_13  and  C_14
REMARK    9  A    between atoms: C_16  and  O_17
REMARK   10  A    between atoms: C_16  and  C_18
REMARK   11  A    between atoms: C_19  and  C_20
REMARK   12  A    between atoms: C_23  and  O_24
REMARK   13  A    between atoms: O_24  and  C_25
REMARK                            x       y       z     vdW  Elec       q    Type
REMARK                         _______ _______ _______ _____ _____    ______ ____
ROOT
ATOM      1  C   UNL     1       0.242  10.084  19.229  0.00  0.00    +0.000 C 
ATOM      2  C   UNL     1      -0.560  11.162  19.035  0.00  0.00    +0.000 C 
ENDROOT
BRANCH   1   3
ATOM      3  C   UNL     1       1.407   9.830  18.297  0.00  0.00    +0.000 C 
ATOM      4  O   UNL     1       2.108  10.751  17.885  0.00  0.00    +0.000 OA
BRANCH   3   6
ATOM      5  C   UNL     1       2.806   7.767  18.373  0.00  0.00    +0.000 C 
ATOM      6  C   UNL     1       1.705   8.407  17.942  0.00  0.00    +0.000 C 
BRANCH   5  10
ATOM      7  C   UNL     1       3.458   3.559  17.674  0.00  0.00    +0.000 A 
ATOM      8  C   UNL     1       4.543   4.423  17.850  0.00  0.00    +0.000 A 
ATOM      9  C   UNL     1       4.343   5.794  18.078  0.00  0.00    +0.000 A 
ATOM     10  C   UNL     1       3.047   6.330  18.111  0.00  0.00    +0.000 A 
ATOM     11  C   UNL     1       1.969   5.447  17.949  0.00  0.00    +0.000 A 
ATOM     12  C   UNL     1       2.169   4.080  17.723  0.00  0.00    +0.000 A 
BRANCH   7  14
ATOM     13  C   UNL     1       3.672   1.365  18.552  0.00  0.00    +0.000 C 
ATOM     14  O   UNL     1       3.772   2.249  17.439  0.00  0.00    +0.000 OA
ENDBRANCH   7  14
ENDBRANCH   5  10
ENDBRANCH   3   6
ENDBRANCH   1   3
BRANCH   2  15
ATOM     15  O   UNL     1      -0.362  12.078  18.013  0.00  0.00    +0.000 OA
ATOM     16  H   UNL     1      -0.141  12.950  18.412  0.00  0.00    +0.000 HD
ENDBRANCH   2  15
BRANCH   2  17
ATOM     17  C   UNL     1      -1.688  11.514  19.905  0.00  0.00    +0.000 C 
ATOM     18  C   UNL     1      -2.680  12.374  19.594  0.00  0.00    +0.000 C 
BRANCH  18  19
ATOM     19  C   UNL     1      -3.808  12.752  20.474  0.00  0.00    +0.000 A 
ATOM     20  C   UNL     1      -5.065  12.995  19.901  0.00  0.00    +0.000 A 
ATOM     21  C   UNL     1      -6.157  13.374  20.692  0.00  0.00    +0.000 A 
ATOM     22  C   UNL     1      -6.031  13.484  22.076  0.00  0.00    +0.000 A 
ATOM     23  C   UNL     1      -4.798  13.213  22.664  0.00  0.00    +0.000 A 
ATOM     24  C   UNL     1      -3.699  12.845  21.868  0.00  0.00    +0.000 A 
BRANCH  22  25
ATOM     25  O   UNL     1      -7.156  13.903  22.732  0.00  0.00    +0.000 OA
ATOM     26  C   UNL     1      -7.826  12.930  23.524  0.00  0.00    +0.000 C 
ENDBRANCH  22  25
ENDBRANCH  18  19
ENDBRANCH   2  17
BRANCH   1  27
ATOM     27  O   UNL     1       0.209   9.359  20.450  0.00  0.00    +0.000 OA
BRANCH  27  28
ATOM     28  C   UNL     1       0.539   9.985  21.623  0.00  0.00    +0.000 C 
ATOM     29  C   UNL     1      -0.372   9.458  22.692  0.00  0.00    +0.000 C 
ATOM     30  O   UNL     1       1.374  10.863  21.766  0.00  0.00    +0.000 OA
ENDBRANCH  27  28
ENDBRANCH   1  27
TORSDOF 10
ENDMDL
