MODEL 1
REMARK VINA RESULT:      -7.1      0.000      0.000
REMARK  Name = 
REMARK  4 active torsions:
REMARK  status: ('A' for Active; 'I' for Inactive)
REMARK    1  A    between atoms: C_1  and  C_2
REMARK    2  A    between atoms: C_12  and  C_13
REMARK    3  A    between atoms: C_21  and  C_22
REMARK    4  A    between atoms: C_21  and  C_23
REMARK                            x       y       z     vdW  Elec       q    Type
REMARK                         _______ _______ _______ _____ _____    ______ ____
ROOT
ATOM      1  C   UNL     1       2.900  14.747  18.383  0.00  0.00    +0.000 C 
ATOM      2  C   UNL     1       2.054  13.888  19.322  0.00  0.00    +0.000 C 
ATOM      3  C   UNL     1       0.827  13.343  18.580  0.00  0.00    +0.000 C 
ATOM      4  C   UNL     1      -0.097  12.579  19.527  0.00  0.00    +0.000 C 
ATOM      5  N   UNL     1      -0.451  13.446  20.640  0.00  0.00    +0.000 N 
ATOM      6  C   UNL     1      -1.749  13.492  21.106  0.00  0.00    +0.000 A 
ATOM      7  N   UNL     1      -2.700  12.836  20.411  0.00  0.00    +0.000 NA
ATOM      8  C   UNL     1      -4.001  12.920  20.760  0.00  0.00    +0.000 A 
ATOM      9  N   UNL     1      -5.001  12.291  19.987  0.00  0.00    +0.000 N 
ATOM     10  C   UNL     1      -4.919  11.859  18.707  0.00  0.00    +0.000 A 
ATOM     11  C   UNL     1      -3.737  11.529  18.019  0.00  0.00    +0.000 A 
ATOM     12  C   UNL     1      -4.105  11.317  16.715  0.00  0.00    +0.000 A 
ATOM     13  N   UNL     1      -5.462  11.405  16.714  0.00  0.00    +0.000 N 
ATOM     14  N   UNL     1      -5.985  11.727  17.910  0.00  0.00    +0.000 NA
ATOM     15  C   UNL     1      -4.347  13.645  21.867  0.00  0.00    +0.000 A 
ATOM     16  C   UNL     1      -3.330  14.303  22.526  0.00  0.00    +0.000 A 
ATOM     17  N   UNL     1      -2.038  14.248  22.177  0.00  0.00    +0.000 NA
ATOM     18  C   UNL     1      -3.882  15.169  23.644  0.00  0.00    +0.000 C 
ATOM     19  C   UNL     1      -3.975  16.637  23.207  0.00  0.00    +0.000 C 
ATOM     20  C   UNL     1      -3.070  15.046  24.933  0.00  0.00    +0.000 C 
ATOM     21  C   UNL     1      -5.292  14.545  23.808  0.00  0.00    +0.000 C 
ATOM     22  C   UNL     1      -5.682  13.967  22.440  0.00  0.00    +0.000 C 
ATOM     23  C   UNL     1       0.654  13.914  21.455  0.00  0.00    +0.000 C 
ATOM     24  C   UNL     1       1.625  14.692  20.563  0.00  0.00    +0.000 C 
ATOM     25  H   UNL     1      -5.938  12.537  20.269  0.00  0.00    +0.000 HD
ATOM     26  H   UNL     1      -6.092  11.288  15.928  0.00  0.00    +0.000 HD
ENDROOT
BRANCH  12  27
ATOM     27  C   UNL     1      -3.192  11.062  15.535  0.00  0.00    +0.000 C 
ATOM     28  C   UNL     1      -2.608   9.668  15.369  0.00  0.00    +0.000 C 
ATOM     29  C   UNL     1      -3.668  10.137  14.433  0.00  0.00    +0.000 C 
ENDBRANCH  12  27
TORSDOF 1
ENDMDL
MODEL 2
REMARK VINA RESULT:      -6.6      2.676      5.267
REMARK  Name = 
REMARK  4 active torsions:
REMARK  status: ('A' for Active; 'I' for Inactive)
REMARK    1  A    between atoms: C_1  and  C_2
REMARK    2  A    between atoms: C_12  and  C_13
REMARK    3  A    between atoms: C_21  and  C_22
REMARK    4  A    between atoms: C_21  and  C_23
REMARK                            x       y       z     vdW  Elec       q    Type
REMARK                         _______ _______ _______ _____ _____    ______ ____
ROOT
ATOM      1  C   UNL     1      -3.270  10.241  14.037  0.00  0.00    +0.000 C 
ATOM      2  C   UNL     1      -3.607  10.089  15.520  0.00  0.00    +0.000 C 
ATOM      3  C   UNL     1      -4.445  11.281  15.999  0.00  0.00    +0.000 C 
ATOM      4  C   UNL     1      -4.694  11.212  17.505  0.00  0.00    +0.000 C 
ATOM      5  N   UNL     1      -3.414  11.113  18.189  0.00  0.00    +0.000 N 
ATOM      6  C   UNL     1      -3.170  11.851  19.328  0.00  0.00    +0.000 A 
ATOM      7  N   UNL     1      -4.083  12.772  19.700  0.00  0.00    +0.000 NA
ATOM      8  C   UNL     1      -3.860  13.590  20.749  0.00  0.00    +0.000 A 
ATOM      9  N   UNL     1      -4.784  14.601  21.089  0.00  0.00    +0.000 N 
ATOM     10  C   UNL     1      -5.758  15.136  20.317  0.00  0.00    +0.000 A 
ATOM     11  C   UNL     1      -6.358  14.527  19.199  0.00  0.00    +0.000 A 
ATOM     12  C   UNL     1      -7.152  15.485  18.625  0.00  0.00    +0.000 A 
ATOM     13  N   UNL     1      -7.088  16.548  19.472  0.00  0.00    +0.000 N 
ATOM     14  N   UNL     1      -6.255  16.363  20.511  0.00  0.00    +0.000 NA
ATOM     15  C   UNL     1      -2.709  13.444  21.473  0.00  0.00    +0.000 A 
ATOM     16  C   UNL     1      -1.810  12.495  21.035  0.00  0.00    +0.000 A 
ATOM     17  N   UNL     1      -2.007  11.692  19.981  0.00  0.00    +0.000 NA
ATOM     18  C   UNL     1      -0.530  12.543  21.851  0.00  0.00    +0.000 C 
ATOM     19  C   UNL     1       0.568  13.312  21.105  0.00  0.00    +0.000 C 
ATOM     20  C   UNL     1      -0.036  11.151  22.243  0.00  0.00    +0.000 C 
ATOM     21  C   UNL     1      -1.022  13.334  23.090  0.00  0.00    +0.000 C 
ATOM     22  C   UNL     1      -2.171  14.235  22.614  0.00  0.00    +0.000 C 
ATOM     23  C   UNL     1      -2.611   9.949  17.865  0.00  0.00    +0.000 C 
ATOM     24  C   UNL     1      -2.324   9.954  16.361  0.00  0.00    +0.000 C 
ATOM     25  H   UNL     1      -4.446  15.230  21.801  0.00  0.00    +0.000 HD
ATOM     26  H   UNL     1      -7.562  17.441  19.386  0.00  0.00    +0.000 HD
ENDROOT
BRANCH  12  27
ATOM     27  C   UNL     1      -7.915  15.384  17.322  0.00  0.00    +0.000 C 
ATOM     28  C   UNL     1      -7.283  15.980  16.074  0.00  0.00    +0.000 C 
ATOM     29  C   UNL     1      -7.363  14.500  16.221  0.00  0.00    +0.000 C 
ENDBRANCH  12  27
TORSDOF 1
ENDMDL
MODEL 3
REMARK VINA RESULT:      -6.5      1.383      1.463
REMARK  Name = 
REMARK  4 active torsions:
REMARK  status: ('A' for Active; 'I' for Inactive)
REMARK    1  A    between atoms: C_1  and  C_2
REMARK    2  A    between atoms: C_12  and  C_13
REMARK    3  A    between atoms: C_21  and  C_22
REMARK    4  A    between atoms: C_21  and  C_23
REMARK                            x       y       z     vdW  Elec       q    Type
REMARK                         _______ _______ _______ _____ _____    ______ ____
ROOT
ATOM      1  C   UNL     1       1.611  16.695  18.409  0.00  0.00    +0.000 C 
ATOM      2  C   UNL     1       0.968  15.798  19.466  0.00  0.00    +0.000 C 
ATOM      3  C   UNL     1      -0.042  14.846  18.812  0.00  0.00    +0.000 C 
ATOM      4  C   UNL     1      -0.784  14.021  19.862  0.00  0.00    +0.000 C 
ATOM      5  N   UNL     1      -1.402  14.925  20.820  0.00  0.00    +0.000 N 
ATOM      6  C   UNL     1      -2.689  14.703  21.263  0.00  0.00    +0.000 A 
ATOM      7  N   UNL     1      -3.406  13.723  20.674  0.00  0.00    +0.000 NA
ATOM      8  C   UNL     1      -4.700  13.519  20.996  0.00  0.00    +0.000 A 
ATOM      9  N   UNL     1      -5.468  12.542  20.325  0.00  0.00    +0.000 N 
ATOM     10  C   UNL     1      -5.216  11.957  19.131  0.00  0.00    +0.000 A 
ATOM     11  C   UNL     1      -3.958  11.845  18.513  0.00  0.00    +0.000 A 
ATOM     12  C   UNL     1      -4.195  11.349  17.257  0.00  0.00    +0.000 A 
ATOM     13  N   UNL     1      -5.529  11.080  17.232  0.00  0.00    +0.000 N 
ATOM     14  N   UNL     1      -6.174  11.432  18.358  0.00  0.00    +0.000 NA
ATOM     15  C   UNL     1      -5.273  14.288  21.971  0.00  0.00    +0.000 A 
ATOM     16  C   UNL     1      -4.492  15.280  22.524  0.00  0.00    +0.000 A 
ATOM     17  N   UNL     1      -3.214  15.511  22.198  0.00  0.00    +0.000 NA
ATOM     18  C   UNL     1      -5.300  16.132  23.486  0.00  0.00    +0.000 C 
ATOM     19  C   UNL     1      -5.744  17.441  22.821  0.00  0.00    +0.000 C 
ATOM     20  C   UNL     1      -4.547  16.421  24.784  0.00  0.00    +0.000 C 
ATOM     21  C   UNL     1      -6.510  15.195  23.737  0.00  0.00    +0.000 C 
ATOM     22  C   UNL     1      -6.673  14.335  22.475  0.00  0.00    +0.000 C 
ATOM     23  C   UNL     1      -0.494  15.782  21.558  0.00  0.00    +0.000 C 
ATOM     24  C   UNL     1       0.289  16.642  20.561  0.00  0.00    +0.000 C 
ATOM     25  H   UNL     1      -6.449  12.575  20.558  0.00  0.00    +0.000 HD
ATOM     26  H   UNL     1      -6.068  10.685  16.470  0.00  0.00    +0.000 HD
ENDROOT
BRANCH  12  27
ATOM     27  C   UNL     1      -3.191  11.164  16.139  0.00  0.00    +0.000 C 
ATOM     28  C   UNL     1      -2.639   9.768  15.897  0.00  0.00    +0.000 C 
ATOM     29  C   UNL     1      -3.598  10.358  14.922  0.00  0.00    +0.000 C 
ENDBRANCH  12  27
TORSDOF 1
ENDMDL
MODEL 4
REMARK VINA RESULT:      -6.5      2.280      4.508
REMARK  Name = 
REMARK  4 active torsions:
REMARK  status: ('A' for Active; 'I' for Inactive)
REMARK    1  A    between atoms: C_1  and  C_2
REMARK    2  A    between atoms: C_12  and  C_13
REMARK    3  A    between atoms: C_21  and  C_22
REMARK    4  A    between atoms: C_21  and  C_23
REMARK                            x       y       z     vdW  Elec       q    Type
REMARK                         _______ _______ _______ _____ _____    ______ ____
ROOT
ATOM      1  C   UNL     1      -0.040  17.566  24.830  0.00  0.00    +0.000 C 
ATOM      2  C   UNL     1      -0.702  16.189  24.818  0.00  0.00    +0.000 C 
ATOM      3  C   UNL     1      -0.529  15.528  23.445  0.00  0.00    +0.000 C 
ATOM      4  C   UNL     1      -1.284  14.202  23.370  0.00  0.00    +0.000 C 
ATOM      5  N   UNL     1      -2.679  14.435  23.711  0.00  0.00    +0.000 N 
ATOM      6  C   UNL     1      -3.687  13.840  22.981  0.00  0.00    +0.000 A 
ATOM      7  N   UNL     1      -3.352  13.168  21.861  0.00  0.00    +0.000 NA
ATOM      8  C   UNL     1      -4.298  12.645  21.054  0.00  0.00    +0.000 A 
ATOM      9  N   UNL     1      -3.946  12.006  19.845  0.00  0.00    +0.000 N 
ATOM     10  C   UNL     1      -2.788  12.107  19.153  0.00  0.00    +0.000 A 
ATOM     11  C   UNL     1      -1.541  12.492  19.677  0.00  0.00    +0.000 A 
ATOM     12  C   UNL     1      -0.703  12.629  18.601  0.00  0.00    +0.000 A 
ATOM     13  N   UNL     1      -1.433  12.210  17.532  0.00  0.00    +0.000 N 
ATOM     14  N   UNL     1      -2.700  11.881  17.837  0.00  0.00    +0.000 NA
ATOM     15  C   UNL     1      -5.613  12.760  21.409  0.00  0.00    +0.000 A 
ATOM     16  C   UNL     1      -5.891  13.470  22.557  0.00  0.00    +0.000 A 
ATOM     17  N   UNL     1      -4.964  14.015  23.356  0.00  0.00    +0.000 NA
ATOM     18  C   UNL     1      -7.389  13.628  22.748  0.00  0.00    +0.000 C 
ATOM     19  C   UNL     1      -7.858  15.014  22.286  0.00  0.00    +0.000 C 
ATOM     20  C   UNL     1      -7.825  13.370  24.190  0.00  0.00    +0.000 C 
ATOM     21  C   UNL     1      -7.907  12.518  21.797  0.00  0.00    +0.000 C 
ATOM     22  C   UNL     1      -6.853  12.352  20.693  0.00  0.00    +0.000 C 
ATOM     23  C   UNL     1      -2.927  14.959  25.041  0.00  0.00    +0.000 C 
ATOM     24  C   UNL     1      -2.194  16.296  25.186  0.00  0.00    +0.000 C 
ATOM     25  H   UNL     1      -4.741  11.778  19.267  0.00  0.00    +0.000 HD
ATOM     26  H   UNL     1      -1.139  12.152  16.563  0.00  0.00    +0.000 HD
ENDROOT
BRANCH  12  27
ATOM     27  C   UNL     1       0.718  13.151  18.605  0.00  0.00    +0.000 C 
ATOM     28  C   UNL     1       0.939  14.622  18.924  0.00  0.00    +0.000 C 
ATOM     29  C   UNL     1       1.329  13.587  19.922  0.00  0.00    +0.000 C 
ENDBRANCH  12  27
TORSDOF 1
ENDMDL
MODEL 5
REMARK VINA RESULT:      -6.4      1.161      1.393
REMARK  Name = 
REMARK  4 active torsions:
REMARK  status: ('A' for Active; 'I' for Inactive)
REMARK    1  A    between atoms: C_1  and  C_2
REMARK    2  A    between atoms: C_12  and  C_13
REMARK    3  A    between atoms: C_21  and  C_22
REMARK    4  A    between atoms: C_21  and  C_23
REMARK                            x       y       z     vdW  Elec       q    Type
REMARK                         _______ _______ _______ _____ _____    ______ ____
ROOT
ATOM      1  C   UNL     1       3.781  14.908  17.909  0.00  0.00    +0.000 C 
ATOM      2  C   UNL     1       3.078  14.112  19.008  0.00  0.00    +0.000 C 
ATOM      3  C   UNL     1       1.755  13.539  18.486  0.00  0.00    +0.000 C 
ATOM      4  C   UNL     1       0.978  12.839  19.600  0.00  0.00    +0.000 C 
ATOM      5  N   UNL     1       0.792  13.772  20.700  0.00  0.00    +0.000 N 
ATOM      6  C   UNL     1      -0.424  13.859  21.347  0.00  0.00    +0.000 A 
ATOM      7  N   UNL     1      -1.468  13.174  20.837  0.00  0.00    +0.000 NA
ATOM      8  C   UNL     1      -2.703  13.291  21.366  0.00  0.00    +0.000 A 
ATOM      9  N   UNL     1      -3.807  12.631  20.784  0.00  0.00    +0.000 N 
ATOM     10  C   UNL     1      -3.914  12.126  19.534  0.00  0.00    +0.000 A 
ATOM     11  C   UNL     1      -2.846  11.744  18.701  0.00  0.00    +0.000 A 
ATOM     12  C   UNL     1      -3.400  11.462  17.479  0.00  0.00    +0.000 A 
ATOM     13  N   UNL     1      -4.743  11.565  17.670  0.00  0.00    +0.000 N 
ATOM     14  N   UNL     1      -5.085  11.959  18.910  0.00  0.00    +0.000 NA
ATOM     15  C   UNL     1      -2.883  14.081  22.468  0.00  0.00    +0.000 A 
ATOM     16  C   UNL     1      -1.780  14.766  22.933  0.00  0.00    +0.000 A 
ATOM     17  N   UNL     1      -0.552  14.678  22.404  0.00  0.00    +0.000 NA
ATOM     18  C   UNL     1      -2.160  15.700  24.068  0.00  0.00    +0.000 C 
ATOM     19  C   UNL     1      -2.313  17.141  23.565  0.00  0.00    +0.000 C 
ATOM     20  C   UNL     1      -1.169  15.641  25.229  0.00  0.00    +0.000 C 
ATOM     21  C   UNL     1      -3.533  15.101  24.470  0.00  0.00    +0.000 C 
ATOM     22  C   UNL     1      -4.119  14.450  23.209  0.00  0.00    +0.000 C 
ATOM     23  C   UNL     1       2.005  14.274  21.318  0.00  0.00    +0.000 C 
ATOM     24  C   UNL     1       2.837  14.990  20.250  0.00  0.00    +0.000 C 
ATOM     25  H   UNL     1      -4.692  12.901  21.185  0.00  0.00    +0.000 HD
ATOM     26  H   UNL     1      -5.481  11.409  16.992  0.00  0.00    +0.000 HD
ENDROOT
BRANCH  12  27
ATOM     27  C   UNL     1      -2.670  11.131  16.195  0.00  0.00    +0.000 C 
ATOM     28  C   UNL     1      -2.639   9.679  15.743  0.00  0.00    +0.000 C 
ATOM     29  C   UNL     1      -3.475  10.662  15.000  0.00  0.00    +0.000 C 
ENDBRANCH  12  27
TORSDOF 1
ENDMDL
MODEL 6
REMARK VINA RESULT:      -6.4      2.644      4.407
REMARK  Name = 
REMARK  4 active torsions:
REMARK  status: ('A' for Active; 'I' for Inactive)
REMARK    1  A    between atoms: C_1  and  C_2
REMARK    2  A    between atoms: C_12  and  C_13
REMARK    3  A    between atoms: C_21  and  C_22
REMARK    4  A    between atoms: C_21  and  C_23
REMARK                            x       y       z     vdW  Elec       q    Type
REMARK                         _______ _______ _______ _____ _____    ______ ____
ROOT
ATOM      1  C   UNL     1       0.339  16.134  23.413  0.00  0.00    +0.000 C 
ATOM      2  C   UNL     1      -0.808  15.125  23.351  0.00  0.00    +0.000 C 
ATOM      3  C   UNL     1      -0.532  14.074  22.268  0.00  0.00    +0.000 C 
ATOM      4  C   UNL     1      -1.717  13.124  22.106  0.00  0.00    +0.000 C 
ATOM      5  N   UNL     1      -2.914  13.906  21.839  0.00  0.00    +0.000 N 
ATOM      6  C   UNL     1      -3.812  13.504  20.873  0.00  0.00    +0.000 A 
ATOM      7  N   UNL     1      -3.478  12.461  20.085  0.00  0.00    +0.000 NA
ATOM      8  C   UNL     1      -4.270  12.079  19.062  0.00  0.00    +0.000 A 
ATOM      9  N   UNL     1      -3.880  11.035  18.194  0.00  0.00    +0.000 N 
ATOM     10  C   UNL     1      -2.641  10.530  18.000  0.00  0.00    +0.000 A 
ATOM     11  C   UNL     1      -1.565  10.603  18.904  0.00  0.00    +0.000 A 
ATOM     12  C   UNL     1      -0.471  10.125  18.231  0.00  0.00    +0.000 A 
ATOM     13  N   UNL     1      -0.956   9.686  17.038  0.00  0.00    +0.000 N 
ATOM     14  N   UNL     1      -2.271   9.913  16.872  0.00  0.00    +0.000 NA
ATOM     15  C   UNL     1      -5.453  12.733  18.856  0.00  0.00    +0.000 A 
ATOM     16  C   UNL     1      -5.731  13.799  19.686  0.00  0.00    +0.000 A 
ATOM     17  N   UNL     1      -4.943  14.204  20.691  0.00  0.00    +0.000 NA
ATOM     18  C   UNL     1      -7.003  14.505  19.253  0.00  0.00    +0.000 C 
ATOM     19  C   UNL     1      -6.681  15.768  18.444  0.00  0.00    +0.000 C 
ATOM     20  C   UNL     1      -7.913  14.844  20.433  0.00  0.00    +0.000 C 
ATOM     21  C   UNL     1      -7.635  13.411  18.354  0.00  0.00    +0.000 C 
ATOM     22  C   UNL     1      -6.475  12.582  17.785  0.00  0.00    +0.000 C 
ATOM     23  C   UNL     1      -3.299  14.848  22.873  0.00  0.00    +0.000 C 
ATOM     24  C   UNL     1      -2.148  15.835  23.090  0.00  0.00    +0.000 C 
ATOM     25  H   UNL     1      -4.486  10.933  17.395  0.00  0.00    +0.000 HD
ATOM     26  H   UNL     1      -0.442   9.251  16.280  0.00  0.00    +0.000 HD
ENDROOT
BRANCH  12  27
ATOM     27  C   UNL     1       0.965  10.110  18.709  0.00  0.00    +0.000 C 
ATOM     28  C   UNL     1       1.656   8.764  18.860  0.00  0.00    +0.000 C 
ATOM     29  C   UNL     1       2.049   9.670  17.745  0.00  0.00    +0.000 C 
ENDBRANCH  12  27
TORSDOF 1
ENDMDL
MODEL 7
REMARK VINA RESULT:      -6.4      8.245     11.755
REMARK  Name = 
REMARK  4 active torsions:
REMARK  status: ('A' for Active; 'I' for Inactive)
REMARK    1  A    between atoms: C_1  and  C_2
REMARK    2  A    between atoms: C_12  and  C_13
REMARK    3  A    between atoms: C_21  and  C_22
REMARK    4  A    between atoms: C_21  and  C_23
REMARK                            x       y       z     vdW  Elec       q    Type
REMARK                         _______ _______ _______ _____ _____    ______ ____
ROOT
ATOM      1  C   UNL     1       3.460  15.674  17.619  0.00  0.00    +0.000 C 
ATOM      2  C   UNL     1       4.420  15.979  18.769  0.00  0.00    +0.000 C 
ATOM      3  C   UNL     1       5.772  15.295  18.526  0.00  0.00    +0.000 C 
ATOM      4  C   UNL     1       6.709  15.486  19.717  0.00  0.00    +0.000 C 
ATOM      5  N   UNL     1       6.045  15.008  20.920  0.00  0.00    +0.000 N 
ATOM      6  C   UNL     1       6.732  14.252  21.846  0.00  0.00    +0.000 A 
ATOM      7  N   UNL     1       7.980  13.843  21.537  0.00  0.00    +0.000 NA
ATOM      8  C   UNL     1       8.668  13.024  22.358  0.00  0.00    +0.000 A 
ATOM      9  N   UNL     1       9.944  12.539  21.996  0.00  0.00    +0.000 N 
ATOM     10  C   UNL     1      10.499  12.489  20.763  0.00  0.00    +0.000 A 
ATOM     11  C   UNL     1      10.145  13.290  19.662  0.00  0.00    +0.000 A 
ATOM     12  C   UNL     1      10.830  12.783  18.589  0.00  0.00    +0.000 A 
ATOM     13  N   UNL     1      11.631  11.814  19.108  0.00  0.00    +0.000 N 
ATOM     14  N   UNL     1      11.457  11.617  20.428  0.00  0.00    +0.000 NA
ATOM     15  C   UNL     1       8.105  12.646  23.546  0.00  0.00    +0.000 A 
ATOM     16  C   UNL     1       6.823  13.086  23.797  0.00  0.00    +0.000 A 
ATOM     17  N   UNL     1       6.118  13.880  22.981  0.00  0.00    +0.000 NA
ATOM     18  C   UNL     1       6.283  12.478  25.080  0.00  0.00    +0.000 C 
ATOM     19  C   UNL     1       5.361  11.290  24.780  0.00  0.00    +0.000 C 
ATOM     20  C   UNL     1       5.565  13.504  25.955  0.00  0.00    +0.000 C 
ATOM     21  C   UNL     1       7.606  12.006  25.740  0.00  0.00    +0.000 C 
ATOM     22  C   UNL     1       8.589  11.711  24.598  0.00  0.00    +0.000 C 
ATOM     23  C   UNL     1       4.811  15.684  21.273  0.00  0.00    +0.000 C 
ATOM     24  C   UNL     1       3.820  15.533  20.115  0.00  0.00    +0.000 C 
ATOM     25  H   UNL     1      10.297  11.833  22.625  0.00  0.00    +0.000 HD
ATOM     26  H   UNL     1      12.297  11.228  18.617  0.00  0.00    +0.000 HD
ENDROOT
BRANCH  12  27
ATOM     27  C   UNL     1      10.703  13.201  17.139  0.00  0.00    +0.000 C 
ATOM     28  C   UNL     1      11.237  14.567  16.738  0.00  0.00    +0.000 C 
ATOM     29  C   UNL     1      11.962  13.339  16.308  0.00  0.00    +0.000 C 
ENDBRANCH  12  27
TORSDOF 1
ENDMDL
MODEL 8
REMARK VINA RESULT:      -6.4      1.587      6.693
REMARK  Name = 
REMARK  4 active torsions:
REMARK  status: ('A' for Active; 'I' for Inactive)
REMARK    1  A    between atoms: C_1  and  C_2
REMARK    2  A    between atoms: C_12  and  C_13
REMARK    3  A    between atoms: C_21  and  C_22
REMARK    4  A    between atoms: C_21  and  C_23
REMARK                            x       y       z     vdW  Elec       q    Type
REMARK                         _______ _______ _______ _____ _____    ______ ____
ROOT
ATOM      1  C   UNL     1      -3.961  16.417  24.756  0.00  0.00    +0.000 C 
ATOM      2  C   UNL     1      -3.744  14.999  24.229  0.00  0.00    +0.000 C 
ATOM      3  C   UNL     1      -2.433  14.922  23.436  0.00  0.00    +0.000 C 
ATOM      4  C   UNL     1      -2.252  13.545  22.801  0.00  0.00    +0.000 C 
ATOM      5  N   UNL     1      -3.420  13.245  21.988  0.00  0.00    +0.000 N 
ATOM      6  C   UNL     1      -3.277  12.676  20.739  0.00  0.00    +0.000 A 
ATOM      7  N   UNL     1      -2.032  12.547  20.235  0.00  0.00    +0.000 NA
ATOM      8  C   UNL     1      -1.832  12.086  18.984  0.00  0.00    +0.000 A 
ATOM      9  N   UNL     1      -0.533  12.022  18.434  0.00  0.00    +0.000 N 
ATOM     10  C   UNL     1       0.580  12.675  18.843  0.00  0.00    +0.000 A 
ATOM     11  C   UNL     1       0.810  13.193  20.130  0.00  0.00    +0.000 A 
ATOM     12  C   UNL     1       1.970  13.917  20.045  0.00  0.00    +0.000 A 
ATOM     13  N   UNL     1       2.429  13.700  18.783  0.00  0.00    +0.000 N 
ATOM     14  N   UNL     1       1.609  12.944  18.032  0.00  0.00    +0.000 NA
ATOM     15  C   UNL     1      -2.910  11.698  18.237  0.00  0.00    +0.000 A 
ATOM     16  C   UNL     1      -4.156  11.866  18.803  0.00  0.00    +0.000 A 
ATOM     17  N   UNL     1      -4.372  12.345  20.035  0.00  0.00    +0.000 NA
ATOM     18  C   UNL     1      -5.253  11.522  17.811  0.00  0.00    +0.000 C 
ATOM     19  C   UNL     1      -5.838  12.790  17.177  0.00  0.00    +0.000 C 
ATOM     20  C   UNL     1      -6.362  10.677  18.437  0.00  0.00    +0.000 C 
ATOM     21  C   UNL     1      -4.441  10.703  16.774  0.00  0.00    +0.000 C 
ATOM     22  C   UNL     1      -2.998  11.226  16.828  0.00  0.00    +0.000 C 
ATOM     23  C   UNL     1      -4.687  13.193  22.692  0.00  0.00    +0.000 C 
ATOM     24  C   UNL     1      -4.932  14.550  23.359  0.00  0.00    +0.000 C 
ATOM     25  H   UNL     1      -0.525  11.791  17.452  0.00  0.00    +0.000 HD
ATOM     26  H   UNL     1       3.277  14.060  18.359  0.00  0.00    +0.000 HD
ENDROOT
BRANCH  12  27
ATOM     27  C   UNL     1       2.591  14.785  21.120  0.00  0.00    +0.000 C 
ATOM     28  C   UNL     1       2.346  16.284  21.059  0.00  0.00    +0.000 C 
ATOM     29  C   UNL     1       1.679  15.474  22.116  0.00  0.00    +0.000 C 
ENDBRANCH  12  27
TORSDOF 1
ENDMDL
MODEL 9
REMARK VINA RESULT:      -6.4      2.133      7.306
REMARK  Name = 
REMARK  4 active torsions:
REMARK  status: ('A' for Active; 'I' for Inactive)
REMARK    1  A    between atoms: C_1  and  C_2
REMARK    2  A    between atoms: C_12  and  C_13
REMARK    3  A    between atoms: C_21  and  C_22
REMARK    4  A    between atoms: C_21  and  C_23
REMARK                            x       y       z     vdW  Elec       q    Type
REMARK                         _______ _______ _______ _____ _____    ______ ____
ROOT
ATOM      1  C   UNL     1      -7.846  14.246  16.668  0.00  0.00    +0.000 C 
ATOM      2  C   UNL     1      -7.208  13.192  17.574  0.00  0.00    +0.000 C 
ATOM      3  C   UNL     1      -6.930  13.784  18.962  0.00  0.00    +0.000 C 
ATOM      4  C   UNL     1      -6.186  12.787  19.848  0.00  0.00    +0.000 C 
ATOM      5  N   UNL     1      -4.973  12.364  19.164  0.00  0.00    +0.000 N 
ATOM      6  C   UNL     1      -3.782  12.257  19.852  0.00  0.00    +0.000 A 
ATOM      7  N   UNL     1      -3.739  12.697  21.126  0.00  0.00    +0.000 NA
ATOM      8  C   UNL     1      -2.583  12.707  21.821  0.00  0.00    +0.000 A 
ATOM      9  N   UNL     1      -2.528  13.237  23.128  0.00  0.00    +0.000 N 
ATOM     10  C   UNL     1      -3.405  14.075  23.728  0.00  0.00    +0.000 A 
ATOM     11  C   UNL     1      -4.756  14.248  23.377  0.00  0.00    +0.000 A 
ATOM     12  C   UNL     1      -5.208  15.307  24.120  0.00  0.00    +0.000 A 
ATOM     13  N   UNL     1      -4.173  15.625  24.945  0.00  0.00    +0.000 N 
ATOM     14  N   UNL     1      -3.067  14.889  24.734  0.00  0.00    +0.000 NA
ATOM     15  C   UNL     1      -1.450  12.215  21.234  0.00  0.00    +0.000 A 
ATOM     16  C   UNL     1      -1.556  11.793  19.926  0.00  0.00    +0.000 A 
ATOM     17  N   UNL     1      -2.692  11.799  19.215  0.00  0.00    +0.000 NA
ATOM     18  C   UNL     1      -0.198  11.404  19.370  0.00  0.00    +0.000 C 
ATOM     19  C   UNL     1       0.387  12.533  18.511  0.00  0.00    +0.000 C 
ATOM     20  C   UNL     1      -0.244  10.098  18.577  0.00  0.00    +0.000 C 
ATOM     21  C   UNL     1       0.601  11.233  20.688  0.00  0.00    +0.000 C 
ATOM     22  C   UNL     1      -0.045  12.165  21.722  0.00  0.00    +0.000 C 
ATOM     23  C   UNL     1      -5.165  11.697  17.890  0.00  0.00    +0.000 C 
ATOM     24  C   UNL     1      -5.912  12.645  16.948  0.00  0.00    +0.000 C 
ATOM     25  H   UNL     1      -1.589  13.312  23.490  0.00  0.00    +0.000 HD
ATOM     26  H   UNL     1      -4.142  16.350  25.652  0.00  0.00    +0.000 HD
ENDROOT
BRANCH  12  27
ATOM     27  C   UNL     1      -6.558  15.985  24.025  0.00  0.00    +0.000 C 
ATOM     28  C   UNL     1      -6.730  17.099  23.004  0.00  0.00    +0.000 C 
ATOM     29  C   UNL     1      -7.388  15.783  22.773  0.00  0.00    +0.000 C 
ENDBRANCH  12  27
TORSDOF 1
ENDMDL
