MODEL 1
REMARK VINA RESULT:      -6.1      0.000      0.000
REMARK  Name = 
REMARK  13 active torsions:
REMARK  status: ('A' for Active; 'I' for Inactive)
REMARK    1  A    between atoms: C_1  and  O_2
REMARK    2  A    between atoms: O_2  and  C_3
REMARK    3  A    between atoms: C_3  and  C_5
REMARK    4  A    between atoms: C_7  and  O_8
REMARK    5  A    between atoms: O_8  and  C_9
REMARK    6  A    between atoms: C_9  and  C_10
REMARK    7  A    between atoms: C_15  and  C_16
REMARK    8  A    between atoms: C_23  and  C_24
REMARK    9  A    between atoms: C_26  and  O_27
REMARK   10  A    between atoms: O_27  and  C_28
REMARK   11  A    between atoms: C_30  and  O_31
REMARK   12  A    between atoms: O_31  and  C_32
REMARK   13  A    between atoms: C_34  and  C_35
REMARK                            x       y       z     vdW  Elec       q    Type
REMARK                         _______ _______ _______ _____ _____    ______ ____
ROOT
ATOM      1  C   UNL     1       0.801  10.802  21.229  0.00  0.00    +0.000 C 
ATOM      2  C   UNL     1       0.778  12.026  20.284  0.00  0.00    +0.000 C 
ATOM      3  C   UNL     1       1.820  11.939  19.168  0.00  0.00    +0.000 C 
ATOM      4  C   UNL     1       1.648  10.592  18.455  0.00  0.00    +0.000 C 
ATOM      5  O   UNL     1       1.482  10.503  17.242  0.00  0.00    +0.000 OA
ATOM      6  C   UNL     1       1.754   9.367  19.379  0.00  0.00    +0.000 C 
ATOM      7  C   UNL     1       0.624   9.431  20.464  0.00  0.00    +0.000 C 
ATOM      8  C   UNL     1      -0.801   9.363  19.868  0.00  0.00    +0.000 C 
ATOM      9  C   UNL     1       0.810   8.239  21.445  0.00  0.00    +0.000 C 
ATOM     10  C   UNL     1       1.013   6.883  20.759  0.00  0.00    +0.000 C 
ATOM     11  C   UNL     1       2.208   6.924  19.800  0.00  0.00    +0.000 C 
ATOM     12  C   UNL     1       2.555   5.562  19.235  0.00  0.00    +0.000 C 
ATOM     13  O   UNL     1       2.096   4.517  19.684  0.00  0.00    +0.000 OA
ATOM     14  O   UNL     1       3.503   5.547  18.271  0.00  0.00    +0.000 OA
ATOM     15  C   UNL     1       3.852   6.677  17.431  0.00  0.00    +0.000 C 
ATOM     16  C   UNL     1       3.401   8.034  17.983  0.00  0.00    +0.000 C 
ATOM     17  C   UNL     1       2.026   7.980  18.689  0.00  0.00    +0.000 C 
ATOM     18  C   UNL     1       0.950   7.544  17.666  0.00  0.00    +0.000 C 
ENDROOT
BRANCH  15  19
ATOM     19  C   UNL     1       5.332   6.656  17.192  0.00  0.00    +0.000 C 
ATOM     20  C   UNL     1       6.299   7.272  17.881  0.00  0.00    +0.000 C 
ATOM     21  C   UNL     1       7.618   6.965  17.287  0.00  0.00    +0.000 C 
ATOM     22  O   UNL     1       7.341   6.245  16.084  0.00  0.00    +0.000 OA
ATOM     23  C   UNL     1       5.950   5.906  16.062  0.00  0.00    +0.000 C 
BRANCH  21  24
ATOM     24  O   UNL     1       8.271   8.192  17.002  0.00  0.00    +0.000 OA
ATOM     25  C   UNL     1       8.237   9.062  18.125  0.00  0.00    +0.000 C 
ENDBRANCH  21  24
BRANCH  23  26
ATOM     26  O   UNL     1       5.761   4.512  16.253  0.00  0.00    +0.000 OA
ATOM     27  C   UNL     1       6.329   3.766  15.180  0.00  0.00    +0.000 C 
ENDBRANCH  23  26
ENDBRANCH  15  19
BRANCH   1  28
ATOM     28  C   UNL     1      -0.166  10.975  22.398  0.00  0.00    +0.000 C 
ATOM     29  O   UNL     1      -0.076  10.341  23.445  0.00  0.00    +0.000 OA
BRANCH  28  31
ATOM     30  C   UNL     1      -2.230  11.877  23.053  0.00  0.00    +0.000 C 
ATOM     31  O   UNL     1      -1.152  11.864  22.115  0.00  0.00    +0.000 OA
ENDBRANCH  28  31
ENDBRANCH   1  28
BRANCH   3  32
ATOM     32  O   UNL     1       1.660  13.030  18.247  0.00  0.00    +0.000 OA
BRANCH  32  33
ATOM     33  C   UNL     1       2.537  14.054  18.392  0.00  0.00    +0.000 C 
ATOM     34  C   UNL     1       1.851  15.334  18.772  0.00  0.00    +0.000 C 
ATOM     35  O   UNL     1       3.749  13.960  18.242  0.00  0.00    +0.000 OA
ENDBRANCH  32  33
ENDBRANCH   3  32
TORSDOF 7
ENDMDL
MODEL 2
REMARK VINA RESULT:      -6.0      6.008      9.112
REMARK  Name = 
REMARK  13 active torsions:
REMARK  status: ('A' for Active; 'I' for Inactive)
REMARK    1  A    between atoms: C_1  and  O_2
REMARK    2  A    between atoms: O_2  and  C_3
REMARK    3  A    between atoms: C_3  and  C_5
REMARK    4  A    between atoms: C_7  and  O_8
REMARK    5  A    between atoms: O_8  and  C_9
REMARK    6  A    between atoms: C_9  and  C_10
REMARK    7  A    between atoms: C_15  and  C_16
REMARK    8  A    between atoms: C_23  and  C_24
REMARK    9  A    between atoms: C_26  and  O_27
REMARK   10  A    between atoms: O_27  and  C_28
REMARK   11  A    between atoms: C_30  and  O_31
REMARK   12  A    between atoms: O_31  and  C_32
REMARK   13  A    between atoms: C_34  and  C_35
REMARK                            x       y       z     vdW  Elec       q    Type
REMARK                         _______ _______ _______ _____ _____    ______ ____
ROOT
ATOM      1  C   UNL     1      -2.979  16.312  22.783  0.00  0.00    +0.000 C 
ATOM      2  C   UNL     1      -4.121  15.682  23.615  0.00  0.00    +0.000 C 
ATOM      3  C   UNL     1      -4.752  14.465  22.938  0.00  0.00    +0.000 C 
ATOM      4  C   UNL     1      -3.630  13.486  22.570  0.00  0.00    +0.000 C 
ATOM      5  O   UNL     1      -3.633  12.311  22.928  0.00  0.00    +0.000 OA
ATOM      6  C   UNL     1      -2.534  14.085  21.673  0.00  0.00    +0.000 C 
ATOM      7  C   UNL     1      -1.842  15.277  22.419  0.00  0.00    +0.000 C 
ATOM      8  C   UNL     1      -1.113  14.849  23.712  0.00  0.00    +0.000 C 
ATOM      9  C   UNL     1      -0.808  15.930  21.457  0.00  0.00    +0.000 C 
ATOM     10  C   UNL     1       0.127  14.932  20.764  0.00  0.00    +0.000 C 
ATOM     11  C   UNL     1      -0.671  13.878  19.988  0.00  0.00    +0.000 C 
ATOM     12  C   UNL     1       0.209  12.980  19.144  0.00  0.00    +0.000 C 
ATOM     13  O   UNL     1       1.388  13.226  18.914  0.00  0.00    +0.000 OA
ATOM     14  O   UNL     1      -0.412  11.936  18.548  0.00  0.00    +0.000 OA
ATOM     15  C   UNL     1      -1.657  11.344  18.998  0.00  0.00    +0.000 C 
ATOM     16  C   UNL     1      -2.480  12.241  19.931  0.00  0.00    +0.000 C 
ATOM     17  C   UNL     1      -1.611  13.068  20.906  0.00  0.00    +0.000 C 
ATOM     18  C   UNL     1      -0.815  12.102  21.817  0.00  0.00    +0.000 C 
ENDROOT
BRANCH  15  19
ATOM     19  C   UNL     1      -2.456  10.939  17.795  0.00  0.00    +0.000 C 
ATOM     20  C   UNL     1      -2.108  10.121  16.797  0.00  0.00    +0.000 C 
ATOM     21  C   UNL     1      -3.216  10.009  15.824  0.00  0.00    +0.000 C 
ATOM     22  O   UNL     1      -4.195  10.962  16.243  0.00  0.00    +0.000 OA
ATOM     23  C   UNL     1      -3.831  11.454  17.538  0.00  0.00    +0.000 C 
BRANCH  21  24
ATOM     24  O   UNL     1      -2.711  10.337  14.539  0.00  0.00    +0.000 OA
ATOM     25  C   UNL     1      -3.641   9.993  13.521  0.00  0.00    +0.000 C 
ENDBRANCH  21  24
BRANCH  23  26
ATOM     26  O   UNL     1      -4.717  10.971  18.536  0.00  0.00    +0.000 OA
ATOM     27  C   UNL     1      -6.073  11.074  18.110  0.00  0.00    +0.000 C 
ENDBRANCH  23  26
ENDBRANCH  15  19
BRANCH   1  28
ATOM     28  C   UNL     1      -2.453  17.592  23.428  0.00  0.00    +0.000 C 
ATOM     29  O   UNL     1      -2.139  18.589  22.785  0.00  0.00    +0.000 OA
BRANCH  28  31
ATOM     30  C   UNL     1      -2.784  18.599  25.520  0.00  0.00    +0.000 C 
ATOM     31  O   UNL     1      -2.328  17.469  24.774  0.00  0.00    +0.000 OA
ENDBRANCH  28  31
ENDBRANCH   1  28
BRANCH   3  32
ATOM     32  O   UNL     1      -5.707  13.843  23.814  0.00  0.00    +0.000 OA
BRANCH  32  33
ATOM     33  C   UNL     1      -7.007  13.979  23.455  0.00  0.00    +0.000 C 
ATOM     34  C   UNL     1      -7.215  13.727  21.989  0.00  0.00    +0.000 C 
ATOM     35  O   UNL     1      -7.916  14.267  24.222  0.00  0.00    +0.000 OA
ENDBRANCH  32  33
ENDBRANCH   3  32
TORSDOF 7
ENDMDL
MODEL 3
REMARK VINA RESULT:      -5.9      3.476      7.587
REMARK  Name = 
REMARK  13 active torsions:
REMARK  status: ('A' for Active; 'I' for Inactive)
REMARK    1  A    between atoms: C_1  and  O_2
REMARK    2  A    between atoms: O_2  and  C_3
REMARK    3  A    between atoms: C_3  and  C_5
REMARK    4  A    between atoms: C_7  and  O_8
REMARK    5  A    between atoms: O_8  and  C_9
REMARK    6  A    between atoms: C_9  and  C_10
REMARK    7  A    between atoms: C_15  and  C_16
REMARK    8  A    between atoms: C_23  and  C_24
REMARK    9  A    between atoms: C_26  and  O_27
REMARK   10  A    between atoms: O_27  and  C_28
REMARK   11  A    between atoms: C_30  and  O_31
REMARK   12  A    between atoms: O_31  and  C_32
REMARK   13  A    between atoms: C_34  and  C_35
REMARK                            x       y       z     vdW  Elec       q    Type
REMARK                         _______ _______ _______ _____ _____    ______ ____
ROOT
ATOM      1  C   UNL     1      -0.985  11.504  18.403  0.00  0.00    +0.000 C 
ATOM      2  C   UNL     1      -0.630  10.220  19.189  0.00  0.00    +0.000 C 
ATOM      3  C   UNL     1       0.847  10.145  19.575  0.00  0.00    +0.000 C 
ATOM      4  C   UNL     1       1.221  11.445  20.297  0.00  0.00    +0.000 C 
ATOM      5  O   UNL     1       1.735  11.458  21.412  0.00  0.00    +0.000 OA
ATOM      6  C   UNL     1       0.948  12.722  19.485  0.00  0.00    +0.000 C 
ATOM      7  C   UNL     1      -0.584  12.825  19.172  0.00  0.00    +0.000 C 
ATOM      8  C   UNL     1      -1.459  12.960  20.439  0.00  0.00    +0.000 C 
ATOM      9  C   UNL     1      -0.823  14.067  18.268  0.00  0.00    +0.000 C 
ATOM     10  C   UNL     1      -0.147  15.350  18.766  0.00  0.00    +0.000 C 
ATOM     11  C   UNL     1       1.363  15.147  18.936  0.00  0.00    +0.000 C 
ATOM     12  C   UNL     1       2.096  16.433  19.255  0.00  0.00    +0.000 C 
ATOM     13  O   UNL     1       1.581  17.540  19.142  0.00  0.00    +0.000 OA
ATOM     14  O   UNL     1       3.407  16.304  19.562  0.00  0.00    +0.000 OA
ATOM     15  C   UNL     1       4.028  15.092  20.062  0.00  0.00    +0.000 C 
ATOM     16  C   UNL     1       3.214  13.818  19.810  0.00  0.00    +0.000 C 
ATOM     17  C   UNL     1       1.688  14.030  19.950  0.00  0.00    +0.000 C 
ATOM     18  C   UNL     1       1.371  14.473  21.399  0.00  0.00    +0.000 C 
ENDROOT
BRANCH  15  19
ATOM     19  C   UNL     1       5.402  14.981  19.471  0.00  0.00    +0.000 C 
ATOM     20  C   UNL     1       5.750  14.759  18.200  0.00  0.00    +0.000 C 
ATOM     21  C   UNL     1       7.223  14.731  18.076  0.00  0.00    +0.000 C 
ATOM     22  O   UNL     1       7.724  14.791  19.413  0.00  0.00    +0.000 OA
ATOM     23  C   UNL     1       6.638  15.093  20.296  0.00  0.00    +0.000 C 
BRANCH  21  24
ATOM     24  O   UNL     1       7.592  13.510  17.453  0.00  0.00    +0.000 OA
ATOM     25  C   UNL     1       8.876  13.082  17.887  0.00  0.00    +0.000 C 
ENDBRANCH  21  24
BRANCH  23  26
ATOM     26  O   UNL     1       6.751  16.410  20.812  0.00  0.00    +0.000 OA
ATOM     27  C   UNL     1       8.098  16.707  21.173  0.00  0.00    +0.000 C 
ENDBRANCH  23  26
ENDBRANCH  15  19
BRANCH   1  28
ATOM     28  C   UNL     1      -2.436  11.492  17.930  0.00  0.00    +0.000 C 
ATOM     29  O   UNL     1      -3.394  11.474  18.698  0.00  0.00    +0.000 OA
BRANCH  28  31
ATOM     30  C   UNL     1      -3.212  10.308  16.060  0.00  0.00    +0.000 C 
ATOM     31  O   UNL     1      -2.530  11.452  16.577  0.00  0.00    +0.000 OA
ENDBRANCH  28  31
ENDBRANCH   1  28
BRANCH   3  32
ATOM     32  O   UNL     1       1.087   9.005  20.417  0.00  0.00    +0.000 OA
BRANCH  32  33
ATOM     33  C   UNL     1       1.764   7.982  19.839  0.00  0.00    +0.000 C 
ATOM     34  C   UNL     1       1.665   6.716  20.641  0.00  0.00    +0.000 C 
ATOM     35  O   UNL     1       2.382   8.062  18.785  0.00  0.00    +0.000 OA
ENDBRANCH  32  33
ENDBRANCH   3  32
TORSDOF 7
ENDMDL
MODEL 4
REMARK VINA RESULT:      -5.8      3.072      6.442
REMARK  Name = 
REMARK  13 active torsions:
REMARK  status: ('A' for Active; 'I' for Inactive)
REMARK    1  A    between atoms: C_1  and  O_2
REMARK    2  A    between atoms: O_2  and  C_3
REMARK    3  A    between atoms: C_3  and  C_5
REMARK    4  A    between atoms: C_7  and  O_8
REMARK    5  A    between atoms: O_8  and  C_9
REMARK    6  A    between atoms: C_9  and  C_10
REMARK    7  A    between atoms: C_15  and  C_16
REMARK    8  A    between atoms: C_23  and  C_24
REMARK    9  A    between atoms: C_26  and  O_27
REMARK   10  A    between atoms: O_27  and  C_28
REMARK   11  A    between atoms: C_30  and  O_31
REMARK   12  A    between atoms: O_31  and  C_32
REMARK   13  A    between atoms: C_34  and  C_35
REMARK                            x       y       z     vdW  Elec       q    Type
REMARK                         _______ _______ _______ _____ _____    ______ ____
ROOT
ATOM      1  C   UNL     1      -4.031  13.081  22.494  0.00  0.00    +0.000 C 
ATOM      2  C   UNL     1      -3.083  13.833  23.458  0.00  0.00    +0.000 C 
ATOM      3  C   UNL     1      -1.649  13.303  23.418  0.00  0.00    +0.000 C 
ATOM      4  C   UNL     1      -1.181  13.294  21.958  0.00  0.00    +0.000 C 
ATOM      5  O   UNL     1      -0.154  13.858  21.589  0.00  0.00    +0.000 OA
ATOM      6  C   UNL     1      -2.076  12.478  21.010  0.00  0.00    +0.000 C 
ATOM      7  C   UNL     1      -3.520  13.088  20.999  0.00  0.00    +0.000 C 
ATOM      8  C   UNL     1      -3.570  14.532  20.453  0.00  0.00    +0.000 C 
ATOM      9  C   UNL     1      -4.431  12.190  20.115  0.00  0.00    +0.000 C 
ATOM     10  C   UNL     1      -3.834  11.840  18.747  0.00  0.00    +0.000 C 
ATOM     11  C   UNL     1      -2.469  11.159  18.899  0.00  0.00    +0.000 C 
ATOM     12  C   UNL     1      -1.924  10.637  17.585  0.00  0.00    +0.000 C 
ATOM     13  O   UNL     1      -2.605  10.545  16.570  0.00  0.00    +0.000 OA
ATOM     14  O   UNL     1      -0.660  10.157  17.620  0.00  0.00    +0.000 OA
ATOM     15  C   UNL     1       0.338  10.515  18.611  0.00  0.00    +0.000 C 
ATOM     16  C   UNL     1      -0.239  11.132  19.890  0.00  0.00    +0.000 C 
ATOM     17  C   UNL     1      -1.449  12.059  19.630  0.00  0.00    +0.000 C 
ATOM     18  C   UNL     1      -0.998  13.241  18.738  0.00  0.00    +0.000 C 
ENDROOT
BRANCH  15  19
ATOM     19  C   UNL     1       1.161   9.301  18.921  0.00  0.00    +0.000 C 
ATOM     20  C   UNL     1       2.010   8.641  18.127  0.00  0.00    +0.000 C 
ATOM     21  C   UNL     1       2.605   7.501  18.857  0.00  0.00    +0.000 C 
ATOM     22  O   UNL     1       1.911   7.439  20.105  0.00  0.00    +0.000 OA
ATOM     23  C   UNL     1       1.114   8.620  20.246  0.00  0.00    +0.000 C 
BRANCH  21  24
ATOM     24  O   UNL     1       2.381   6.323  18.097  0.00  0.00    +0.000 OA
ATOM     25  C   UNL     1       3.610   5.705  17.740  0.00  0.00    +0.000 C 
ENDBRANCH  21  24
BRANCH  23  26
ATOM     26  O   UNL     1       1.644   9.478  21.244  0.00  0.00    +0.000 OA
ATOM     27  C   UNL     1       1.092   9.179  22.524  0.00  0.00    +0.000 C 
ENDBRANCH  23  26
ENDBRANCH  15  19
BRANCH   1  28
ATOM     28  C   UNL     1      -5.476  13.551  22.645  0.00  0.00    +0.000 C 
ATOM     29  O   UNL     1      -5.803  14.734  22.627  0.00  0.00    +0.000 OA
BRANCH  28  31
ATOM     30  C   UNL     1      -7.379  12.784  23.782  0.00  0.00    +0.000 C 
ATOM     31  O   UNL     1      -6.329  12.516  22.850  0.00  0.00    +0.000 OA
ENDBRANCH  28  31
ENDBRANCH   1  28
BRANCH   3  32
ATOM     32  O   UNL     1      -0.790  14.125  24.226  0.00  0.00    +0.000 OA
BRANCH  32  33
ATOM     33  C   UNL     1      -1.377  15.210  24.789  0.00  0.00    +0.000 C 
ATOM     34  C   UNL     1      -1.211  16.441  23.946  0.00  0.00    +0.000 C 
ATOM     35  O   UNL     1      -1.980  15.202  25.855  0.00  0.00    +0.000 OA
ENDBRANCH  32  33
ENDBRANCH   3  32
TORSDOF 7
ENDMDL
MODEL 5
REMARK VINA RESULT:      -5.8      4.579      8.978
REMARK  Name = 
REMARK  13 active torsions:
REMARK  status: ('A' for Active; 'I' for Inactive)
REMARK    1  A    between atoms: C_1  and  O_2
REMARK    2  A    between atoms: O_2  and  C_3
REMARK    3  A    between atoms: C_3  and  C_5
REMARK    4  A    between atoms: C_7  and  O_8
REMARK    5  A    between atoms: O_8  and  C_9
REMARK    6  A    between atoms: C_9  and  C_10
REMARK    7  A    between atoms: C_15  and  C_16
REMARK    8  A    between atoms: C_23  and  C_24
REMARK    9  A    between atoms: C_26  and  O_27
REMARK   10  A    between atoms: O_27  and  C_28
REMARK   11  A    between atoms: C_30  and  O_31
REMARK   12  A    between atoms: O_31  and  C_32
REMARK   13  A    between atoms: C_34  and  C_35
REMARK                            x       y       z     vdW  Elec       q    Type
REMARK                         _______ _______ _______ _____ _____    ______ ____
ROOT
ATOM      1  C   UNL     1      -5.719  15.459  20.150  0.00  0.00    +0.000 C 
ATOM      2  C   UNL     1      -6.888  14.473  20.382  0.00  0.00    +0.000 C 
ATOM      3  C   UNL     1      -6.427  13.023  20.522  0.00  0.00    +0.000 C 
ATOM      4  C   UNL     1      -5.336  12.968  21.598  0.00  0.00    +0.000 C 
ATOM      5  O   UNL     1      -5.403  12.221  22.571  0.00  0.00    +0.000 OA
ATOM      6  C   UNL     1      -4.131  13.885  21.329  0.00  0.00    +0.000 C 
ATOM      7  C   UNL     1      -4.612  15.376  21.274  0.00  0.00    +0.000 C 
ATOM      8  C   UNL     1      -5.207  15.877  22.609  0.00  0.00    +0.000 C 
ATOM      9  C   UNL     1      -3.399  16.275  20.902  0.00  0.00    +0.000 C 
ATOM     10  C   UNL     1      -2.135  16.002  21.726  0.00  0.00    +0.000 C 
ATOM     11  C   UNL     1      -1.713  14.532  21.616  0.00  0.00    +0.000 C 
ATOM     12  C   UNL     1      -0.374  14.256  22.268  0.00  0.00    +0.000 C 
ATOM     13  O   UNL     1       0.394  15.146  22.618  0.00  0.00    +0.000 OA
ATOM     14  O   UNL     1      -0.008  12.956  22.337  0.00  0.00    +0.000 OA
ATOM     15  C   UNL     1      -0.924  11.832  22.295  0.00  0.00    +0.000 C 
ATOM     16  C   UNL     1      -2.306  12.167  21.720  0.00  0.00    +0.000 C 
ATOM     17  C   UNL     1      -2.810  13.572  22.123  0.00  0.00    +0.000 C 
ATOM     18  C   UNL     1      -2.949  13.637  23.663  0.00  0.00    +0.000 C 
ENDROOT
BRANCH  15  19
ATOM     19  C   UNL     1      -0.278  10.716  21.530  0.00  0.00    +0.000 C 
ATOM     20  C   UNL     1      -0.248   9.411  21.819  0.00  0.00    +0.000 C 
ATOM     21  C   UNL     1       0.503   8.679  20.777  0.00  0.00    +0.000 C 
ATOM     22  O   UNL     1       1.061   9.682  19.926  0.00  0.00    +0.000 OA
ATOM     23  C   UNL     1       0.483  10.947  20.269  0.00  0.00    +0.000 C 
BRANCH  21  24
ATOM     24  O   UNL     1       1.528   7.931  21.414  0.00  0.00    +0.000 OA
ATOM     25  C   UNL     1       1.843   6.761  20.671  0.00  0.00    +0.000 C 
ENDBRANCH  21  24
BRANCH  23  26
ATOM     26  O   UNL     1      -0.399  11.398  19.253  0.00  0.00    +0.000 OA
ATOM     27  C   UNL     1      -0.522  10.431  18.214  0.00  0.00    +0.000 C 
ENDBRANCH  23  26
ENDBRANCH  15  19
BRANCH   1  28
ATOM     28  C   UNL     1      -6.222  16.879  19.895  0.00  0.00    +0.000 C 
ATOM     29  O   UNL     1      -7.036  17.444  20.619  0.00  0.00    +0.000 OA
BRANCH  28  31
ATOM     30  C   UNL     1      -6.307  18.630  18.338  0.00  0.00    +0.000 C 
ATOM     31  O   UNL     1      -5.703  17.405  18.757  0.00  0.00    +0.000 OA
ENDBRANCH  28  31
ENDBRANCH   1  28
BRANCH   3  32
ATOM     32  O   UNL     1      -7.535  12.176  20.872  0.00  0.00    +0.000 OA
BRANCH  32  33
ATOM     33  C   UNL     1      -7.424  10.879  20.492  0.00  0.00    +0.000 C 
ATOM     34  C   UNL     1      -6.956  10.747  19.071  0.00  0.00    +0.000 C 
ATOM     35  O   UNL     1      -7.666   9.918  21.211  0.00  0.00    +0.000 OA
ENDBRANCH  32  33
ENDBRANCH   3  32
TORSDOF 7
ENDMDL
MODEL 6
REMARK VINA RESULT:      -5.8      7.061      9.325
REMARK  Name = 
REMARK  13 active torsions:
REMARK  status: ('A' for Active; 'I' for Inactive)
REMARK    1  A    between atoms: C_1  and  O_2
REMARK    2  A    between atoms: O_2  and  C_3
REMARK    3  A    between atoms: C_3  and  C_5
REMARK    4  A    between atoms: C_7  and  O_8
REMARK    5  A    between atoms: O_8  and  C_9
REMARK    6  A    between atoms: C_9  and  C_10
REMARK    7  A    between atoms: C_15  and  C_16
REMARK    8  A    between atoms: C_23  and  C_24
REMARK    9  A    between atoms: C_26  and  O_27
REMARK   10  A    between atoms: O_27  and  C_28
REMARK   11  A    between atoms: C_30  and  O_31
REMARK   12  A    between atoms: O_31  and  C_32
REMARK   13  A    between atoms: C_34  and  C_35
REMARK                            x       y       z     vdW  Elec       q    Type
REMARK                         _______ _______ _______ _____ _____    ______ ____
ROOT
ATOM      1  C   UNL     1      -4.580  13.576  22.470  0.00  0.00    +0.000 C 
ATOM      2  C   UNL     1      -4.959  12.645  21.295  0.00  0.00    +0.000 C 
ATOM      3  C   UNL     1      -4.200  12.970  20.008  0.00  0.00    +0.000 C 
ATOM      4  C   UNL     1      -2.701  12.997  20.328  0.00  0.00    +0.000 C 
ATOM      5  O   UNL     1      -1.881  12.318  19.716  0.00  0.00    +0.000 OA
ATOM      6  C   UNL     1      -2.308  13.984  21.440  0.00  0.00    +0.000 C 
ATOM      7  C   UNL     1      -3.029  13.584  22.773  0.00  0.00    +0.000 C 
ATOM      8  C   UNL     1      -2.609  12.195  23.303  0.00  0.00    +0.000 C 
ATOM      9  C   UNL     1      -2.697  14.651  23.855  0.00  0.00    +0.000 C 
ATOM     10  C   UNL     1      -1.207  14.992  23.969  0.00  0.00    +0.000 C 
ATOM     11  C   UNL     1      -0.646  15.464  22.622  0.00  0.00    +0.000 C 
ATOM     12  C   UNL     1       0.774  15.981  22.727  0.00  0.00    +0.000 C 
ATOM     13  O   UNL     1       1.318  16.225  23.798  0.00  0.00    +0.000 OA
ATOM     14  O   UNL     1       1.382  16.276  21.555  0.00  0.00    +0.000 OA
ATOM     15  C   UNL     1       1.013  15.726  20.265  0.00  0.00    +0.000 C 
ATOM     16  C   UNL     1      -0.396  15.122  20.219  0.00  0.00    +0.000 C 
ATOM     17  C   UNL     1      -0.791  14.390  21.523  0.00  0.00    +0.000 C 
ATOM     18  C   UNL     1       0.184  13.211  21.755  0.00  0.00    +0.000 C 
ENDROOT
BRANCH  15  19
ATOM     19  C   UNL     1       1.177  16.792  19.225  0.00  0.00    +0.000 C 
ATOM     20  C   UNL     1       0.326  17.765  18.883  0.00  0.00    +0.000 C 
ATOM     21  C   UNL     1       0.910  18.593  17.806  0.00  0.00    +0.000 C 
ATOM     22  O   UNL     1       2.115  17.929  17.420  0.00  0.00    +0.000 OA
ATOM     23  C   UNL     1       2.393  16.894  18.369  0.00  0.00    +0.000 C 
BRANCH  21  24
ATOM     24  O   UNL     1      -0.013  18.631  16.728  0.00  0.00    +0.000 OA
ATOM     25  C   UNL     1       0.629  18.334  15.495  0.00  0.00    +0.000 C 
ENDBRANCH  21  24
BRANCH  23  26
ATOM     26  O   UNL     1       3.517  17.225  19.171  0.00  0.00    +0.000 OA
ATOM     27  C   UNL     1       4.501  16.196  19.124  0.00  0.00    +0.000 C 
ENDBRANCH  23  26
ENDBRANCH  15  19
BRANCH   1  28
ATOM     28  C   UNL     1      -5.438  13.305  23.704  0.00  0.00    +0.000 C 
ATOM     29  O   UNL     1      -5.423  12.239  24.313  0.00  0.00    +0.000 OA
BRANCH  28  31
ATOM     30  C   UNL     1      -7.621  14.163  23.668  0.00  0.00    +0.000 C 
ATOM     31  O   UNL     1      -6.245  14.355  24.003  0.00  0.00    +0.000 OA
ENDBRANCH  28  31
ENDBRANCH   1  28
BRANCH   3  32
ATOM     32  O   UNL     1      -4.490  11.990  18.996  0.00  0.00    +0.000 OA
BRANCH  32  33
ATOM     33  C   UNL     1      -5.703  12.104  18.401  0.00  0.00    +0.000 C 
ATOM     34  C   UNL     1      -6.396  10.778  18.278  0.00  0.00    +0.000 C 
ATOM     35  O   UNL     1      -6.192  13.156  18.010  0.00  0.00    +0.000 OA
ENDBRANCH  32  33
ENDBRANCH   3  32
TORSDOF 7
ENDMDL
MODEL 7
REMARK VINA RESULT:      -5.8      3.477      7.680
REMARK  Name = 
REMARK  13 active torsions:
REMARK  status: ('A' for Active; 'I' for Inactive)
REMARK    1  A    between atoms: C_1  and  O_2
REMARK    2  A    between atoms: O_2  and  C_3
REMARK    3  A    between atoms: C_3  and  C_5
REMARK    4  A    between atoms: C_7  and  O_8
REMARK    5  A    between atoms: O_8  and  C_9
REMARK    6  A    between atoms: C_9  and  C_10
REMARK    7  A    between atoms: C_15  and  C_16
REMARK    8  A    between atoms: C_23  and  C_24
REMARK    9  A    between atoms: C_26  and  O_27
REMARK   10  A    between atoms: O_27  and  C_28
REMARK   11  A    between atoms: C_30  and  O_31
REMARK   12  A    between atoms: O_31  and  C_32
REMARK   13  A    between atoms: C_34  and  C_35
REMARK                            x       y       z     vdW  Elec       q    Type
REMARK                         _______ _______ _______ _____ _____    ______ ____
ROOT
ATOM      1  C   UNL     1      -0.811  10.883  18.301  0.00  0.00    +0.000 C 
ATOM      2  C   UNL     1      -0.451   9.603  19.091  0.00  0.00    +0.000 C 
ATOM      3  C   UNL     1       0.938   9.665  19.727  0.00  0.00    +0.000 C 
ATOM      4  C   UNL     1       1.032  10.956  20.548  0.00  0.00    +0.000 C 
ATOM      5  O   UNL     1       1.344  10.964  21.736  0.00  0.00    +0.000 OA
ATOM      6  C   UNL     1       0.757  12.240  19.746  0.00  0.00    +0.000 C 
ATOM      7  C   UNL     1      -0.701  12.195  19.173  0.00  0.00    +0.000 C 
ATOM      8  C   UNL     1      -1.789  12.167  20.271  0.00  0.00    +0.000 C 
ATOM      9  C   UNL     1      -0.923  13.452  18.285  0.00  0.00    +0.000 C 
ATOM     10  C   UNL     1      -0.493  14.771  18.939  0.00  0.00    +0.000 C 
ATOM     11  C   UNL     1       0.979  14.720  19.363  0.00  0.00    +0.000 C 
ATOM     12  C   UNL     1       1.496  16.059  19.850  0.00  0.00    +0.000 C 
ATOM     13  O   UNL     1       0.884  17.109  19.688  0.00  0.00    +0.000 OA
ATOM     14  O   UNL     1       2.741  16.054  20.378  0.00  0.00    +0.000 OA
ATOM     15  C   UNL     1       3.403  14.890  20.936  0.00  0.00    +0.000 C 
ATOM     16  C   UNL     1       2.794  13.551  20.501  0.00  0.00    +0.000 C 
ATOM     17  C   UNL     1       1.253  13.591  20.379  0.00  0.00    +0.000 C 
ATOM     18  C   UNL     1       0.646  13.919  21.764  0.00  0.00    +0.000 C 
ENDROOT
BRANCH  15  19
ATOM     19  C   UNL     1       4.860  14.957  20.592  0.00  0.00    +0.000 C 
ATOM     20  C   UNL     1       5.430  15.252  19.419  0.00  0.00    +0.000 C 
ATOM     21  C   UNL     1       6.902  15.202  19.545  0.00  0.00    +0.000 C 
ATOM     22  O   UNL     1       7.161  14.689  20.853  0.00  0.00    +0.000 OA
ATOM     23  C   UNL     1       5.931  14.663  21.586  0.00  0.00    +0.000 C 
BRANCH  21  24
ATOM     24  O   UNL     1       7.402  14.321  18.550  0.00  0.00    +0.000 OA
ATOM     25  C   UNL     1       8.591  13.678  18.987  0.00  0.00    +0.000 C 
ENDBRANCH  21  24
BRANCH  23  26
ATOM     26  O   UNL     1       5.922  15.650  22.606  0.00  0.00    +0.000 OA
ATOM     27  C   UNL     1       6.565  15.176  23.785  0.00  0.00    +0.000 C 
ENDBRANCH  23  26
ENDBRANCH  15  19
BRANCH   1  28
ATOM     28  C   UNL     1      -2.150  10.742  17.580  0.00  0.00    +0.000 C 
ATOM     29  O   UNL     1      -3.101  10.121  18.044  0.00  0.00    +0.000 OA
BRANCH  28  31
ATOM     30  C   UNL     1      -2.887  10.652  15.356  0.00  0.00    +0.000 C 
ATOM     31  O   UNL     1      -2.136  11.336  16.360  0.00  0.00    +0.000 OA
ENDBRANCH  28  31
ENDBRANCH   1  28
BRANCH   3  32
ATOM     32  O   UNL     1       1.159   8.513  20.558  0.00  0.00    +0.000 OA
BRANCH  32  33
ATOM     33  C   UNL     1       1.862   7.504  19.986  0.00  0.00    +0.000 C 
ATOM     34  C   UNL     1       1.690   6.208  20.724  0.00  0.00    +0.000 C 
ATOM     35  O   UNL     1       2.554   7.618  18.982  0.00  0.00    +0.000 OA
ENDBRANCH  32  33
ENDBRANCH   3  32
TORSDOF 7
ENDMDL
MODEL 8
REMARK VINA RESULT:      -5.7      3.497      7.566
REMARK  Name = 
REMARK  13 active torsions:
REMARK  status: ('A' for Active; 'I' for Inactive)
REMARK    1  A    between atoms: C_1  and  O_2
REMARK    2  A    between atoms: O_2  and  C_3
REMARK    3  A    between atoms: C_3  and  C_5
REMARK    4  A    between atoms: C_7  and  O_8
REMARK    5  A    between atoms: O_8  and  C_9
REMARK    6  A    between atoms: C_9  and  C_10
REMARK    7  A    between atoms: C_15  and  C_16
REMARK    8  A    between atoms: C_23  and  C_24
REMARK    9  A    between atoms: C_26  and  O_27
REMARK   10  A    between atoms: O_27  and  C_28
REMARK   11  A    between atoms: C_30  and  O_31
REMARK   12  A    between atoms: O_31  and  C_32
REMARK   13  A    between atoms: C_34  and  C_35
REMARK                            x       y       z     vdW  Elec       q    Type
REMARK                         _______ _______ _______ _____ _____    ______ ____
ROOT
ATOM      1  C   UNL     1      -0.743  10.951  18.272  0.00  0.00    +0.000 C 
ATOM      2  C   UNL     1      -0.525   9.669  19.110  0.00  0.00    +0.000 C 
ATOM      3  C   UNL     1       0.793   9.680  19.884  0.00  0.00    +0.000 C 
ATOM      4  C   UNL     1       0.862  10.979  20.696  0.00  0.00    +0.000 C 
ATOM      5  O   UNL     1       1.050  10.991  21.910  0.00  0.00    +0.000 OA
ATOM      6  C   UNL     1       0.729  12.260  19.856  0.00  0.00    +0.000 C 
ATOM      7  C   UNL     1      -0.664  12.271  19.136  0.00  0.00    +0.000 C 
ATOM      8  C   UNL     1      -1.858  12.308  20.116  0.00  0.00    +0.000 C 
ATOM      9  C   UNL     1      -0.736  13.522  18.216  0.00  0.00    +0.000 C 
ATOM     10  C   UNL     1      -0.316  14.831  18.896  0.00  0.00    +0.000 C 
ATOM     11  C   UNL     1       1.102  14.722  19.470  0.00  0.00    +0.000 C 
ATOM     12  C   UNL     1       1.626  16.044  19.993  0.00  0.00    +0.000 C 
ATOM     13  O   UNL     1       1.083  17.117  19.756  0.00  0.00    +0.000 OA
ATOM     14  O   UNL     1       2.809  15.992  20.646  0.00  0.00    +0.000 OA
ATOM     15  C   UNL     1       3.357  14.809  21.282  0.00  0.00    +0.000 C 
ATOM     16  C   UNL     1       2.735  13.492  20.802  0.00  0.00    +0.000 C 
ATOM     17  C   UNL     1       1.218  13.598  20.522  0.00  0.00    +0.000 C 
ATOM     18  C   UNL     1       0.488  13.974  21.833  0.00  0.00    +0.000 C 
ENDROOT
BRANCH  15  19
ATOM     19  C   UNL     1       4.843  14.807  21.090  0.00  0.00    +0.000 C 
ATOM     20  C   UNL     1       5.793  14.355  21.915  0.00  0.00    +0.000 C 
ATOM     21  C   UNL     1       7.127  14.554  21.309  0.00  0.00    +0.000 C 
ATOM     22  O   UNL     1       6.901  15.315  20.122  0.00  0.00    +0.000 OA
ATOM     23  C   UNL     1       5.493  15.368  19.871  0.00  0.00    +0.000 C 
BRANCH  21  24
ATOM     24  O   UNL     1       7.927  15.280  22.230  0.00  0.00    +0.000 OA
ATOM     25  C   UNL     1       9.307  15.000  22.040  0.00  0.00    +0.000 C 
ENDBRANCH  21  24
BRANCH  23  26
ATOM     26  O   UNL     1       5.145  14.584  18.740  0.00  0.00    +0.000 OA
ATOM     27  C   UNL     1       4.539  15.384  17.728  0.00  0.00    +0.000 C 
ENDBRANCH  23  26
ENDBRANCH  15  19
BRANCH   1  28
ATOM     28  C   UNL     1      -2.006  10.858  17.419  0.00  0.00    +0.000 C 
ATOM     29  O   UNL     1      -2.161  11.487  16.376  0.00  0.00    +0.000 OA
BRANCH  28  31
ATOM     30  C   UNL     1      -4.280  10.536  17.897  0.00  0.00    +0.000 C 
ATOM     31  O   UNL     1      -2.940  10.047  17.979  0.00  0.00    +0.000 OA
ENDBRANCH  28  31
ENDBRANCH   1  28
BRANCH   3  32
ATOM     32  O   UNL     1       0.876   8.532  20.747  0.00  0.00    +0.000 OA
BRANCH  32  33
ATOM     33  C   UNL     1       1.601   7.491  20.268  0.00  0.00    +0.000 C 
ATOM     34  C   UNL     1       2.303   7.837  18.986  0.00  0.00    +0.000 C 
ATOM     35  O   UNL     1       1.689   6.396  20.808  0.00  0.00    +0.000 OA
ENDBRANCH  32  33
ENDBRANCH   3  32
TORSDOF 7
ENDMDL
MODEL 9
REMARK VINA RESULT:      -5.7      4.503      8.137
REMARK  Name = 
REMARK  13 active torsions:
REMARK  status: ('A' for Active; 'I' for Inactive)
REMARK    1  A    between atoms: C_1  and  O_2
REMARK    2  A    between atoms: O_2  and  C_3
REMARK    3  A    between atoms: C_3  and  C_5
REMARK    4  A    between atoms: C_7  and  O_8
REMARK    5  A    between atoms: O_8  and  C_9
REMARK    6  A    between atoms: C_9  and  C_10
REMARK    7  A    between atoms: C_15  and  C_16
REMARK    8  A    between atoms: C_23  and  C_24
REMARK    9  A    between atoms: C_26  and  O_27
REMARK   10  A    between atoms: O_27  and  C_28
REMARK   11  A    between atoms: C_30  and  O_31
REMARK   12  A    between atoms: O_31  and  C_32
REMARK   13  A    between atoms: C_34  and  C_35
REMARK                            x       y       z     vdW  Elec       q    Type
REMARK                         _______ _______ _______ _____ _____    ______ ____
ROOT
ATOM      1  C   UNL     1       2.051  16.042  19.325  0.00  0.00    +0.000 C 
ATOM      2  C   UNL     1       1.045  16.908  20.120  0.00  0.00    +0.000 C 
ATOM      3  C   UNL     1      -0.404  16.456  19.939  0.00  0.00    +0.000 C 
ATOM      4  C   UNL     1      -0.482  14.957  20.252  0.00  0.00    +0.000 C 
ATOM      5  O   UNL     1      -1.262  14.494  21.081  0.00  0.00    +0.000 OA
ATOM      6  C   UNL     1       0.456  14.082  19.405  0.00  0.00    +0.000 C 
ATOM      7  C   UNL     1       1.943  14.504  19.668  0.00  0.00    +0.000 C 
ATOM      8  C   UNL     1       2.393  14.277  21.129  0.00  0.00    +0.000 C 
ATOM      9  C   UNL     1       2.866  13.677  18.729  0.00  0.00    +0.000 C 
ATOM     10  C   UNL     1       2.580  12.170  18.730  0.00  0.00    +0.000 C 
ATOM     11  C   UNL     1       1.120  11.887  18.359  0.00  0.00    +0.000 C 
ATOM     12  C   UNL     1       0.837  10.411  18.174  0.00  0.00    +0.000 C 
ATOM     13  O   UNL     1       1.723   9.568  18.083  0.00  0.00    +0.000 OA
ATOM     14  O   UNL     1      -0.461  10.077  17.991  0.00  0.00    +0.000 OA
ATOM     15  C   UNL     1      -1.593  10.880  18.414  0.00  0.00    +0.000 C 
ATOM     16  C   UNL     1      -1.254  12.350  18.689  0.00  0.00    +0.000 C 
ATOM     17  C   UNL     1       0.132  12.544  19.347  0.00  0.00    +0.000 C 
ATOM     18  C   UNL     1       0.145  11.828  20.719  0.00  0.00    +0.000 C 
ENDROOT
BRANCH  15  19
ATOM     19  C   UNL     1      -2.676  10.759  17.384  0.00  0.00    +0.000 C 
ATOM     20  C   UNL     1      -2.694  10.017  16.273  0.00  0.00    +0.000 C 
ATOM     21  C   UNL     1      -3.974  10.208  15.557  0.00  0.00    +0.000 C 
ATOM     22  O   UNL     1      -4.652  11.257  16.252  0.00  0.00    +0.000 OA
ATOM     23  C   UNL     1      -3.952  11.525  17.472  0.00  0.00    +0.000 C 
BRANCH  21  24
ATOM     24  O   UNL     1      -3.681  10.594  14.223  0.00  0.00    +0.000 OA
ATOM     25  C   UNL     1      -2.880   9.617  13.573  0.00  0.00    +0.000 C 
ENDBRANCH  21  24
BRANCH  23  26
ATOM     26  O   UNL     1      -4.698  11.085  18.597  0.00  0.00    +0.000 OA
ATOM     27  C   UNL     1      -5.110  12.185  19.402  0.00  0.00    +0.000 C 
ENDBRANCH  23  26
ENDBRANCH  15  19
BRANCH   1  28
ATOM     28  C   UNL     1       3.472  16.590  19.430  0.00  0.00    +0.000 C 
ATOM     29  O   UNL     1       4.132  16.553  20.464  0.00  0.00    +0.000 OA
BRANCH  28  31
ATOM     30  C   UNL     1       3.026  16.925  17.152  0.00  0.00    +0.000 C 
ATOM     31  O   UNL     1       3.884  17.161  18.270  0.00  0.00    +0.000 OA
ENDBRANCH  28  31
ENDBRANCH   1  28
BRANCH   3  32
ATOM     32  O   UNL     1      -1.274  17.206  20.805  0.00  0.00    +0.000 OA
BRANCH  32  33
ATOM     33  C   UNL     1      -2.292  17.857  20.191  0.00  0.00    +0.000 C 
ATOM     34  C   UNL     1      -3.135  18.629  21.164  0.00  0.00    +0.000 C 
ATOM     35  O   UNL     1      -2.509  17.834  18.986  0.00  0.00    +0.000 OA
ENDBRANCH  32  33
ENDBRANCH   3  32
TORSDOF 7
ENDMDL
