MODEL 1
REMARK VINA RESULT:      -7.8      0.000      0.000
REMARK  Name = 
REMARK  5 active torsions:
REMARK  status: ('A' for Active; 'I' for Inactive)
REMARK    1  A    between atoms: C_2  and  C_3
REMARK    2  A    between atoms: C_3  and  N_4
REMARK    3  A    between atoms: N_11  and  C_12
REMARK    4  A    between atoms: C_15  and  O_16
REMARK    5  A    between atoms: O_16  and  C_17
REMARK                            x       y       z     vdW  Elec       q    Type
REMARK                         _______ _______ _______ _____ _____    ______ ____
ROOT
ATOM      1  C   UNL     1       1.164  10.202  18.775  0.00  0.00    +0.000 A 
ATOM      2  C   UNL     1       0.952   9.631  20.055  0.00  0.00    +0.000 A 
ATOM      3  C   UNL     1       1.485   8.385  20.379  0.00  0.00    +0.000 A 
ATOM      4  C   UNL     1       2.205   7.663  19.434  0.00  0.00    +0.000 A 
ATOM      5  C   UNL     1       2.402   8.206  18.152  0.00  0.00    +0.000 A 
ATOM      6  C   UNL     1       1.881   9.455  17.829  0.00  0.00    +0.000 A 
ENDROOT
BRANCH   1   9
ATOM      7  O   UNL     1      -0.756  13.151  18.118  0.00  0.00    +0.000 OA
ATOM      8  C   UNL     1      -0.580  11.977  18.402  0.00  0.00    +0.000 C 
ATOM      9  N   UNL     1       0.704  11.503  18.381  0.00  0.00    +0.000 N 
ATOM     10  H   UNL     1       1.438  12.196  18.158  0.00  0.00    +0.000 HD
BRANCH   8  11
ATOM     11  C   UNL     1      -1.757  11.147  18.899  0.00  0.00    +0.000 C 
BRANCH  11  12
ATOM     12  N   UNL     1      -3.102  11.664  18.563  0.00  0.00    +0.000 NA
ATOM     13  C   UNL     1      -3.946  10.711  17.819  0.00  0.00    +0.000 C 
ATOM     14  C   UNL     1      -4.835  11.492  16.845  0.00  0.00    +0.000 C 
ATOM     15  C   UNL     1      -6.080  12.102  17.489  0.00  0.00    +0.000 C 
ATOM     16  C   UNL     1      -5.851  13.065  18.660  0.00  0.00    +0.000 C 
ATOM     17  C   UNL     1      -5.226  12.363  19.864  0.00  0.00    +0.000 C 
ATOM     18  C   UNL     1      -3.701  12.229  19.801  0.00  0.00    +0.000 C 
ENDBRANCH  11  12
ENDBRANCH   8  11
ENDBRANCH   1   9
BRANCH   4  19
ATOM     19  O   UNL     1       2.703   6.450  19.776  0.00  0.00    +0.000 OA
BRANCH  19  20
ATOM     20  C   UNL     1       2.085   5.267  19.545  0.00  0.00    +0.000 A 
ATOM     21  C   UNL     1       2.087   4.737  18.250  0.00  0.00    +0.000 A 
ATOM     22  C   UNL     1       1.451   3.520  17.988  0.00  0.00    +0.000 A 
ATOM     23  C   UNL     1       0.818   2.821  19.023  0.00  0.00    +0.000 A 
ATOM     24  C   UNL     1       0.824   3.337  20.320  0.00  0.00    +0.000 A 
ATOM     25  C   UNL     1       1.455   4.550  20.584  0.00  0.00    +0.000 A 
ENDBRANCH  19  20
ENDBRANCH   4  19
TORSDOF 5
ENDMDL
MODEL 2
REMARK VINA RESULT:      -7.7      4.173      9.076
REMARK  Name = 
REMARK  5 active torsions:
REMARK  status: ('A' for Active; 'I' for Inactive)
REMARK    1  A    between atoms: C_2  and  C_3
REMARK    2  A    between atoms: C_3  and  N_4
REMARK    3  A    between atoms: N_11  and  C_12
REMARK    4  A    between atoms: C_15  and  O_16
REMARK    5  A    between atoms: O_16  and  C_17
REMARK                            x       y       z     vdW  Elec       q    Type
REMARK                         _______ _______ _______ _____ _____    ______ ____
ROOT
ATOM      1  C   UNL     1       2.073   4.963  19.037  0.00  0.00    +0.000 A 
ATOM      2  C   UNL     1       2.319   6.020  18.126  0.00  0.00    +0.000 A 
ATOM      3  C   UNL     1       2.254   7.350  18.540  0.00  0.00    +0.000 A 
ATOM      4  C   UNL     1       1.910   7.659  19.851  0.00  0.00    +0.000 A 
ATOM      5  C   UNL     1       1.640   6.621  20.759  0.00  0.00    +0.000 A 
ATOM      6  C   UNL     1       1.714   5.293  20.352  0.00  0.00    +0.000 A 
ENDROOT
BRANCH   1   9
ATOM      7  O   UNL     1       3.158   1.588  18.532  0.00  0.00    +0.000 OA
ATOM      8  C   UNL     1       3.295   2.781  18.758  0.00  0.00    +0.000 C 
ATOM      9  N   UNL     1       2.178   3.570  18.709  0.00  0.00    +0.000 N 
ATOM     10  H   UNL     1       1.287   3.080  18.516  0.00  0.00    +0.000 HD
BRANCH   8  11
ATOM     11  C   UNL     1       4.650   3.300  19.220  0.00  0.00    +0.000 C 
BRANCH  11  12
ATOM     12  N   UNL     1       5.458   4.002  18.198  0.00  0.00    +0.000 NA
ATOM     13  C   UNL     1       4.900   3.932  16.836  0.00  0.00    +0.000 C 
ATOM     14  C   UNL     1       6.054   3.884  15.828  0.00  0.00    +0.000 C 
ATOM     15  C   UNL     1       6.666   5.248  15.514  0.00  0.00    +0.000 C 
ATOM     16  C   UNL     1       7.221   6.045  16.701  0.00  0.00    +0.000 C 
ATOM     17  C   UNL     1       6.124   6.449  17.683  0.00  0.00    +0.000 C 
ATOM     18  C   UNL     1       5.757   5.367  18.705  0.00  0.00    +0.000 C 
ENDBRANCH  11  12
ENDBRANCH   8  11
ENDBRANCH   1   9
BRANCH   4  19
ATOM     19  O   UNL     1       1.847   8.961  20.221  0.00  0.00    +0.000 OA
BRANCH  19  20
ATOM     20  C   UNL     1       0.956   9.472  21.104  0.00  0.00    +0.000 A 
ATOM     21  C   UNL     1       0.023  10.418  20.662  0.00  0.00    +0.000 A 
ATOM     22  C   UNL     1      -0.903  10.962  21.558  0.00  0.00    +0.000 A 
ATOM     23  C   UNL     1      -0.907  10.556  22.897  0.00  0.00    +0.000 A 
ATOM     24  C   UNL     1       0.011   9.602  23.341  0.00  0.00    +0.000 A 
ATOM     25  C   UNL     1       0.936   9.060  22.453  0.00  0.00    +0.000 A 
ENDBRANCH  19  20
ENDBRANCH   4  19
TORSDOF 5
ENDMDL
MODEL 3
REMARK VINA RESULT:      -7.6      3.683      9.081
REMARK  Name = 
REMARK  5 active torsions:
REMARK  status: ('A' for Active; 'I' for Inactive)
REMARK    1  A    between atoms: C_2  and  C_3
REMARK    2  A    between atoms: C_3  and  N_4
REMARK    3  A    between atoms: N_11  and  C_12
REMARK    4  A    between atoms: C_15  and  O_16
REMARK    5  A    between atoms: O_16  and  C_17
REMARK                            x       y       z     vdW  Elec       q    Type
REMARK                         _______ _______ _______ _____ _____    ______ ____
ROOT
ATOM      1  C   UNL     1       2.120   5.040  19.121  0.00  0.00    +0.000 A 
ATOM      2  C   UNL     1       1.857   5.593  20.399  0.00  0.00    +0.000 A 
ATOM      3  C   UNL     1       1.757   6.972  20.575  0.00  0.00    +0.000 A 
ATOM      4  C   UNL     1       1.951   7.831  19.499  0.00  0.00    +0.000 A 
ATOM      5  C   UNL     1       2.237   7.297  18.230  0.00  0.00    +0.000 A 
ATOM      6  C   UNL     1       2.327   5.920  18.050  0.00  0.00    +0.000 A 
ENDROOT
BRANCH   1   9
ATOM      7  O   UNL     1       3.101   1.620  18.717  0.00  0.00    +0.000 OA
ATOM      8  C   UNL     1       3.275   2.816  18.894  0.00  0.00    +0.000 C 
ATOM      9  N   UNL     1       2.179   3.633  18.843  0.00  0.00    +0.000 N 
ATOM     10  H   UNL     1       1.271   3.162  18.692  0.00  0.00    +0.000 HD
BRANCH   8  11
ATOM     11  C   UNL     1       4.656   3.315  19.302  0.00  0.00    +0.000 C 
BRANCH  11  12
ATOM     12  N   UNL     1       5.441   3.986  18.242  0.00  0.00    +0.000 NA
ATOM     13  C   UNL     1       4.853   3.877  16.895  0.00  0.00    +0.000 C 
ATOM     14  C   UNL     1       5.985   3.798  15.864  0.00  0.00    +0.000 C 
ATOM     15  C   UNL     1       6.591   5.152  15.497  0.00  0.00    +0.000 C 
ATOM     16  C   UNL     1       7.173   5.982  16.647  0.00  0.00    +0.000 C 
ATOM     17  C   UNL     1       6.098   6.416  17.642  0.00  0.00    +0.000 C 
ATOM     18  C   UNL     1       5.753   5.365  18.703  0.00  0.00    +0.000 C 
ENDBRANCH  11  12
ENDBRANCH   8  11
ENDBRANCH   1   9
BRANCH   4  19
ATOM     19  O   UNL     1       1.856   9.167  19.702  0.00  0.00    +0.000 OA
BRANCH  19  20
ATOM     20  C   UNL     1       0.715   9.888  19.587  0.00  0.00    +0.000 A 
ATOM     21  C   UNL     1       0.192  10.525  20.718  0.00  0.00    +0.000 A 
ATOM     22  C   UNL     1      -0.987  11.270  20.622  0.00  0.00    +0.000 A 
ATOM     23  C   UNL     1      -1.645  11.389  19.393  0.00  0.00    +0.000 A 
ATOM     24  C   UNL     1      -1.122  10.769  18.257  0.00  0.00    +0.000 A 
ATOM     25  C   UNL     1       0.051  10.024  18.349  0.00  0.00    +0.000 A 
ENDBRANCH  19  20
ENDBRANCH   4  19
TORSDOF 5
ENDMDL
MODEL 4
REMARK VINA RESULT:      -7.6      3.723      9.155
REMARK  Name = 
REMARK  5 active torsions:
REMARK  status: ('A' for Active; 'I' for Inactive)
REMARK    1  A    between atoms: C_2  and  C_3
REMARK    2  A    between atoms: C_3  and  N_4
REMARK    3  A    between atoms: N_11  and  C_12
REMARK    4  A    between atoms: C_15  and  O_16
REMARK    5  A    between atoms: O_16  and  C_17
REMARK                            x       y       z     vdW  Elec       q    Type
REMARK                         _______ _______ _______ _____ _____    ______ ____
ROOT
ATOM      1  C   UNL     1       2.094   4.942  19.067  0.00  0.00    +0.000 A 
ATOM      2  C   UNL     1       2.370   5.986  18.150  0.00  0.00    +0.000 A 
ATOM      3  C   UNL     1       2.289   7.321  18.540  0.00  0.00    +0.000 A 
ATOM      4  C   UNL     1       1.898   7.651  19.833  0.00  0.00    +0.000 A 
ATOM      5  C   UNL     1       1.597   6.626  20.747  0.00  0.00    +0.000 A 
ATOM      6  C   UNL     1       1.687   5.291  20.363  0.00  0.00    +0.000 A 
ENDROOT
BRANCH   1   9
ATOM      7  O   UNL     1       3.218   1.574  18.604  0.00  0.00    +0.000 OA
ATOM      8  C   UNL     1       3.342   2.773  18.803  0.00  0.00    +0.000 C 
ATOM      9  N   UNL     1       2.212   3.544  18.764  0.00  0.00    +0.000 N 
ATOM     10  H   UNL     1       1.324   3.038  18.602  0.00  0.00    +0.000 HD
BRANCH   8  11
ATOM     11  C   UNL     1       4.700   3.321  19.223  0.00  0.00    +0.000 C 
BRANCH  11  12
ATOM     12  N   UNL     1       5.482   3.993  18.162  0.00  0.00    +0.000 NA
ATOM     13  C   UNL     1       4.877   3.911  16.821  0.00  0.00    +0.000 C 
ATOM     14  C   UNL     1       5.995   3.827  15.776  0.00  0.00    +0.000 C 
ATOM     15  C   UNL     1       6.617   5.176  15.418  0.00  0.00    +0.000 C 
ATOM     16  C   UNL     1       7.225   5.983  16.571  0.00  0.00    +0.000 C 
ATOM     17  C   UNL     1       6.169   6.421  17.584  0.00  0.00    +0.000 C 
ATOM     18  C   UNL     1       5.820   5.362  18.636  0.00  0.00    +0.000 C 
ENDBRANCH  11  12
ENDBRANCH   8  11
ENDBRANCH   1   9
BRANCH   4  19
ATOM     19  O   UNL     1       1.820   8.958  20.181  0.00  0.00    +0.000 OA
BRANCH  19  20
ATOM     20  C   UNL     1       0.756   9.761  19.938  0.00  0.00    +0.000 A 
ATOM     21  C   UNL     1       0.162  10.447  21.003  0.00  0.00    +0.000 A 
ATOM     22  C   UNL     1      -0.940  11.277  20.776  0.00  0.00    +0.000 A 
ATOM     23  C   UNL     1      -1.447  11.433  19.481  0.00  0.00    +0.000 A 
ATOM     24  C   UNL     1      -0.850  10.763  18.412  0.00  0.00    +0.000 A 
ATOM     25  C   UNL     1       0.246   9.934  18.634  0.00  0.00    +0.000 A 
ENDBRANCH  19  20
ENDBRANCH   4  19
TORSDOF 5
ENDMDL
MODEL 5
REMARK VINA RESULT:      -7.5      1.477      2.621
REMARK  Name = 
REMARK  5 active torsions:
REMARK  status: ('A' for Active; 'I' for Inactive)
REMARK    1  A    between atoms: C_2  and  C_3
REMARK    2  A    between atoms: C_3  and  N_4
REMARK    3  A    between atoms: N_11  and  C_12
REMARK    4  A    between atoms: C_15  and  O_16
REMARK    5  A    between atoms: O_16  and  C_17
REMARK                            x       y       z     vdW  Elec       q    Type
REMARK                         _______ _______ _______ _____ _____    ______ ____
ROOT
ATOM      1  C   UNL     1       1.241  10.136  18.712  0.00  0.00    +0.000 A 
ATOM      2  C   UNL     1       0.999   9.548  19.978  0.00  0.00    +0.000 A 
ATOM      3  C   UNL     1       1.527   8.299  20.299  0.00  0.00    +0.000 A 
ATOM      4  C   UNL     1       2.273   7.592  19.363  0.00  0.00    +0.000 A 
ATOM      5  C   UNL     1       2.501   8.152  18.094  0.00  0.00    +0.000 A 
ATOM      6  C   UNL     1       1.984   9.404  17.774  0.00  0.00    +0.000 A 
ENDROOT
BRANCH   1   9
ATOM      7  O   UNL     1      -0.651  13.116  18.115  0.00  0.00    +0.000 OA
ATOM      8  C   UNL     1      -0.484  11.942  18.408  0.00  0.00    +0.000 C 
ATOM      9  N   UNL     1       0.786  11.440  18.323  0.00  0.00    +0.000 N 
ATOM     10  H   UNL     1       1.521  12.115  18.049  0.00  0.00    +0.000 HD
BRANCH   8  11
ATOM     11  C   UNL     1      -1.648  11.145  18.983  0.00  0.00    +0.000 C 
BRANCH  11  12
ATOM     12  N   UNL     1      -2.163  11.604  20.292  0.00  0.00    +0.000 NA
ATOM     13  C   UNL     1      -1.118  12.064  21.224  0.00  0.00    +0.000 C 
ATOM     14  C   UNL     1      -1.539  11.710  22.655  0.00  0.00    +0.000 C 
ATOM     15  C   UNL     1      -2.532  12.692  23.274  0.00  0.00    +0.000 C 
ATOM     16  C   UNL     1      -3.853  12.903  22.524  0.00  0.00    +0.000 C 
ATOM     17  C   UNL     1      -3.638  13.546  21.156  0.00  0.00    +0.000 C 
ATOM     18  C   UNL     1      -3.273  12.561  20.041  0.00  0.00    +0.000 C 
ENDBRANCH  11  12
ENDBRANCH   8  11
ENDBRANCH   1   9
BRANCH   4  19
ATOM     19  O   UNL     1       2.767   6.376  19.701  0.00  0.00    +0.000 OA
BRANCH  19  20
ATOM     20  C   UNL     1       2.139   5.197  19.477  0.00  0.00    +0.000 A 
ATOM     21  C   UNL     1       1.531   4.532  20.548  0.00  0.00    +0.000 A 
ATOM     22  C   UNL     1       0.883   3.311  20.339  0.00  0.00    +0.000 A 
ATOM     23  C   UNL     1       0.830   2.754  19.057  0.00  0.00    +0.000 A 
ATOM     24  C   UNL     1       1.421   3.418  17.981  0.00  0.00    +0.000 A 
ATOM     25  C   UNL     1       2.070   4.633  18.185  0.00  0.00    +0.000 A 
ENDBRANCH  19  20
ENDBRANCH   4  19
TORSDOF 5
ENDMDL
MODEL 6
REMARK VINA RESULT:      -7.5      1.918      2.677
REMARK  Name = 
REMARK  5 active torsions:
REMARK  status: ('A' for Active; 'I' for Inactive)
REMARK    1  A    between atoms: C_2  and  C_3
REMARK    2  A    between atoms: C_3  and  N_4
REMARK    3  A    between atoms: N_11  and  C_12
REMARK    4  A    between atoms: C_15  and  O_16
REMARK    5  A    between atoms: O_16  and  C_17
REMARK                            x       y       z     vdW  Elec       q    Type
REMARK                         _______ _______ _______ _____ _____    ______ ____
ROOT
ATOM      1  C   UNL     1       1.208  10.048  18.600  0.00  0.00    +0.000 A 
ATOM      2  C   UNL     1       0.983   9.542  19.904  0.00  0.00    +0.000 A 
ATOM      3  C   UNL     1       1.512   8.313  20.295  0.00  0.00    +0.000 A 
ATOM      4  C   UNL     1       2.242   7.546  19.394  0.00  0.00    +0.000 A 
ATOM      5  C   UNL     1       2.452   8.025  18.090  0.00  0.00    +0.000 A 
ATOM      6  C   UNL     1       1.934   9.256  17.699  0.00  0.00    +0.000 A 
ENDROOT
BRANCH   1   9
ATOM      7  O   UNL     1       0.122  13.447  18.306  0.00  0.00    +0.000 OA
ATOM      8  C   UNL     1       0.391  12.410  18.893  0.00  0.00    +0.000 C 
ATOM      9  N   UNL     1       0.751  11.327  18.137  0.00  0.00    +0.000 N 
ATOM     10  H   UNL     1       0.803  11.486  17.116  0.00  0.00    +0.000 HD
BRANCH   8  11
ATOM     11  C   UNL     1       0.454  12.410  20.415  0.00  0.00    +0.000 C 
BRANCH  11  12
ATOM     12  N   UNL     1      -0.837  12.586  21.117  0.00  0.00    +0.000 NA
ATOM     13  C   UNL     1      -2.012  12.166  20.333  0.00  0.00    +0.000 C 
ATOM     14  C   UNL     1      -3.192  13.081  20.680  0.00  0.00    +0.000 C 
ATOM     15  C   UNL     1      -3.913  12.705  21.974  0.00  0.00    +0.000 C 
ATOM     16  C   UNL     1      -3.065  12.667  23.251  0.00  0.00    +0.000 C 
ATOM     17  C   UNL     1      -1.997  11.575  23.197  0.00  0.00    +0.000 C 
ATOM     18  C   UNL     1      -0.711  11.981  22.469  0.00  0.00    +0.000 C 
ENDBRANCH  11  12
ENDBRANCH   8  11
ENDBRANCH   1   9
BRANCH   4  19
ATOM     19  O   UNL     1       2.736   6.352  19.801  0.00  0.00    +0.000 OA
BRANCH  19  20
ATOM     20  C   UNL     1       2.151   5.152  19.569  0.00  0.00    +0.000 A 
ATOM     21  C   UNL     1       1.459   4.518  20.607  0.00  0.00    +0.000 A 
ATOM     22  C   UNL     1       0.853   3.277  20.389  0.00  0.00    +0.000 A 
ATOM     23  C   UNL     1       0.926   2.669  19.131  0.00  0.00    +0.000 A 
ATOM     24  C   UNL     1       1.602   3.304  18.087  0.00  0.00    +0.000 A 
ATOM     25  C   UNL     1       2.210   4.538  18.300  0.00  0.00    +0.000 A 
ENDBRANCH  19  20
ENDBRANCH   4  19
TORSDOF 5
ENDMDL
MODEL 7
REMARK VINA RESULT:      -7.4      3.148      5.239
REMARK  Name = 
REMARK  5 active torsions:
REMARK  status: ('A' for Active; 'I' for Inactive)
REMARK    1  A    between atoms: C_2  and  C_3
REMARK    2  A    between atoms: C_3  and  N_4
REMARK    3  A    between atoms: N_11  and  C_12
REMARK    4  A    between atoms: C_15  and  O_16
REMARK    5  A    between atoms: O_16  and  C_17
REMARK                            x       y       z     vdW  Elec       q    Type
REMARK                         _______ _______ _______ _____ _____    ______ ____
ROOT
ATOM      1  C   UNL     1       0.868  10.135  18.806  0.00  0.00    +0.000 A 
ATOM      2  C   UNL     1       0.775   9.528  20.083  0.00  0.00    +0.000 A 
ATOM      3  C   UNL     1       1.427   8.326  20.353  0.00  0.00    +0.000 A 
ATOM      4  C   UNL     1       2.153   7.684  19.355  0.00  0.00    +0.000 A 
ATOM      5  C   UNL     1       2.233   8.262  18.077  0.00  0.00    +0.000 A 
ATOM      6  C   UNL     1       1.591   9.467  17.808  0.00  0.00    +0.000 A 
ENDROOT
BRANCH   1   9
ATOM      7  O   UNL     1       0.091  13.607  18.405  0.00  0.00    +0.000 OA
ATOM      8  C   UNL     1       0.662  12.642  18.889  0.00  0.00    +0.000 C 
ATOM      9  N   UNL     1       0.279  11.398  18.464  0.00  0.00    +0.000 N 
ATOM     10  H   UNL     1      -0.450  11.376  17.730  0.00  0.00    +0.000 HD
BRANCH   8  11
ATOM     11  C   UNL     1       1.851  12.866  19.814  0.00  0.00    +0.000 C 
BRANCH  11  12
ATOM     12  N   UNL     1       2.626  14.105  19.584  0.00  0.00    +0.000 NA
ATOM     13  C   UNL     1       3.407  14.554  20.750  0.00  0.00    +0.000 C 
ATOM     14  C   UNL     1       3.448  16.087  20.759  0.00  0.00    +0.000 C 
ATOM     15  C   UNL     1       4.493  16.689  19.821  0.00  0.00    +0.000 C 
ATOM     16  C   UNL     1       4.386  16.314  18.338  0.00  0.00    +0.000 C 
ATOM     17  C   UNL     1       4.625  14.823  18.105  0.00  0.00    +0.000 C 
ATOM     18  C   UNL     1       3.391  13.941  18.318  0.00  0.00    +0.000 C 
ENDBRANCH  11  12
ENDBRANCH   8  11
ENDBRANCH   1   9
BRANCH   4  19
ATOM     19  O   UNL     1       2.769   6.512  19.645  0.00  0.00    +0.000 OA
BRANCH  19  20
ATOM     20  C   UNL     1       2.179   5.294  19.590  0.00  0.00    +0.000 A 
ATOM     21  C   UNL     1       2.037   4.659  18.351  0.00  0.00    +0.000 A 
ATOM     22  C   UNL     1       1.426   3.404  18.272  0.00  0.00    +0.000 A 
ATOM     23  C   UNL     1       0.965   2.772  19.432  0.00  0.00    +0.000 A 
ATOM     24  C   UNL     1       1.118   3.392  20.673  0.00  0.00    +0.000 A 
ATOM     25  C   UNL     1       1.722   4.644  20.757  0.00  0.00    +0.000 A 
ENDBRANCH  19  20
ENDBRANCH   4  19
TORSDOF 5
ENDMDL
MODEL 8
REMARK VINA RESULT:      -7.4      3.391      8.496
REMARK  Name = 
REMARK  5 active torsions:
REMARK  status: ('A' for Active; 'I' for Inactive)
REMARK    1  A    between atoms: C_2  and  C_3
REMARK    2  A    between atoms: C_3  and  N_4
REMARK    3  A    between atoms: N_11  and  C_12
REMARK    4  A    between atoms: C_15  and  O_16
REMARK    5  A    between atoms: O_16  and  C_17
REMARK                            x       y       z     vdW  Elec       q    Type
REMARK                         _______ _______ _______ _____ _____    ______ ____
ROOT
ATOM      1  C   UNL     1       3.551   6.780  18.038  0.00  0.00    +0.000 A 
ATOM      2  C   UNL     1       3.118   6.561  19.369  0.00  0.00    +0.000 A 
ATOM      3  C   UNL     1       2.158   7.385  19.954  0.00  0.00    +0.000 A 
ATOM      4  C   UNL     1       1.636   8.463  19.246  0.00  0.00    +0.000 A 
ATOM      5  C   UNL     1       2.074   8.706  17.933  0.00  0.00    +0.000 A 
ATOM      6  C   UNL     1       3.025   7.878  17.344  0.00  0.00    +0.000 A 
ENDROOT
BRANCH   1   9
ATOM      7  O   UNL     1       5.200   4.138  16.271  0.00  0.00    +0.000 OA
ATOM      8  C   UNL     1       4.314   4.648  16.940  0.00  0.00    +0.000 C 
ATOM      9  N   UNL     1       4.489   5.944  17.343  0.00  0.00    +0.000 N 
ATOM     10  H   UNL     1       5.353   6.407  17.015  0.00  0.00    +0.000 HD
BRANCH   8  11
ATOM     11  C   UNL     1       3.017   3.883  17.165  0.00  0.00    +0.000 C 
BRANCH  11  12
ATOM     12  N   UNL     1       2.660   3.613  18.576  0.00  0.00    +0.000 NA
ATOM     13  C   UNL     1       1.375   2.912  18.750  0.00  0.00    +0.000 C 
ATOM     14  C   UNL     1       0.715   3.402  20.044  0.00  0.00    +0.000 C 
ATOM     15  C   UNL     1       1.255   2.740  21.310  0.00  0.00    +0.000 C 
ATOM     16  C   UNL     1       2.760   2.873  21.571  0.00  0.00    +0.000 C 
ATOM     17  C   UNL     1       3.591   2.161  20.505  0.00  0.00    +0.000 C 
ATOM     18  C   UNL     1       3.835   2.983  19.235  0.00  0.00    +0.000 C 
ENDBRANCH  11  12
ENDBRANCH   8  11
ENDBRANCH   1   9
BRANCH   4  19
ATOM     19  O   UNL     1       0.710   9.251  19.844  0.00  0.00    +0.000 OA
BRANCH  19  20
ATOM     20  C   UNL     1       0.229  10.408  19.328  0.00  0.00    +0.000 A 
ATOM     21  C   UNL     1       0.974  11.583  19.477  0.00  0.00    +0.000 A 
ATOM     22  C   UNL     1       0.493  12.789  18.956  0.00  0.00    +0.000 A 
ATOM     23  C   UNL     1      -0.728  12.822  18.274  0.00  0.00    +0.000 A 
ATOM     24  C   UNL     1      -1.469  11.651  18.109  0.00  0.00    +0.000 A 
ATOM     25  C   UNL     1      -0.995  10.449  18.628  0.00  0.00    +0.000 A 
ENDBRANCH  19  20
ENDBRANCH   4  19
TORSDOF 5
ENDMDL
MODEL 9
REMARK VINA RESULT:      -7.4      4.018      9.047
REMARK  Name = 
REMARK  5 active torsions:
REMARK  status: ('A' for Active; 'I' for Inactive)
REMARK    1  A    between atoms: C_2  and  C_3
REMARK    2  A    between atoms: C_3  and  N_4
REMARK    3  A    between atoms: N_11  and  C_12
REMARK    4  A    between atoms: C_15  and  O_16
REMARK    5  A    between atoms: O_16  and  C_17
REMARK                            x       y       z     vdW  Elec       q    Type
REMARK                         _______ _______ _______ _____ _____    ______ ____
ROOT
ATOM      1  C   UNL     1       1.835   5.081  18.935  0.00  0.00    +0.000 A 
ATOM      2  C   UNL     1       1.538   5.259  20.309  0.00  0.00    +0.000 A 
ATOM      3  C   UNL     1       1.600   6.521  20.897  0.00  0.00    +0.000 A 
ATOM      4  C   UNL     1       1.993   7.624  20.147  0.00  0.00    +0.000 A 
ATOM      5  C   UNL     1       2.314   7.459  18.788  0.00  0.00    +0.000 A 
ATOM      6  C   UNL     1       2.243   6.201  18.197  0.00  0.00    +0.000 A 
ENDROOT
BRANCH   1   9
ATOM      7  O   UNL     1       2.383   1.815  17.574  0.00  0.00    +0.000 OA
ATOM      8  C   UNL     1       2.695   2.858  18.129  0.00  0.00    +0.000 C 
ATOM      9  N   UNL     1       1.737   3.830  18.240  0.00  0.00    +0.000 N 
ATOM     10  H   UNL     1       0.802   3.586  17.872  0.00  0.00    +0.000 HD
BRANCH   8  11
ATOM     11  C   UNL     1       4.063   2.970  18.788  0.00  0.00    +0.000 C 
BRANCH  11  12
ATOM     12  N   UNL     1       5.094   3.703  18.020  0.00  0.00    +0.000 NA
ATOM     13  C   UNL     1       4.721   3.981  16.622  0.00  0.00    +0.000 C 
ATOM     14  C   UNL     1       5.983   3.926  15.753  0.00  0.00    +0.000 C 
ATOM     15  C   UNL     1       6.821   5.203  15.789  0.00  0.00    +0.000 C 
ATOM     16  C   UNL     1       7.319   5.663  17.164  0.00  0.00    +0.000 C 
ATOM     17  C   UNL     1       6.168   6.057  18.088  0.00  0.00    +0.000 C 
ATOM     18  C   UNL     1       5.515   4.882  18.824  0.00  0.00    +0.000 C 
ENDBRANCH  11  12
ENDBRANCH   8  11
ENDBRANCH   1   9
BRANCH   4  19
ATOM     19  O   UNL     1       2.052   8.837  20.748  0.00  0.00    +0.000 OA
BRANCH  19  20
ATOM     20  C   UNL     1       0.992   9.487  21.285  0.00  0.00    +0.000 A 
ATOM     21  C   UNL     1       0.668   9.272  22.630  0.00  0.00    +0.000 A 
ATOM     22  C   UNL     1      -0.425   9.929  23.202  0.00  0.00    +0.000 A 
ATOM     23  C   UNL     1      -1.195  10.812  22.436  0.00  0.00    +0.000 A 
ATOM     24  C   UNL     1      -0.869  11.042  21.098  0.00  0.00    +0.000 A 
ATOM     25  C   UNL     1       0.218  10.388  20.523  0.00  0.00    +0.000 A 
ENDBRANCH  19  20
ENDBRANCH   4  19
TORSDOF 5
ENDMDL
