MODEL 1
REMARK VINA RESULT:      -7.8      0.000      0.000
REMARK  Name = 
REMARK  13 active torsions:
REMARK  status: ('A' for Active; 'I' for Inactive)
REMARK    1  A    between atoms: C_1  and  C_2
REMARK    2  A    between atoms: C_2  and  C_3
REMARK    3  A    between atoms: C_3  and  C_4
REMARK    4  A    between atoms: C_4  and  N_5
REMARK    5  A    between atoms: C_6  and  C_8
REMARK    6  A    between atoms: C_8  and  C_9
REMARK    7  A    between atoms: C_9  and  N_10
REMARK    8  A    between atoms: N_19  and  C_20
REMARK    9  A    between atoms: C_20  and  C_21
REMARK   10  A    between atoms: N_23  and  C_24
REMARK   11  A    between atoms: C_29  and  O_30
REMARK   12  A    between atoms: O_30  and  C_31
REMARK   13  A    between atoms: C_31  and  C_32
REMARK                            x       y       z     vdW  Elec       q    Type
REMARK                         _______ _______ _______ _____ _____    ______ ____
ROOT
ATOM      1  N   UNL     1       3.919   5.667  17.368  0.00  0.00    +0.000 N 
ATOM      2  C   UNL     1       3.311   4.422  17.278  0.00  0.00    +0.000 A 
ATOM      3  O   UNL     1       3.464   3.641  16.344  0.00  0.00    +0.000 OA
ATOM      4  C   UNL     1       2.414   4.046  18.385  0.00  0.00    +0.000 A 
ATOM      5  C   UNL     1       1.757   2.805  18.351  0.00  0.00    +0.000 A 
ATOM      6  C   UNL     1       0.885   2.453  19.375  0.00  0.00    +0.000 A 
ATOM      7  C   UNL     1       0.701   3.319  20.447  0.00  0.00    +0.000 A 
ATOM      8  C   UNL     1       1.391   4.536  20.498  0.00  0.00    +0.000 A 
ATOM      9  C   UNL     1       2.231   4.931  19.448  0.00  0.00    +0.000 A 
ATOM     10  N   UNL     1       2.822   6.224  19.379  0.00  0.00    +0.000 N 
ATOM     11  C   UNL     1       3.454   6.658  18.222  0.00  0.00    +0.000 A 
ATOM     12  O   UNL     1       3.634   7.858  18.006  0.00  0.00    +0.000 OA
ENDROOT
BRANCH   1  13
ATOM     13  C   UNL     1       4.826   6.054  16.280  0.00  0.00    +0.000 C 
BRANCH  13  14
ATOM     14  C   UNL     1       6.236   5.481  16.423  0.00  0.00    +0.000 C 
BRANCH  14  16
ATOM     15  N   UNL     1       6.007   4.220  14.392  0.00  0.00    +0.000 N 
ATOM     16  C   UNL     1       6.810   5.103  15.080  0.00  0.00    +0.000 C 
ATOM     17  O   UNL     1       7.874   5.528  14.652  0.00  0.00    +0.000 OA
ATOM     18  H   UNL     1       5.166   3.863  14.825  0.00  0.00    +0.000 HD
BRANCH  15  19
ATOM     19  C   UNL     1       6.408   3.680  13.110  0.00  0.00    +0.000 C 
BRANCH  19  20
ATOM     20  C   UNL     1       5.212   3.300  12.240  0.00  0.00    +0.000 C 
BRANCH  20  22
ATOM     21  C   UNL     1       7.022   1.872  11.203  0.00  0.00    +0.000 C 
ATOM     22  C   UNL     1       5.528   2.054  11.414  0.00  0.00    +0.000 C 
ENDBRANCH  20  22
ENDBRANCH  19  20
ENDBRANCH  15  19
ENDBRANCH  14  16
ENDBRANCH  13  14
ENDBRANCH   1  13
BRANCH  10  23
ATOM     23  C   UNL     1       2.612   7.213  20.437  0.00  0.00    +0.000 C 
BRANCH  23  24
ATOM     24  C   UNL     1       1.311   8.006  20.307  0.00  0.00    +0.000 C 
ATOM     25  O   UNL     1       0.278   7.664  20.868  0.00  0.00    +0.000 OA
ATOM     26  N   UNL     1       1.442   9.171  19.577  0.00  0.00    +0.000 N 
ATOM     27  H   UNL     1       2.221   9.245  18.928  0.00  0.00    +0.000 HD
BRANCH  26  28
ATOM     28  C   UNL     1       0.301   9.927  19.200  0.00  0.00    +0.000 A 
ATOM     29  C   UNL     1      -0.313   9.591  17.979  0.00  0.00    +0.000 A 
ATOM     30  C   UNL     1      -1.474  10.234  17.561  0.00  0.00    +0.000 A 
ATOM     31  C   UNL     1      -2.045  11.209  18.364  0.00  0.00    +0.000 A 
ATOM     32  C   UNL     1      -1.441  11.554  19.576  0.00  0.00    +0.000 A 
ATOM     33  C   UNL     1      -0.247  10.944  19.993  0.00  0.00    +0.000 A 
BRANCH  33  34
ATOM     34  O   UNL     1       0.162  11.378  21.227  0.00  0.00    +0.000 OA
BRANCH  34  35
ATOM     35  C   UNL     1      -0.805  11.448  22.263  0.00  0.00    +0.000 C 
ATOM     36  C   UNL     1      -0.734  10.158  23.068  0.00  0.00    +0.000 C 
ENDBRANCH  34  35
ENDBRANCH  33  34
ENDBRANCH  26  28
ENDBRANCH  23  24
ENDBRANCH  10  23
TORSDOF 11
ENDMDL
MODEL 2
REMARK VINA RESULT:      -7.6      0.932      1.033
REMARK  Name = 
REMARK  13 active torsions:
REMARK  status: ('A' for Active; 'I' for Inactive)
REMARK    1  A    between atoms: C_1  and  C_2
REMARK    2  A    between atoms: C_2  and  C_3
REMARK    3  A    between atoms: C_3  and  C_4
REMARK    4  A    between atoms: C_4  and  N_5
REMARK    5  A    between atoms: C_6  and  C_8
REMARK    6  A    between atoms: C_8  and  C_9
REMARK    7  A    between atoms: C_9  and  N_10
REMARK    8  A    between atoms: N_19  and  C_20
REMARK    9  A    between atoms: C_20  and  C_21
REMARK   10  A    between atoms: N_23  and  C_24
REMARK   11  A    between atoms: C_29  and  O_30
REMARK   12  A    between atoms: O_30  and  C_31
REMARK   13  A    between atoms: C_31  and  C_32
REMARK                            x       y       z     vdW  Elec       q    Type
REMARK                         _______ _______ _______ _____ _____    ______ ____
ROOT
ATOM      1  N   UNL     1       3.745   6.201  17.690  0.00  0.00    +0.000 N 
ATOM      2  C   UNL     1       3.323   4.884  17.561  0.00  0.00    +0.000 A 
ATOM      3  O   UNL     1       3.610   4.153  16.618  0.00  0.00    +0.000 OA
ATOM      4  C   UNL     1       2.461   4.361  18.636  0.00  0.00    +0.000 A 
ATOM      5  C   UNL     1       1.989   3.041  18.562  0.00  0.00    +0.000 A 
ATOM      6  C   UNL     1       1.151   2.546  19.555  0.00  0.00    +0.000 A 
ATOM      7  C   UNL     1       0.819   3.354  20.637  0.00  0.00    +0.000 A 
ATOM      8  C   UNL     1       1.327   4.655  20.728  0.00  0.00    +0.000 A 
ATOM      9  C   UNL     1       2.128   5.189  19.708  0.00  0.00    +0.000 A 
ATOM     10  N   UNL     1       2.530   6.553  19.678  0.00  0.00    +0.000 N 
ATOM     11  C   UNL     1       3.122   7.097  18.548  0.00  0.00    +0.000 A 
ATOM     12  O   UNL     1       3.134   8.315  18.358  0.00  0.00    +0.000 OA
ENDROOT
BRANCH   1  13
ATOM     13  C   UNL     1       4.614   6.736  16.634  0.00  0.00    +0.000 C 
BRANCH  13  14
ATOM     14  C   UNL     1       6.103   6.664  16.970  0.00  0.00    +0.000 C 
BRANCH  14  16
ATOM     15  N   UNL     1       6.400   5.592  14.841  0.00  0.00    +0.000 N 
ATOM     16  C   UNL     1       6.794   5.593  16.161  0.00  0.00    +0.000 C 
ATOM     17  O   UNL     1       7.609   4.810  16.627  0.00  0.00    +0.000 OA
ATOM     18  H   UNL     1       5.680   6.229  14.530  0.00  0.00    +0.000 HD
BRANCH  15  19
ATOM     19  C   UNL     1       6.894   4.600  13.910  0.00  0.00    +0.000 C 
BRANCH  19  20
ATOM     20  C   UNL     1       5.846   3.537  13.583  0.00  0.00    +0.000 C 
BRANCH  20  22
ATOM     21  C   UNL     1       5.864   2.021  11.560  0.00  0.00    +0.000 C 
ATOM     22  C   UNL     1       5.644   3.435  12.071  0.00  0.00    +0.000 C 
ENDBRANCH  20  22
ENDBRANCH  19  20
ENDBRANCH  15  19
ENDBRANCH  14  16
ENDBRANCH  13  14
ENDBRANCH   1  13
BRANCH  10  23
ATOM     23  C   UNL     1       2.154   7.480  20.748  0.00  0.00    +0.000 C 
BRANCH  23  24
ATOM     24  C   UNL     1       0.845   8.230  20.498  0.00  0.00    +0.000 C 
ATOM     25  O   UNL     1      -0.228   7.834  20.934  0.00  0.00    +0.000 OA
ATOM     26  N   UNL     1       1.009   9.421  19.819  0.00  0.00    +0.000 N 
ATOM     27  H   UNL     1       1.850   9.543  19.261  0.00  0.00    +0.000 HD
BRANCH  26  28
ATOM     28  C   UNL     1      -0.113  10.148  19.341  0.00  0.00    +0.000 A 
ATOM     29  C   UNL     1      -0.560   9.849  18.041  0.00  0.00    +0.000 A 
ATOM     30  C   UNL     1      -1.692  10.465  17.513  0.00  0.00    +0.000 A 
ATOM     31  C   UNL     1      -2.400  11.373  18.285  0.00  0.00    +0.000 A 
ATOM     32  C   UNL     1      -1.962  11.681  19.576  0.00  0.00    +0.000 A 
ATOM     33  C   UNL     1      -0.798  11.100  20.107  0.00  0.00    +0.000 A 
BRANCH  33  34
ATOM     34  O   UNL     1      -0.561  11.486  21.400  0.00  0.00    +0.000 OA
BRANCH  34  35
ATOM     35  C   UNL     1      -0.434  12.874  21.668  0.00  0.00    +0.000 C 
ATOM     36  C   UNL     1      -1.148  13.172  22.980  0.00  0.00    +0.000 C 
ENDBRANCH  34  35
ENDBRANCH  33  34
ENDBRANCH  26  28
ENDBRANCH  23  24
ENDBRANCH  10  23
TORSDOF 11
ENDMDL
MODEL 3
REMARK VINA RESULT:      -7.5      2.039      2.597
REMARK  Name = 
REMARK  13 active torsions:
REMARK  status: ('A' for Active; 'I' for Inactive)
REMARK    1  A    between atoms: C_1  and  C_2
REMARK    2  A    between atoms: C_2  and  C_3
REMARK    3  A    between atoms: C_3  and  C_4
REMARK    4  A    between atoms: C_4  and  N_5
REMARK    5  A    between atoms: C_6  and  C_8
REMARK    6  A    between atoms: C_8  and  C_9
REMARK    7  A    between atoms: C_9  and  N_10
REMARK    8  A    between atoms: N_19  and  C_20
REMARK    9  A    between atoms: C_20  and  C_21
REMARK   10  A    between atoms: N_23  and  C_24
REMARK   11  A    between atoms: C_29  and  O_30
REMARK   12  A    between atoms: O_30  and  C_31
REMARK   13  A    between atoms: C_31  and  C_32
REMARK                            x       y       z     vdW  Elec       q    Type
REMARK                         _______ _______ _______ _____ _____    ______ ____
ROOT
ATOM      1  N   UNL     1       5.348   5.712  18.151  0.00  0.00    +0.000 N 
ATOM      2  C   UNL     1       5.059   4.636  18.981  0.00  0.00    +0.000 A 
ATOM      3  O   UNL     1       5.881   3.801  19.346  0.00  0.00    +0.000 OA
ATOM      4  C   UNL     1       3.660   4.505  19.425  0.00  0.00    +0.000 A 
ATOM      5  C   UNL     1       3.297   3.433  20.256  0.00  0.00    +0.000 A 
ATOM      6  C   UNL     1       1.974   3.283  20.657  0.00  0.00    +0.000 A 
ATOM      7  C   UNL     1       1.027   4.221  20.261  0.00  0.00    +0.000 A 
ATOM      8  C   UNL     1       1.402   5.312  19.468  0.00  0.00    +0.000 A 
ATOM      9  C   UNL     1       2.720   5.449  19.010  0.00  0.00    +0.000 A 
ATOM     10  N   UNL     1       3.110   6.445  18.072  0.00  0.00    +0.000 N 
ATOM     11  C   UNL     1       4.359   6.408  17.470  0.00  0.00    +0.000 A 
ATOM     12  O   UNL     1       4.577   7.009  16.416  0.00  0.00    +0.000 OA
ENDROOT
BRANCH   1  13
ATOM     13  C   UNL     1       6.740   5.865  17.708  0.00  0.00    +0.000 C 
BRANCH  13  14
ATOM     14  C   UNL     1       7.255   4.684  16.886  0.00  0.00    +0.000 C 
BRANCH  14  16
ATOM     15  N   UNL     1       5.831   4.234  15.004  0.00  0.00    +0.000 N 
ATOM     16  C   UNL     1       6.976   4.881  15.415  0.00  0.00    +0.000 C 
ATOM     17  O   UNL     1       7.690   5.538  14.671  0.00  0.00    +0.000 OA
ATOM     18  H   UNL     1       5.315   3.660  15.657  0.00  0.00    +0.000 HD
BRANCH  15  19
ATOM     19  C   UNL     1       5.421   4.241  13.616  0.00  0.00    +0.000 C 
BRANCH  19  20
ATOM     20  C   UNL     1       6.339   3.397  12.734  0.00  0.00    +0.000 C 
BRANCH  20  22
ATOM     21  C   UNL     1       4.218   3.283  11.363  0.00  0.00    +0.000 C 
ATOM     22  C   UNL     1       5.519   2.588  11.730  0.00  0.00    +0.000 C 
ENDBRANCH  20  22
ENDBRANCH  19  20
ENDBRANCH  15  19
ENDBRANCH  14  16
ENDBRANCH  13  14
ENDBRANCH   1  13
BRANCH  10  23
ATOM     23  C   UNL     1       2.149   7.422  17.556  0.00  0.00    +0.000 C 
BRANCH  23  24
ATOM     24  C   UNL     1       1.816   8.552  18.530  0.00  0.00    +0.000 C 
ATOM     25  O   UNL     1       2.156   8.523  19.706  0.00  0.00    +0.000 OA
ATOM     26  N   UNL     1       1.181   9.625  17.938  0.00  0.00    +0.000 N 
ATOM     27  H   UNL     1       0.693   9.469  17.060  0.00  0.00    +0.000 HD
BRANCH  26  28
ATOM     28  C   UNL     1       0.633  10.673  18.724  0.00  0.00    +0.000 A 
ATOM     29  C   UNL     1      -0.533  10.381  19.455  0.00  0.00    +0.000 A 
ATOM     30  C   UNL     1      -1.102  11.326  20.304  0.00  0.00    +0.000 A 
ATOM     31  C   UNL     1      -0.503  12.568  20.445  0.00  0.00    +0.000 A 
ATOM     32  C   UNL     1       0.653  12.871  19.721  0.00  0.00    +0.000 A 
ATOM     33  C   UNL     1       1.216  11.943  18.829  0.00  0.00    +0.000 A 
BRANCH  33  34
ATOM     34  O   UNL     1       2.371  12.403  18.252  0.00  0.00    +0.000 OA
BRANCH  34  35
ATOM     35  C   UNL     1       3.023  13.510  18.855  0.00  0.00    +0.000 C 
ATOM     36  C   UNL     1       3.184  14.598  17.803  0.00  0.00    +0.000 C 
ENDBRANCH  34  35
ENDBRANCH  33  34
ENDBRANCH  26  28
ENDBRANCH  23  24
ENDBRANCH  10  23
TORSDOF 11
ENDMDL
MODEL 4
REMARK VINA RESULT:      -7.5      1.896      2.478
REMARK  Name = 
REMARK  13 active torsions:
REMARK  status: ('A' for Active; 'I' for Inactive)
REMARK    1  A    between atoms: C_1  and  C_2
REMARK    2  A    between atoms: C_2  and  C_3
REMARK    3  A    between atoms: C_3  and  C_4
REMARK    4  A    between atoms: C_4  and  N_5
REMARK    5  A    between atoms: C_6  and  C_8
REMARK    6  A    between atoms: C_8  and  C_9
REMARK    7  A    between atoms: C_9  and  N_10
REMARK    8  A    between atoms: N_19  and  C_20
REMARK    9  A    between atoms: C_20  and  C_21
REMARK   10  A    between atoms: N_23  and  C_24
REMARK   11  A    between atoms: C_29  and  O_30
REMARK   12  A    between atoms: O_30  and  C_31
REMARK   13  A    between atoms: C_31  and  C_32
REMARK                            x       y       z     vdW  Elec       q    Type
REMARK                         _______ _______ _______ _____ _____    ______ ____
ROOT
ATOM      1  N   UNL     1       5.187   5.408  18.860  0.00  0.00    +0.000 N 
ATOM      2  C   UNL     1       4.850   4.235  19.524  0.00  0.00    +0.000 A 
ATOM      3  O   UNL     1       5.665   3.440  19.982  0.00  0.00    +0.000 OA
ATOM      4  C   UNL     1       3.412   3.945  19.660  0.00  0.00    +0.000 A 
ATOM      5  C   UNL     1       3.003   2.769  20.310  0.00  0.00    +0.000 A 
ATOM      6  C   UNL     1       1.650   2.470  20.417  0.00  0.00    +0.000 A 
ATOM      7  C   UNL     1       0.709   3.361  19.912  0.00  0.00    +0.000 A 
ATOM      8  C   UNL     1       1.120   4.552  19.303  0.00  0.00    +0.000 A 
ATOM      9  C   UNL     1       2.481   4.843  19.137  0.00  0.00    +0.000 A 
ATOM     10  N   UNL     1       2.945   5.956  18.382  0.00  0.00    +0.000 N 
ATOM     11  C   UNL     1       4.285   6.083  18.048  0.00  0.00    +0.000 A 
ATOM     12  O   UNL     1       4.644   6.801  17.113  0.00  0.00    +0.000 OA
ENDROOT
BRANCH   1  13
ATOM     13  C   UNL     1       6.615   5.719  18.725  0.00  0.00    +0.000 C 
BRANCH  13  14
ATOM     14  C   UNL     1       7.364   4.773  17.787  0.00  0.00    +0.000 C 
BRANCH  14  16
ATOM     15  N   UNL     1       6.804   4.345  15.490  0.00  0.00    +0.000 N 
ATOM     16  C   UNL     1       7.326   5.274  16.364  0.00  0.00    +0.000 C 
ATOM     17  O   UNL     1       7.721   6.380  16.023  0.00  0.00    +0.000 OA
ATOM     18  H   UNL     1       6.548   3.427  15.827  0.00  0.00    +0.000 HD
BRANCH  15  19
ATOM     19  C   UNL     1       6.742   4.602  14.067  0.00  0.00    +0.000 C 
BRANCH  19  20
ATOM     20  C   UNL     1       5.723   3.711  13.360  0.00  0.00    +0.000 C 
BRANCH  20  22
ATOM     21  C   UNL     1       5.660   1.973  11.525  0.00  0.00    +0.000 C 
ATOM     22  C   UNL     1       6.240   3.302  11.981  0.00  0.00    +0.000 C 
ENDBRANCH  20  22
ENDBRANCH  19  20
ENDBRANCH  15  19
ENDBRANCH  14  16
ENDBRANCH  13  14
ENDBRANCH   1  13
BRANCH  10  23
ATOM     23  C   UNL     1       2.009   6.895  17.759  0.00  0.00    +0.000 C 
BRANCH  23  24
ATOM     24  C   UNL     1       1.850   8.216  18.513  0.00  0.00    +0.000 C 
ATOM     25  O   UNL     1       1.976   8.295  19.728  0.00  0.00    +0.000 OA
ATOM     26  N   UNL     1       1.639   9.303  17.687  0.00  0.00    +0.000 N 
ATOM     27  H   UNL     1       1.274   9.132  16.754  0.00  0.00    +0.000 HD
BRANCH  26  28
ATOM     28  C   UNL     1       1.283  10.568  18.225  0.00  0.00    +0.000 A 
ATOM     29  C   UNL     1       2.311  11.520  18.351  0.00  0.00    +0.000 A 
ATOM     30  C   UNL     1       2.043  12.807  18.807  0.00  0.00    +0.000 A 
ATOM     31  C   UNL     1       0.742  13.164  19.125  0.00  0.00    +0.000 A 
ATOM     32  C   UNL     1      -0.286  12.226  19.008  0.00  0.00    +0.000 A 
ATOM     33  C   UNL     1      -0.026  10.910  18.589  0.00  0.00    +0.000 A 
BRANCH  33  34
ATOM     34  O   UNL     1      -1.165  10.155  18.489  0.00  0.00    +0.000 OA
BRANCH  34  35
ATOM     35  C   UNL     1      -2.400  10.832  18.308  0.00  0.00    +0.000 C 
ATOM     36  C   UNL     1      -3.365   9.882  17.614  0.00  0.00    +0.000 C 
ENDBRANCH  34  35
ENDBRANCH  33  34
ENDBRANCH  26  28
ENDBRANCH  23  24
ENDBRANCH  10  23
TORSDOF 11
ENDMDL
MODEL 5
REMARK VINA RESULT:      -7.4      2.105      3.632
REMARK  Name = 
REMARK  13 active torsions:
REMARK  status: ('A' for Active; 'I' for Inactive)
REMARK    1  A    between atoms: C_1  and  C_2
REMARK    2  A    between atoms: C_2  and  C_3
REMARK    3  A    between atoms: C_3  and  C_4
REMARK    4  A    between atoms: C_4  and  N_5
REMARK    5  A    between atoms: C_6  and  C_8
REMARK    6  A    between atoms: C_8  and  C_9
REMARK    7  A    between atoms: C_9  and  N_10
REMARK    8  A    between atoms: N_19  and  C_20
REMARK    9  A    between atoms: C_20  and  C_21
REMARK   10  A    between atoms: N_23  and  C_24
REMARK   11  A    between atoms: C_29  and  O_30
REMARK   12  A    between atoms: O_30  and  C_31
REMARK   13  A    between atoms: C_31  and  C_32
REMARK                            x       y       z     vdW  Elec       q    Type
REMARK                         _______ _______ _______ _____ _____    ______ ____
ROOT
ATOM      1  N   UNL     1       3.871   5.806  17.403  0.00  0.00    +0.000 N 
ATOM      2  C   UNL     1       3.358   4.515  17.409  0.00  0.00    +0.000 A 
ATOM      3  O   UNL     1       3.539   3.693  16.516  0.00  0.00    +0.000 OA
ATOM      4  C   UNL     1       2.532   4.140  18.571  0.00  0.00    +0.000 A 
ATOM      5  C   UNL     1       1.972   2.854  18.633  0.00  0.00    +0.000 A 
ATOM      6  C   UNL     1       1.167   2.499  19.710  0.00  0.00    +0.000 A 
ATOM      7  C   UNL     1       0.953   3.412  20.737  0.00  0.00    +0.000 A 
ATOM      8  C   UNL     1       1.548   4.678  20.690  0.00  0.00    +0.000 A 
ATOM      9  C   UNL     1       2.318   5.072  19.586  0.00  0.00    +0.000 A 
ATOM     10  N   UNL     1       2.804   6.399  19.420  0.00  0.00    +0.000 N 
ATOM     11  C   UNL     1       3.360   6.808  18.216  0.00  0.00    +0.000 A 
ATOM     12  O   UNL     1       3.438   8.003  17.925  0.00  0.00    +0.000 OA
ENDROOT
BRANCH   1  13
ATOM     13  C   UNL     1       4.706   6.193  16.259  0.00  0.00    +0.000 C 
BRANCH  13  14
ATOM     14  C   UNL     1       6.038   5.446  16.192  0.00  0.00    +0.000 C 
BRANCH  14  16
ATOM     15  N   UNL     1       7.195   7.271  17.241  0.00  0.00    +0.000 N 
ATOM     16  C   UNL     1       6.979   5.911  17.276  0.00  0.00    +0.000 C 
ATOM     17  O   UNL     1       7.497   5.162  18.093  0.00  0.00    +0.000 OA
ATOM     18  H   UNL     1       6.781   7.827  16.505  0.00  0.00    +0.000 HD
BRANCH  15  19
ATOM     19  C   UNL     1       8.119   7.910  18.154  0.00  0.00    +0.000 C 
BRANCH  19  20
ATOM     20  C   UNL     1       8.259   9.407  17.886  0.00  0.00    +0.000 C 
BRANCH  20  22
ATOM     21  C   UNL     1       9.922  11.232  18.429  0.00  0.00    +0.000 C 
ATOM     22  C   UNL     1       9.112  10.065  18.970  0.00  0.00    +0.000 C 
ENDBRANCH  20  22
ENDBRANCH  19  20
ENDBRANCH  15  19
ENDBRANCH  14  16
ENDBRANCH  13  14
ENDBRANCH   1  13
BRANCH  10  23
ATOM     23  C   UNL     1       2.555   7.432  20.427  0.00  0.00    +0.000 C 
BRANCH  23  24
ATOM     24  C   UNL     1       1.222   8.163  20.261  0.00  0.00    +0.000 C 
ATOM     25  O   UNL     1       0.191   7.772  20.792  0.00  0.00    +0.000 OA
ATOM     26  N   UNL     1       1.320   9.334  19.535  0.00  0.00    +0.000 N 
ATOM     27  H   UNL     1       2.112   9.446  18.908  0.00  0.00    +0.000 HD
BRANCH  26  28
ATOM     28  C   UNL     1       0.155  10.037  19.126  0.00  0.00    +0.000 A 
ATOM     29  C   UNL     1      -0.415   9.666  17.895  0.00  0.00    +0.000 A 
ATOM     30  C   UNL     1      -1.593  10.255  17.445  0.00  0.00    +0.000 A 
ATOM     31  C   UNL     1      -2.225  11.208  18.228  0.00  0.00    +0.000 A 
ATOM     32  C   UNL     1      -1.665  11.588  19.451  0.00  0.00    +0.000 A 
ATOM     33  C   UNL     1      -0.455  11.033  19.900  0.00  0.00    +0.000 A 
BRANCH  33  34
ATOM     34  O   UNL     1      -0.095  11.492  21.140  0.00  0.00    +0.000 OA
BRANCH  34  35
ATOM     35  C   UNL     1      -0.571  10.788  22.276  0.00  0.00    +0.000 C 
ATOM     36  C   UNL     1      -1.578  11.673  22.996  0.00  0.00    +0.000 C 
ENDBRANCH  34  35
ENDBRANCH  33  34
ENDBRANCH  26  28
ENDBRANCH  23  24
ENDBRANCH  10  23
TORSDOF 11
ENDMDL
MODEL 6
REMARK VINA RESULT:      -7.3      3.471      5.668
REMARK  Name = 
REMARK  13 active torsions:
REMARK  status: ('A' for Active; 'I' for Inactive)
REMARK    1  A    between atoms: C_1  and  C_2
REMARK    2  A    between atoms: C_2  and  C_3
REMARK    3  A    between atoms: C_3  and  C_4
REMARK    4  A    between atoms: C_4  and  N_5
REMARK    5  A    between atoms: C_6  and  C_8
REMARK    6  A    between atoms: C_8  and  C_9
REMARK    7  A    between atoms: C_9  and  N_10
REMARK    8  A    between atoms: N_19  and  C_20
REMARK    9  A    between atoms: C_20  and  C_21
REMARK   10  A    between atoms: N_23  and  C_24
REMARK   11  A    between atoms: C_29  and  O_30
REMARK   12  A    between atoms: O_30  and  C_31
REMARK   13  A    between atoms: C_31  and  C_32
REMARK                            x       y       z     vdW  Elec       q    Type
REMARK                         _______ _______ _______ _____ _____    ______ ____
ROOT
ATOM      1  N   UNL     1       2.093   8.180  19.259  0.00  0.00    +0.000 N 
ATOM      2  C   UNL     1       1.499   7.834  20.467  0.00  0.00    +0.000 A 
ATOM      3  O   UNL     1       1.506   6.703  20.943  0.00  0.00    +0.000 OA
ATOM      4  C   UNL     1       0.809   8.913  21.195  0.00  0.00    +0.000 A 
ATOM      5  C   UNL     1       0.178   8.628  22.416  0.00  0.00    +0.000 A 
ATOM      6  C   UNL     1      -0.502   9.632  23.097  0.00  0.00    +0.000 A 
ATOM      7  C   UNL     1      -0.517  10.923  22.579  0.00  0.00    +0.000 A 
ATOM      8  C   UNL     1       0.150  11.211  21.383  0.00  0.00    +0.000 A 
ATOM      9  C   UNL     1       0.794  10.200  20.656  0.00  0.00    +0.000 A 
ATOM     10  N   UNL     1       1.342  10.412  19.360  0.00  0.00    +0.000 N 
ATOM     11  C   UNL     1       1.762   9.345  18.580  0.00  0.00    +0.000 A 
ATOM     12  O   UNL     1       1.881   9.456  17.358  0.00  0.00    +0.000 OA
ENDROOT
BRANCH   1  13
ATOM     13  C   UNL     1       2.795   7.120  18.526  0.00  0.00    +0.000 C 
BRANCH  13  14
ATOM     14  C   UNL     1       1.858   6.132  17.829  0.00  0.00    +0.000 C 
BRANCH  14  16
ATOM     15  N   UNL     1       3.302   4.562  18.934  0.00  0.00    +0.000 N 
ATOM     16  C   UNL     1       2.394   4.723  17.911  0.00  0.00    +0.000 C 
ATOM     17  O   UNL     1       2.063   3.826  17.149  0.00  0.00    +0.000 OA
ATOM     18  H   UNL     1       3.576   5.358  19.494  0.00  0.00    +0.000 HD
BRANCH  15  19
ATOM     19  C   UNL     1       3.984   3.302  19.143  0.00  0.00    +0.000 C 
BRANCH  19  20
ATOM     20  C   UNL     1       3.522   2.595  20.416  0.00  0.00    +0.000 C 
BRANCH  20  22
ATOM     21  C   UNL     1       1.309   2.892  21.600  0.00  0.00    +0.000 C 
ATOM     22  C   UNL     1       2.015   2.346  20.370  0.00  0.00    +0.000 C 
ENDBRANCH  20  22
ENDBRANCH  19  20
ENDBRANCH  15  19
ENDBRANCH  14  16
ENDBRANCH  13  14
ENDBRANCH   1  13
BRANCH  10  23
ATOM     23  C   UNL     1       1.296  11.729  18.722  0.00  0.00    +0.000 C 
BRANCH  23  24
ATOM     24  C   UNL     1      -0.096  12.153  18.252  0.00  0.00    +0.000 C 
ATOM     25  O   UNL     1      -0.411  13.328  18.119  0.00  0.00    +0.000 OA
ATOM     26  N   UNL     1      -0.914  11.092  17.918  0.00  0.00    +0.000 N 
ATOM     27  H   UNL     1      -0.699  10.178  18.308  0.00  0.00    +0.000 HD
BRANCH  26  28
ATOM     28  C   UNL     1      -2.293  11.293  17.645  0.00  0.00    +0.000 A 
ATOM     29  C   UNL     1      -2.746  10.951  16.358  0.00  0.00    +0.000 A 
ATOM     30  C   UNL     1      -4.092  11.053  16.021  0.00  0.00    +0.000 A 
ATOM     31  C   UNL     1      -5.005  11.482  16.972  0.00  0.00    +0.000 A 
ATOM     32  C   UNL     1      -4.567  11.829  18.252  0.00  0.00    +0.000 A 
ATOM     33  C   UNL     1      -3.205  11.771  18.595  0.00  0.00    +0.000 A 
BRANCH  33  34
ATOM     34  O   UNL     1      -2.979  12.101  19.906  0.00  0.00    +0.000 OA
BRANCH  34  35
ATOM     35  C   UNL     1      -3.929  12.929  20.558  0.00  0.00    +0.000 C 
ATOM     36  C   UNL     1      -3.832  12.674  22.056  0.00  0.00    +0.000 C 
ENDBRANCH  34  35
ENDBRANCH  33  34
ENDBRANCH  26  28
ENDBRANCH  23  24
ENDBRANCH  10  23
TORSDOF 11
ENDMDL
MODEL 7
REMARK VINA RESULT:      -7.2      2.112      2.675
REMARK  Name = 
REMARK  13 active torsions:
REMARK  status: ('A' for Active; 'I' for Inactive)
REMARK    1  A    between atoms: C_1  and  C_2
REMARK    2  A    between atoms: C_2  and  C_3
REMARK    3  A    between atoms: C_3  and  C_4
REMARK    4  A    between atoms: C_4  and  N_5
REMARK    5  A    between atoms: C_6  and  C_8
REMARK    6  A    between atoms: C_8  and  C_9
REMARK    7  A    between atoms: C_9  and  N_10
REMARK    8  A    between atoms: N_19  and  C_20
REMARK    9  A    between atoms: C_20  and  C_21
REMARK   10  A    between atoms: N_23  and  C_24
REMARK   11  A    between atoms: C_29  and  O_30
REMARK   12  A    between atoms: O_30  and  C_31
REMARK   13  A    between atoms: C_31  and  C_32
REMARK                            x       y       z     vdW  Elec       q    Type
REMARK                         _______ _______ _______ _____ _____    ______ ____
ROOT
ATOM      1  N   UNL     1       5.314   5.573  18.866  0.00  0.00    +0.000 N 
ATOM      2  C   UNL     1       4.844   4.283  19.076  0.00  0.00    +0.000 A 
ATOM      3  O   UNL     1       5.519   3.365  19.534  0.00  0.00    +0.000 OA
ATOM      4  C   UNL     1       3.443   4.023  18.700  0.00  0.00    +0.000 A 
ATOM      5  C   UNL     1       2.909   2.737  18.875  0.00  0.00    +0.000 A 
ATOM      6  C   UNL     1       1.598   2.472  18.496  0.00  0.00    +0.000 A 
ATOM      7  C   UNL     1       0.813   3.499  17.981  0.00  0.00    +0.000 A 
ATOM      8  C   UNL     1       1.337   4.790  17.848  0.00  0.00    +0.000 A 
ATOM      9  C   UNL     1       2.674   5.061  18.174  0.00  0.00    +0.000 A 
ATOM     10  N   UNL     1       3.294   6.312  17.903  0.00  0.00    +0.000 N 
ATOM     11  C   UNL     1       4.667   6.469  18.025  0.00  0.00    +0.000 A 
ATOM     12  O   UNL     1       5.257   7.389  17.456  0.00  0.00    +0.000 OA
ENDROOT
BRANCH   1  13
ATOM     13  C   UNL     1       6.705   5.853  19.246  0.00  0.00    +0.000 C 
BRANCH  13  14
ATOM     14  C   UNL     1       7.585   6.287  18.074  0.00  0.00    +0.000 C 
BRANCH  14  16
ATOM     15  N   UNL     1       7.201   5.606  15.802  0.00  0.00    +0.000 N 
ATOM     16  C   UNL     1       7.678   5.201  17.030  0.00  0.00    +0.000 C 
ATOM     17  O   UNL     1       8.121   4.083  17.251  0.00  0.00    +0.000 OA
ATOM     18  H   UNL     1       6.796   6.526  15.699  0.00  0.00    +0.000 HD
BRANCH  15  19
ATOM     19  C   UNL     1       7.139   4.693  14.681  0.00  0.00    +0.000 C 
BRANCH  19  20
ATOM     20  C   UNL     1       5.702   4.376  14.269  0.00  0.00    +0.000 C 
BRANCH  20  22
ATOM     21  C   UNL     1       6.849   3.813  12.088  0.00  0.00    +0.000 C 
ATOM     22  C   UNL     1       5.688   3.501  13.016  0.00  0.00    +0.000 C 
ENDBRANCH  20  22
ENDBRANCH  19  20
ENDBRANCH  15  19
ENDBRANCH  14  16
ENDBRANCH  13  14
ENDBRANCH   1  13
BRANCH  10  23
ATOM     23  C   UNL     1       2.548   7.415  17.295  0.00  0.00    +0.000 C 
BRANCH  23  24
ATOM     24  C   UNL     1       1.925   8.383  18.301  0.00  0.00    +0.000 C 
ATOM     25  O   UNL     1       1.943   8.174  19.507  0.00  0.00    +0.000 OA
ATOM     26  N   UNL     1       1.427   9.536  17.726  0.00  0.00    +0.000 N 
ATOM     27  H   UNL     1       1.195   9.517  16.736  0.00  0.00    +0.000 HD
BRANCH  26  28
ATOM     28  C   UNL     1       0.650  10.452  18.483  0.00  0.00    +0.000 A 
ATOM     29  C   UNL     1      -0.690  10.101  18.731  0.00  0.00    +0.000 A 
ATOM     30  C   UNL     1      -1.507  10.906  19.520  0.00  0.00    +0.000 A 
ATOM     31  C   UNL     1      -0.990  12.062  20.084  0.00  0.00    +0.000 A 
ATOM     32  C   UNL     1       0.337  12.423  19.841  0.00  0.00    +0.000 A 
ATOM     33  C   UNL     1       1.163  11.643  19.014  0.00  0.00    +0.000 A 
BRANCH  33  34
ATOM     34  O   UNL     1       2.442  12.131  18.937  0.00  0.00    +0.000 OA
BRANCH  34  35
ATOM     35  C   UNL     1       2.684  13.234  18.078  0.00  0.00    +0.000 C 
ATOM     36  C   UNL     1       3.489  14.269  18.850  0.00  0.00    +0.000 C 
ENDBRANCH  34  35
ENDBRANCH  33  34
ENDBRANCH  26  28
ENDBRANCH  23  24
ENDBRANCH  10  23
TORSDOF 11
ENDMDL
MODEL 8
REMARK VINA RESULT:      -7.2      0.889      1.169
REMARK  Name = 
REMARK  13 active torsions:
REMARK  status: ('A' for Active; 'I' for Inactive)
REMARK    1  A    between atoms: C_1  and  C_2
REMARK    2  A    between atoms: C_2  and  C_3
REMARK    3  A    between atoms: C_3  and  C_4
REMARK    4  A    between atoms: C_4  and  N_5
REMARK    5  A    between atoms: C_6  and  C_8
REMARK    6  A    between atoms: C_8  and  C_9
REMARK    7  A    between atoms: C_9  and  N_10
REMARK    8  A    between atoms: N_19  and  C_20
REMARK    9  A    between atoms: C_20  and  C_21
REMARK   10  A    between atoms: N_23  and  C_24
REMARK   11  A    between atoms: C_29  and  O_30
REMARK   12  A    between atoms: O_30  and  C_31
REMARK   13  A    between atoms: C_31  and  C_32
REMARK                            x       y       z     vdW  Elec       q    Type
REMARK                         _______ _______ _______ _____ _____    ______ ____
ROOT
ATOM      1  N   UNL     1       4.046   5.577  17.217  0.00  0.00    +0.000 N 
ATOM      2  C   UNL     1       3.390   4.352  17.223  0.00  0.00    +0.000 A 
ATOM      3  O   UNL     1       3.516   3.494  16.354  0.00  0.00    +0.000 OA
ATOM      4  C   UNL     1       2.477   4.099  18.352  0.00  0.00    +0.000 A 
ATOM      5  C   UNL     1       1.774   2.885  18.412  0.00  0.00    +0.000 A 
ATOM      6  C   UNL     1       0.887   2.648  19.456  0.00  0.00    +0.000 A 
ATOM      7  C   UNL     1       0.733   3.603  20.455  0.00  0.00    +0.000 A 
ATOM      8  C   UNL     1       1.469   4.793  20.413  0.00  0.00    +0.000 A 
ATOM      9  C   UNL     1       2.326   5.072  19.339  0.00  0.00    +0.000 A 
ATOM     10  N   UNL     1       2.966   6.332  19.171  0.00  0.00    +0.000 N 
ATOM     11  C   UNL     1       3.617   6.649  17.987  0.00  0.00    +0.000 A 
ATOM     12  O   UNL     1       3.842   7.820  17.678  0.00  0.00    +0.000 OA
ENDROOT
BRANCH   1  13
ATOM     13  C   UNL     1       4.969   5.841  16.106  0.00  0.00    +0.000 C 
BRANCH  13  14
ATOM     14  C   UNL     1       6.152   4.875  16.049  0.00  0.00    +0.000 C 
BRANCH  14  16
ATOM     15  N   UNL     1       6.072   3.822  13.892  0.00  0.00    +0.000 N 
ATOM     16  C   UNL     1       6.710   4.779  14.650  0.00  0.00    +0.000 C 
ATOM     17  O   UNL     1       7.631   5.470  14.237  0.00  0.00    +0.000 OA
ATOM     18  H   UNL     1       5.355   3.245  14.309  0.00  0.00    +0.000 HD
BRANCH  15  19
ATOM     19  C   UNL     1       6.500   3.525  12.541  0.00  0.00    +0.000 C 
BRANCH  19  20
ATOM     20  C   UNL     1       5.455   2.726  11.764  0.00  0.00    +0.000 C 
BRANCH  20  22
ATOM     21  C   UNL     1       3.456   3.322  10.336  0.00  0.00    +0.000 C 
ATOM     22  C   UNL     1       4.144   3.506  11.678  0.00  0.00    +0.000 C 
ENDBRANCH  20  22
ENDBRANCH  19  20
ENDBRANCH  15  19
ENDBRANCH  14  16
ENDBRANCH  13  14
ENDBRANCH   1  13
BRANCH  10  23
ATOM     23  C   UNL     1       2.791   7.410  20.147  0.00  0.00    +0.000 C 
BRANCH  23  24
ATOM     24  C   UNL     1       1.507   8.220  19.965  0.00  0.00    +0.000 C 
ATOM     25  O   UNL     1       0.511   8.029  20.651  0.00  0.00    +0.000 OA
ATOM     26  N   UNL     1       1.615   9.227  19.026  0.00  0.00    +0.000 N 
ATOM     27  H   UNL     1       2.344   9.149  18.321  0.00  0.00    +0.000 HD
BRANCH  26  28
ATOM     28  C   UNL     1       0.471   9.950  18.597  0.00  0.00    +0.000 A 
ATOM     29  C   UNL     1      -0.353   9.332  17.638  0.00  0.00    +0.000 A 
ATOM     30  C   UNL     1      -1.530   9.937  17.208  0.00  0.00    +0.000 A 
ATOM     31  C   UNL     1      -1.907  11.159  17.744  0.00  0.00    +0.000 A 
ATOM     32  C   UNL     1      -1.094  11.784  18.693  0.00  0.00    +0.000 A 
ATOM     33  C   UNL     1       0.117  11.206  19.107  0.00  0.00    +0.000 A 
BRANCH  33  34
ATOM     34  O   UNL     1       0.746  11.942  20.077  0.00  0.00    +0.000 OA
BRANCH  34  35
ATOM     35  C   UNL     1       0.173  13.185  20.447  0.00  0.00    +0.000 C 
ATOM     36  C   UNL     1      -0.217  13.110  21.917  0.00  0.00    +0.000 C 
ENDBRANCH  34  35
ENDBRANCH  33  34
ENDBRANCH  26  28
ENDBRANCH  23  24
ENDBRANCH  10  23
TORSDOF 11
ENDMDL
MODEL 9
REMARK VINA RESULT:      -7.2      1.341      1.596
REMARK  Name = 
REMARK  13 active torsions:
REMARK  status: ('A' for Active; 'I' for Inactive)
REMARK    1  A    between atoms: C_1  and  C_2
REMARK    2  A    between atoms: C_2  and  C_3
REMARK    3  A    between atoms: C_3  and  C_4
REMARK    4  A    between atoms: C_4  and  N_5
REMARK    5  A    between atoms: C_6  and  C_8
REMARK    6  A    between atoms: C_8  and  C_9
REMARK    7  A    between atoms: C_9  and  N_10
REMARK    8  A    between atoms: N_19  and  C_20
REMARK    9  A    between atoms: C_20  and  C_21
REMARK   10  A    between atoms: N_23  and  C_24
REMARK   11  A    between atoms: C_29  and  O_30
REMARK   12  A    between atoms: O_30  and  C_31
REMARK   13  A    between atoms: C_31  and  C_32
REMARK                            x       y       z     vdW  Elec       q    Type
REMARK                         _______ _______ _______ _____ _____    ______ ____
ROOT
ATOM      1  N   UNL     1       3.870   6.351  17.641  0.00  0.00    +0.000 N 
ATOM      2  C   UNL     1       3.488   5.022  17.507  0.00  0.00    +0.000 A 
ATOM      3  O   UNL     1       3.890   4.271  16.623  0.00  0.00    +0.000 OA
ATOM      4  C   UNL     1       2.523   4.512  18.497  0.00  0.00    +0.000 A 
ATOM      5  C   UNL     1       2.085   3.181  18.411  0.00  0.00    +0.000 A 
ATOM      6  C   UNL     1       1.152   2.697  19.321  0.00  0.00    +0.000 A 
ATOM      7  C   UNL     1       0.688   3.528  20.334  0.00  0.00    +0.000 A 
ATOM      8  C   UNL     1       1.159   4.842  20.442  0.00  0.00    +0.000 A 
ATOM      9  C   UNL     1       2.059   5.362  19.500  0.00  0.00    +0.000 A 
ATOM     10  N   UNL     1       2.437   6.734  19.473  0.00  0.00    +0.000 N 
ATOM     11  C   UNL     1       3.141   7.258  18.398  0.00  0.00    +0.000 A 
ATOM     12  O   UNL     1       3.152   8.470  18.174  0.00  0.00    +0.000 OA
ENDROOT
BRANCH   1  13
ATOM     13  C   UNL     1       4.840   6.874  16.671  0.00  0.00    +0.000 C 
BRANCH  13  14
ATOM     14  C   UNL     1       6.296   6.619  17.061  0.00  0.00    +0.000 C 
BRANCH  14  16
ATOM     15  N   UNL     1       6.452   5.606  14.888  0.00  0.00    +0.000 N 
ATOM     16  C   UNL     1       6.918   5.560  16.184  0.00  0.00    +0.000 C 
ATOM     17  O   UNL     1       7.741   4.747  16.581  0.00  0.00    +0.000 OA
ATOM     18  H   UNL     1       5.730   6.267  14.637  0.00  0.00    +0.000 HD
BRANCH  15  19
ATOM     19  C   UNL     1       6.873   4.634  13.902  0.00  0.00    +0.000 C 
BRANCH  19  20
ATOM     20  C   UNL     1       5.790   3.597  13.609  0.00  0.00    +0.000 C 
BRANCH  20  22
ATOM     21  C   UNL     1       4.450   3.225  11.499  0.00  0.00    +0.000 C 
ATOM     22  C   UNL     1       5.828   3.188  12.137  0.00  0.00    +0.000 C 
ENDBRANCH  20  22
ENDBRANCH  19  20
ENDBRANCH  15  19
ENDBRANCH  14  16
ENDBRANCH  13  14
ENDBRANCH   1  13
BRANCH  10  23
ATOM     23  C   UNL     1       1.930   7.682  20.466  0.00  0.00    +0.000 C 
BRANCH  23  24
ATOM     24  C   UNL     1       1.116   8.835  19.876  0.00  0.00    +0.000 C 
ATOM     25  O   UNL     1       0.287   8.664  18.991  0.00  0.00    +0.000 OA
ATOM     26  N   UNL     1       1.346  10.048  20.493  0.00  0.00    +0.000 N 
ATOM     27  H   UNL     1       2.217  10.170  21.003  0.00  0.00    +0.000 HD
BRANCH  26  28
ATOM     28  C   UNL     1       0.821  11.252  19.953  0.00  0.00    +0.000 A 
ATOM     29  C   UNL     1       1.583  11.892  18.959  0.00  0.00    +0.000 A 
ATOM     30  C   UNL     1       1.115  13.041  18.327  0.00  0.00    +0.000 A 
ATOM     31  C   UNL     1      -0.126  13.553  18.668  0.00  0.00    +0.000 A 
ATOM     32  C   UNL     1      -0.890  12.928  19.658  0.00  0.00    +0.000 A 
ATOM     33  C   UNL     1      -0.415  11.793  20.334  0.00  0.00    +0.000 A 
BRANCH  33  34
ATOM     34  O   UNL     1      -1.325  11.296  21.230  0.00  0.00    +0.000 OA
BRANCH  34  35
ATOM     35  C   UNL     1      -1.119  11.565  22.608  0.00  0.00    +0.000 C 
ATOM     36  C   UNL     1      -2.359  12.266  23.146  0.00  0.00    +0.000 C 
ENDBRANCH  34  35
ENDBRANCH  33  34
ENDBRANCH  26  28
ENDBRANCH  23  24
ENDBRANCH  10  23
TORSDOF 11
ENDMDL
