MODEL 1
REMARK VINA RESULT:      -9.5      0.000      0.000
REMARK  Name = 
REMARK  4 active torsions:
REMARK  status: ('A' for Active; 'I' for Inactive)
REMARK    1  A    between atoms: C_2  and  C_16
REMARK    2  A    between atoms: C_6  and  C_7
REMARK    3  A    between atoms: C_10  and  O_11
REMARK    4  A    between atoms: C_16  and  C_17
REMARK                            x       y       z     vdW  Elec       q    Type
REMARK                         _______ _______ _______ _____ _____    ______ ____
ROOT
ATOM      1  O   UNL     1       1.643   5.450  20.655  0.00  0.00    +0.000 OA
ATOM      2  C   UNL     1       2.451   5.570  19.744  0.00  0.00    +0.000 C 
ATOM      3  N   UNL     1       2.717   6.672  18.966  0.00  0.00    +0.000 N 
ATOM      4  C   UNL     1       2.057   7.844  19.139  0.00  0.00    +0.000 A 
ATOM      5  N   UNL     1       1.319   8.227  20.142  0.00  0.00    +0.000 NA
ATOM      6  C   UNL     1       0.822   9.492  19.903  0.00  0.00    +0.000 A 
ATOM      7  C   UNL     1       1.183  10.038  18.685  0.00  0.00    +0.000 A 
ATOM      8  S   UNL     1       2.246   8.961  17.864  0.00  0.00    +0.000 S 
ATOM      9  H   UNL     1       3.328   6.599  18.171  0.00  0.00    +0.000 HD
ENDROOT
BRANCH   6  10
ATOM     10  C   UNL     1       0.030  10.169  20.915  0.00  0.00    +0.000 A 
ATOM     11  C   UNL     1      -0.591  11.384  20.579  0.00  0.00    +0.000 A 
ATOM     12  C   UNL     1      -1.365  12.073  21.514  0.00  0.00    +0.000 A 
ATOM     13  C   UNL     1      -1.509  11.549  22.792  0.00  0.00    +0.000 A 
ATOM     14  C   UNL     1      -0.899  10.354  23.146  0.00  0.00    +0.000 A 
ATOM     15  C   UNL     1      -0.127   9.659  22.210  0.00  0.00    +0.000 A 
BRANCH  13  16
ATOM     16  O   UNL     1      -2.248  12.193  23.740  0.00  0.00    +0.000 OA
ATOM     17  H   UNL     1      -2.831  11.543  24.166  0.00  0.00    +0.000 HD
ENDBRANCH  13  16
ENDBRANCH   6  10
BRANCH   2  18
ATOM     18  C   UNL     1       3.249   4.358  19.308  0.00  0.00    +0.000 C 
ATOM     19  C   UNL     1       3.361   3.200  20.293  0.00  0.00    +0.000 C 
ATOM     20  C   UNL     1       2.483   3.061  19.090  0.00  0.00    +0.000 C 
BRANCH  18  21
ATOM     21  C   UNL     1       4.427   4.695  18.395  0.00  0.00    +0.000 A 
ATOM     22  C   UNL     1       5.758   4.681  18.886  0.00  0.00    +0.000 A 
ATOM     23  C   UNL     1       6.865   4.729  18.029  0.00  0.00    +0.000 A 
ATOM     24  C   UNL     1       6.620   4.772  16.677  0.00  0.00    +0.000 A 
ATOM     25  C   UNL     1       5.339   4.844  16.182  0.00  0.00    +0.000 A 
ATOM     26  C   UNL     1       4.236   4.845  17.008  0.00  0.00    +0.000 A 
ATOM     27  O   UNL     1       5.304   4.841  14.822  0.00  0.00    +0.000 OA
ATOM     28  C   UNL     1       6.694   4.604  14.548  0.00  0.00    +0.000 C 
ATOM     29  F   UNL     1       6.817   3.359  14.021  0.00  0.00    +0.000 F 
ATOM     30  F   UNL     1       7.108   5.490  13.610  0.00  0.00    +0.000 F 
ATOM     31  O   UNL     1       7.554   4.705  15.692  0.00  0.00    +0.000 OA
ENDBRANCH  18  21
ENDBRANCH   2  18
TORSDOF 4
ENDMDL
MODEL 2
REMARK VINA RESULT:      -9.0      0.993      1.037
REMARK  Name = 
REMARK  4 active torsions:
REMARK  status: ('A' for Active; 'I' for Inactive)
REMARK    1  A    between atoms: C_2  and  C_16
REMARK    2  A    between atoms: C_6  and  C_7
REMARK    3  A    between atoms: C_10  and  O_11
REMARK    4  A    between atoms: C_16  and  C_17
REMARK                            x       y       z     vdW  Elec       q    Type
REMARK                         _______ _______ _______ _____ _____    ______ ____
ROOT
ATOM      1  O   UNL     1       1.337   6.414  21.004  0.00  0.00    +0.000 OA
ATOM      2  C   UNL     1       2.050   6.392  20.009  0.00  0.00    +0.000 C 
ATOM      3  N   UNL     1       2.314   7.401  19.114  0.00  0.00    +0.000 N 
ATOM      4  C   UNL     1       1.768   8.636  19.248  0.00  0.00    +0.000 A 
ATOM      5  N   UNL     1       1.174   9.159  20.283  0.00  0.00    +0.000 NA
ATOM      6  C   UNL     1       0.753  10.439  19.985  0.00  0.00    +0.000 A 
ATOM      7  C   UNL     1       1.022  10.853  18.693  0.00  0.00    +0.000 A 
ATOM      8  S   UNL     1       1.906   9.627  17.868  0.00  0.00    +0.000 S 
ATOM      9  H   UNL     1       2.829   7.213  18.271  0.00  0.00    +0.000 HD
ENDROOT
BRANCH   6  10
ATOM     10  C   UNL     1       0.128  11.259  21.008  0.00  0.00    +0.000 A 
ATOM     11  C   UNL     1       0.353  12.646  20.984  0.00  0.00    +0.000 A 
ATOM     12  C   UNL     1      -0.227  13.479  21.943  0.00  0.00    +0.000 A 
ATOM     13  C   UNL     1      -1.024  12.921  22.933  0.00  0.00    +0.000 A 
ATOM     14  C   UNL     1      -1.253  11.553  22.977  0.00  0.00    +0.000 A 
ATOM     15  C   UNL     1      -0.678  10.716  22.016  0.00  0.00    +0.000 A 
BRANCH  13  16
ATOM     16  O   UNL     1      -1.601  13.695  23.896  0.00  0.00    +0.000 OA
ATOM     17  H   UNL     1      -2.465  13.997  23.567  0.00  0.00    +0.000 HD
ENDBRANCH  13  16
ENDBRANCH   6  10
BRANCH   2  18
ATOM     18  C   UNL     1       2.702   5.086  19.604  0.00  0.00    +0.000 C 
ATOM     19  C   UNL     1       2.582   3.913  20.569  0.00  0.00    +0.000 C 
ATOM     20  C   UNL     1       1.781   3.910  19.307  0.00  0.00    +0.000 C 
BRANCH  18  21
ATOM     21  C   UNL     1       3.976   5.265  18.781  0.00  0.00    +0.000 A 
ATOM     22  C   UNL     1       5.252   5.263  19.402  0.00  0.00    +0.000 A 
ATOM     23  C   UNL     1       6.437   5.166  18.662  0.00  0.00    +0.000 A 
ATOM     24  C   UNL     1       6.325   5.051  17.296  0.00  0.00    +0.000 A 
ATOM     25  C   UNL     1       5.103   5.107  16.669  0.00  0.00    +0.000 A 
ATOM     26  C   UNL     1       3.926   5.249  17.373  0.00  0.00    +0.000 A 
ATOM     27  O   UNL     1       5.198   4.939  15.322  0.00  0.00    +0.000 OA
ATOM     28  C   UNL     1       6.595   4.620  15.220  0.00  0.00    +0.000 C 
ATOM     29  F   UNL     1       6.708   3.316  14.861  0.00  0.00    +0.000 F 
ATOM     30  F   UNL     1       7.139   5.368  14.231  0.00  0.00    +0.000 F 
ATOM     31  O   UNL     1       7.345   4.830  16.425  0.00  0.00    +0.000 OA
ENDBRANCH  18  21
ENDBRANCH   2  18
TORSDOF 4
ENDMDL
MODEL 3
REMARK VINA RESULT:      -9.0      1.683      2.347
REMARK  Name = 
REMARK  4 active torsions:
REMARK  status: ('A' for Active; 'I' for Inactive)
REMARK    1  A    between atoms: C_2  and  C_16
REMARK    2  A    between atoms: C_6  and  C_7
REMARK    3  A    between atoms: C_10  and  O_11
REMARK    4  A    between atoms: C_16  and  C_17
REMARK                            x       y       z     vdW  Elec       q    Type
REMARK                         _______ _______ _______ _____ _____    ______ ____
ROOT
ATOM      1  O   UNL     1       0.881   6.004  21.146  0.00  0.00    +0.000 OA
ATOM      2  C   UNL     1       1.656   5.699  20.249  0.00  0.00    +0.000 C 
ATOM      3  N   UNL     1       2.202   6.497  19.273  0.00  0.00    +0.000 N 
ATOM      4  C   UNL     1       1.919   7.821  19.191  0.00  0.00    +0.000 A 
ATOM      5  N   UNL     1       1.362   8.594  20.080  0.00  0.00    +0.000 NA
ATOM      6  C   UNL     1       1.248   9.876  19.581  0.00  0.00    +0.000 A 
ATOM      7  C   UNL     1       1.708  10.039  18.287  0.00  0.00    +0.000 A 
ATOM      8  S   UNL     1       2.380   8.558  17.724  0.00  0.00    +0.000 S 
ATOM      9  H   UNL     1       2.736   6.092  18.523  0.00  0.00    +0.000 HD
ENDROOT
BRANCH   6  10
ATOM     10  C   UNL     1       0.724  10.941  20.418  0.00  0.00    +0.000 A 
ATOM     11  C   UNL     1      -0.152  10.603  21.464  0.00  0.00    +0.000 A 
ATOM     12  C   UNL     1      -0.680  11.589  22.299  0.00  0.00    +0.000 A 
ATOM     13  C   UNL     1      -0.340  12.917  22.079  0.00  0.00    +0.000 A 
ATOM     14  C   UNL     1       0.519  13.272  21.048  0.00  0.00    +0.000 A 
ATOM     15  C   UNL     1       1.054  12.287  20.213  0.00  0.00    +0.000 A 
BRANCH  13  16
ATOM     16  O   UNL     1      -0.841  13.914  22.863  0.00  0.00    +0.000 OA
ATOM     17  H   UNL     1      -0.095  14.419  23.229  0.00  0.00    +0.000 HD
ENDBRANCH  13  16
ENDBRANCH   6  10
BRANCH   2  18
ATOM     18  C   UNL     1       2.050   4.245  20.083  0.00  0.00    +0.000 C 
ATOM     19  C   UNL     1       1.877   3.329  21.289  0.00  0.00    +0.000 C 
ATOM     20  C   UNL     1       0.934   3.211  20.134  0.00  0.00    +0.000 C 
BRANCH  18  21
ATOM     21  C   UNL     1       3.225   4.032  19.131  0.00  0.00    +0.000 A 
ATOM     22  C   UNL     1       3.010   3.819  17.745  0.00  0.00    +0.000 A 
ATOM     23  C   UNL     1       4.056   3.878  16.814  0.00  0.00    +0.000 A 
ATOM     24  C   UNL     1       5.312   4.171  17.289  0.00  0.00    +0.000 A 
ATOM     25  C   UNL     1       5.553   4.325  18.634  0.00  0.00    +0.000 A 
ATOM     26  C   UNL     1       4.548   4.226  19.572  0.00  0.00    +0.000 A 
ATOM     27  O   UNL     1       6.848   4.647  18.899  0.00  0.00    +0.000 OA
ATOM     28  C   UNL     1       7.330   4.823  17.558  0.00  0.00    +0.000 C 
ATOM     29  F   UNL     1       7.593   6.141  17.369  0.00  0.00    +0.000 F 
ATOM     30  F   UNL     1       8.496   4.148  17.424  0.00  0.00    +0.000 F 
ATOM     31  O   UNL     1       6.423   4.386  16.536  0.00  0.00    +0.000 OA
ENDBRANCH  18  21
ENDBRANCH   2  18
TORSDOF 4
ENDMDL
MODEL 4
REMARK VINA RESULT:      -8.9      4.189      9.041
REMARK  Name = 
REMARK  4 active torsions:
REMARK  status: ('A' for Active; 'I' for Inactive)
REMARK    1  A    between atoms: C_2  and  C_16
REMARK    2  A    between atoms: C_6  and  C_7
REMARK    3  A    between atoms: C_10  and  O_11
REMARK    4  A    between atoms: C_16  and  C_17
REMARK                            x       y       z     vdW  Elec       q    Type
REMARK                         _______ _______ _______ _____ _____    ______ ____
ROOT
ATOM      1  O   UNL     1       1.824   9.056  18.655  0.00  0.00    +0.000 OA
ATOM      2  C   UNL     1       1.376   8.701  19.737  0.00  0.00    +0.000 C 
ATOM      3  N   UNL     1       1.598   7.529  20.420  0.00  0.00    +0.000 N 
ATOM      4  C   UNL     1       2.407   6.557  19.928  0.00  0.00    +0.000 A 
ATOM      5  N   UNL     1       3.271   6.628  18.955  0.00  0.00    +0.000 NA
ATOM      6  C   UNL     1       3.872   5.399  18.771  0.00  0.00    +0.000 A 
ATOM      7  C   UNL     1       3.417   4.398  19.610  0.00  0.00    +0.000 A 
ATOM      8  S   UNL     1       2.269   5.051  20.715  0.00  0.00    +0.000 S 
ATOM      9  H   UNL     1       1.073   7.315  21.250  0.00  0.00    +0.000 HD
ENDROOT
BRANCH   6  10
ATOM     10  C   UNL     1       4.932   5.244  17.790  0.00  0.00    +0.000 A 
ATOM     11  C   UNL     1       4.683   5.645  16.466  0.00  0.00    +0.000 A 
ATOM     12  C   UNL     1       5.669   5.519  15.485  0.00  0.00    +0.000 A 
ATOM     13  C   UNL     1       6.902   4.981  15.828  0.00  0.00    +0.000 A 
ATOM     14  C   UNL     1       7.165   4.574  17.129  0.00  0.00    +0.000 A 
ATOM     15  C   UNL     1       6.181   4.702  18.115  0.00  0.00    +0.000 A 
BRANCH  13  16
ATOM     16  O   UNL     1       7.890   4.830  14.901  0.00  0.00    +0.000 OA
ATOM     17  H   UNL     1       8.670   5.325  15.204  0.00  0.00    +0.000 HD
ENDBRANCH  13  16
ENDBRANCH   6  10
BRANCH   2  18
ATOM     18  C   UNL     1       0.373   9.590  20.443  0.00  0.00    +0.000 C 
ATOM     19  C   UNL     1      -0.078   9.171  21.837  0.00  0.00    +0.000 C 
ATOM     20  C   UNL     1       0.851  10.333  21.682  0.00  0.00    +0.000 C 
BRANCH  18  21
ATOM     21  C   UNL     1      -0.616  10.270  19.497  0.00  0.00    +0.000 A 
ATOM     22  C   UNL     1      -0.540  11.664  19.243  0.00  0.00    +0.000 A 
ATOM     23  C   UNL     1      -1.254  12.267  18.199  0.00  0.00    +0.000 A 
ATOM     24  C   UNL     1      -2.027  11.453  17.406  0.00  0.00    +0.000 A 
ATOM     25  C   UNL     1      -2.160  10.111  17.669  0.00  0.00    +0.000 A 
ATOM     26  C   UNL     1      -1.504   9.503  18.718  0.00  0.00    +0.000 A 
ATOM     27  O   UNL     1      -2.936   9.472  16.751  0.00  0.00    +0.000 OA
ATOM     28  C   UNL     1      -3.132  10.545  15.817  0.00  0.00    +0.000 C 
ATOM     29  F   UNL     1      -2.458  10.246  14.677  0.00  0.00    +0.000 F 
ATOM     30  F   UNL     1      -4.449  10.617  15.509  0.00  0.00    +0.000 F 
ATOM     31  O   UNL     1      -2.695  11.830  16.283  0.00  0.00    +0.000 OA
ENDBRANCH  18  21
ENDBRANCH   2  18
TORSDOF 4
ENDMDL
MODEL 5
REMARK VINA RESULT:      -8.9      1.942      2.433
REMARK  Name = 
REMARK  4 active torsions:
REMARK  status: ('A' for Active; 'I' for Inactive)
REMARK    1  A    between atoms: C_2  and  C_16
REMARK    2  A    between atoms: C_6  and  C_7
REMARK    3  A    between atoms: C_10  and  O_11
REMARK    4  A    between atoms: C_16  and  C_17
REMARK                            x       y       z     vdW  Elec       q    Type
REMARK                         _______ _______ _______ _____ _____    ______ ____
ROOT
ATOM      1  O   UNL     1       0.966   5.407  20.460  0.00  0.00    +0.000 OA
ATOM      2  C   UNL     1       1.792   5.385  19.557  0.00  0.00    +0.000 C 
ATOM      3  N   UNL     1       2.285   6.431  18.813  0.00  0.00    +0.000 N 
ATOM      4  C   UNL     1       1.875   7.708  19.017  0.00  0.00    +0.000 A 
ATOM      5  N   UNL     1       1.219   8.205  20.027  0.00  0.00    +0.000 NA
ATOM      6  C   UNL     1       0.993   9.551  19.823  0.00  0.00    +0.000 A 
ATOM      7  C   UNL     1       1.472  10.046  18.624  0.00  0.00    +0.000 A 
ATOM      8  S   UNL     1       2.303   8.798  17.777  0.00  0.00    +0.000 S 
ATOM      9  H   UNL     1       2.878   6.257  18.020  0.00  0.00    +0.000 HD
ENDROOT
BRANCH   6  10
ATOM     10  C   UNL     1       0.344  10.346  20.851  0.00  0.00    +0.000 A 
ATOM     11  C   UNL     1       0.246  11.735  20.661  0.00  0.00    +0.000 A 
ATOM     12  C   UNL     1      -0.371  12.544  21.617  0.00  0.00    +0.000 A 
ATOM     13  C   UNL     1      -0.881  11.963  22.770  0.00  0.00    +0.000 A 
ATOM     14  C   UNL     1      -0.789  10.593  22.979  0.00  0.00    +0.000 A 
ATOM     15  C   UNL     1      -0.176   9.779  22.021  0.00  0.00    +0.000 A 
BRANCH  13  16
ATOM     16  O   UNL     1      -1.483  12.715  23.735  0.00  0.00    +0.000 OA
ATOM     17  H   UNL     1      -0.958  12.643  24.549  0.00  0.00    +0.000 HD
ENDBRANCH  13  16
ENDBRANCH   6  10
BRANCH   2  18
ATOM     18  C   UNL     1       2.332   4.049  19.089  0.00  0.00    +0.000 C 
ATOM     19  C   UNL     1       1.724   2.793  19.702  0.00  0.00    +0.000 C 
ATOM     20  C   UNL     1       1.391   3.158  18.290  0.00  0.00    +0.000 C 
BRANCH  18  21
ATOM     21  C   UNL     1       3.818   4.078  18.734  0.00  0.00    +0.000 A 
ATOM     22  C   UNL     1       4.254   3.842  17.405  0.00  0.00    +0.000 A 
ATOM     23  C   UNL     1       5.566   4.112  16.995  0.00  0.00    +0.000 A 
ATOM     24  C   UNL     1       6.427   4.637  17.930  0.00  0.00    +0.000 A 
ATOM     25  C   UNL     1       6.042   4.821  19.237  0.00  0.00    +0.000 A 
ATOM     26  C   UNL     1       4.770   4.519  19.673  0.00  0.00    +0.000 A 
ATOM     27  O   UNL     1       7.021   5.384  19.996  0.00  0.00    +0.000 OA
ATOM     28  C   UNL     1       7.986   5.664  18.970  0.00  0.00    +0.000 C 
ATOM     29  F   UNL     1       8.063   7.010  18.814  0.00  0.00    +0.000 F 
ATOM     30  F   UNL     1       9.200   5.229  19.386  0.00  0.00    +0.000 F 
ATOM     31  O   UNL     1       7.694   5.071  17.697  0.00  0.00    +0.000 OA
ENDBRANCH  18  21
ENDBRANCH   2  18
TORSDOF 4
ENDMDL
MODEL 6
REMARK VINA RESULT:      -8.7      4.318      9.211
REMARK  Name = 
REMARK  4 active torsions:
REMARK  status: ('A' for Active; 'I' for Inactive)
REMARK    1  A    between atoms: C_2  and  C_16
REMARK    2  A    between atoms: C_6  and  C_7
REMARK    3  A    between atoms: C_10  and  O_11
REMARK    4  A    between atoms: C_16  and  C_17
REMARK                            x       y       z     vdW  Elec       q    Type
REMARK                         _______ _______ _______ _____ _____    ______ ____
ROOT
ATOM      1  O   UNL     1       1.857   9.559  18.171  0.00  0.00    +0.000 OA
ATOM      2  C   UNL     1       1.360   9.291  19.258  0.00  0.00    +0.000 C 
ATOM      3  N   UNL     1       1.477   8.140  20.000  0.00  0.00    +0.000 N 
ATOM      4  C   UNL     1       2.218   7.087  19.573  0.00  0.00    +0.000 A 
ATOM      5  N   UNL     1       3.106   7.045  18.620  0.00  0.00    +0.000 NA
ATOM      6  C   UNL     1       3.613   5.767  18.509  0.00  0.00    +0.000 A 
ATOM      7  C   UNL     1       3.065   4.845  19.382  0.00  0.00    +0.000 A 
ATOM      8  S   UNL     1       1.947   5.635  20.426  0.00  0.00    +0.000 S 
ATOM      9  H   UNL     1       0.918   8.007  20.825  0.00  0.00    +0.000 HD
ENDROOT
BRANCH   6  10
ATOM     10  C   UNL     1       4.678   5.484  17.563  0.00  0.00    +0.000 A 
ATOM     11  C   UNL     1       5.754   6.384  17.476  0.00  0.00    +0.000 A 
ATOM     12  C   UNL     1       6.805   6.157  16.585  0.00  0.00    +0.000 A 
ATOM     13  C   UNL     1       6.773   5.032  15.771  0.00  0.00    +0.000 A 
ATOM     14  C   UNL     1       5.716   4.135  15.837  0.00  0.00    +0.000 A 
ATOM     15  C   UNL     1       4.664   4.356  16.732  0.00  0.00    +0.000 A 
BRANCH  13  16
ATOM     16  O   UNL     1       7.772   4.776  14.880  0.00  0.00    +0.000 OA
ATOM     17  H   UNL     1       8.527   4.406  15.366  0.00  0.00    +0.000 HD
ENDBRANCH  13  16
ENDBRANCH   6  10
BRANCH   2  18
ATOM     18  C   UNL     1       0.414  10.288  19.895  0.00  0.00    +0.000 C 
ATOM     19  C   UNL     1       0.415  10.382  21.416  0.00  0.00    +0.000 C 
ATOM     20  C   UNL     1       1.035  11.479  20.612  0.00  0.00    +0.000 C 
BRANCH  18  21
ATOM     21  C   UNL     1      -0.891  10.476  19.124  0.00  0.00    +0.000 A 
ATOM     22  C   UNL     1      -1.744  11.578  19.391  0.00  0.00    +0.000 A 
ATOM     23  C   UNL     1      -2.802  11.921  18.540  0.00  0.00    +0.000 A 
ATOM     24  C   UNL     1      -2.981  11.157  17.410  0.00  0.00    +0.000 A 
ATOM     25  C   UNL     1      -2.203  10.052  17.161  0.00  0.00    +0.000 A 
ATOM     26  C   UNL     1      -1.185   9.668  18.008  0.00  0.00    +0.000 A 
ATOM     27  O   UNL     1      -2.510   9.453  15.978  0.00  0.00    +0.000 OA
ATOM     28  C   UNL     1      -3.453  10.406  15.466  0.00  0.00    +0.000 C 
ATOM     29  F   UNL     1      -2.892  11.030  14.400  0.00  0.00    +0.000 F 
ATOM     30  F   UNL     1      -4.546   9.739  15.024  0.00  0.00    +0.000 F 
ATOM     31  O   UNL     1      -3.870  11.401  16.412  0.00  0.00    +0.000 OA
ENDBRANCH  18  21
ENDBRANCH   2  18
TORSDOF 4
ENDMDL
MODEL 7
REMARK VINA RESULT:      -8.7      4.868      9.850
REMARK  Name = 
REMARK  4 active torsions:
REMARK  status: ('A' for Active; 'I' for Inactive)
REMARK    1  A    between atoms: C_2  and  C_16
REMARK    2  A    between atoms: C_6  and  C_7
REMARK    3  A    between atoms: C_10  and  O_11
REMARK    4  A    between atoms: C_16  and  C_17
REMARK                            x       y       z     vdW  Elec       q    Type
REMARK                         _______ _______ _______ _____ _____    ______ ____
ROOT
ATOM      1  O   UNL     1       1.827   9.682  17.935  0.00  0.00    +0.000 OA
ATOM      2  C   UNL     1       1.334   9.466  19.035  0.00  0.00    +0.000 C 
ATOM      3  N   UNL     1       1.463   8.356  19.835  0.00  0.00    +0.000 N 
ATOM      4  C   UNL     1       2.214   7.290  19.462  0.00  0.00    +0.000 A 
ATOM      5  N   UNL     1       3.100   7.207  18.511  0.00  0.00    +0.000 NA
ATOM      6  C   UNL     1       3.620   5.929  18.464  0.00  0.00    +0.000 A 
ATOM      7  C   UNL     1       3.082   5.049  19.385  0.00  0.00    +0.000 A 
ATOM      8  S   UNL     1       1.959   5.881  20.389  0.00  0.00    +0.000 S 
ATOM      9  H   UNL     1       0.907   8.261  20.668  0.00  0.00    +0.000 HD
ENDROOT
BRANCH   6  10
ATOM     10  C   UNL     1       4.686   5.608  17.531  0.00  0.00    +0.000 A 
ATOM     11  C   UNL     1       5.865   6.372  17.573  0.00  0.00    +0.000 A 
ATOM     12  C   UNL     1       6.921   6.103  16.700  0.00  0.00    +0.000 A 
ATOM     13  C   UNL     1       6.792   5.074  15.777  0.00  0.00    +0.000 A 
ATOM     14  C   UNL     1       5.633   4.312  15.716  0.00  0.00    +0.000 A 
ATOM     15  C   UNL     1       4.575   4.576  16.592  0.00  0.00    +0.000 A 
BRANCH  13  16
ATOM     16  O   UNL     1       7.793   4.782  14.899  0.00  0.00    +0.000 OA
ATOM     17  H   UNL     1       7.991   3.833  14.965  0.00  0.00    +0.000 HD
ENDBRANCH  13  16
ENDBRANCH   6  10
BRANCH   2  18
ATOM     18  C   UNL     1       0.380  10.485  19.623  0.00  0.00    +0.000 C 
ATOM     19  C   UNL     1       0.284  10.563  21.141  0.00  0.00    +0.000 C 
ATOM     20  C   UNL     1       0.989  11.648  20.393  0.00  0.00    +0.000 C 
BRANCH  18  21
ATOM     21  C   UNL     1      -0.866  10.722  18.771  0.00  0.00    +0.000 A 
ATOM     22  C   UNL     1      -1.137   9.916  17.635  0.00  0.00    +0.000 A 
ATOM     23  C   UNL     1      -2.381   9.935  16.991  0.00  0.00    +0.000 A 
ATOM     24  C   UNL     1      -3.353  10.757  17.512  0.00  0.00    +0.000 A 
ATOM     25  C   UNL     1      -3.095  11.588  18.577  0.00  0.00    +0.000 A 
ATOM     26  C   UNL     1      -1.864  11.620  19.197  0.00  0.00    +0.000 A 
ATOM     27  O   UNL     1      -4.191  12.292  18.967  0.00  0.00    +0.000 OA
ATOM     28  C   UNL     1      -5.180  11.683  18.123  0.00  0.00    +0.000 C 
ATOM     29  F   UNL     1      -6.019  10.958  18.904  0.00  0.00    +0.000 F 
ATOM     30  F   UNL     1      -5.909  12.661  17.533  0.00  0.00    +0.000 F 
ATOM     31  O   UNL     1      -4.647  10.825  17.103  0.00  0.00    +0.000 OA
ENDBRANCH  18  21
ENDBRANCH   2  18
TORSDOF 4
ENDMDL
MODEL 8
REMARK VINA RESULT:      -8.7      2.178      2.714
REMARK  Name = 
REMARK  4 active torsions:
REMARK  status: ('A' for Active; 'I' for Inactive)
REMARK    1  A    between atoms: C_2  and  C_16
REMARK    2  A    between atoms: C_6  and  C_7
REMARK    3  A    between atoms: C_10  and  O_11
REMARK    4  A    between atoms: C_16  and  C_17
REMARK                            x       y       z     vdW  Elec       q    Type
REMARK                         _______ _______ _______ _____ _____    ______ ____
ROOT
ATOM      1  O   UNL     1       2.884   8.046  18.264  0.00  0.00    +0.000 OA
ATOM      2  C   UNL     1       2.579   7.224  19.118  0.00  0.00    +0.000 C 
ATOM      3  N   UNL     1       1.850   7.405  20.269  0.00  0.00    +0.000 N 
ATOM      4  C   UNL     1       1.346   8.617  20.612  0.00  0.00    +0.000 A 
ATOM      5  N   UNL     1       1.213   9.685  19.877  0.00  0.00    +0.000 NA
ATOM      6  C   UNL     1       0.667  10.706  20.627  0.00  0.00    +0.000 A 
ATOM      7  C   UNL     1       0.419  10.387  21.950  0.00  0.00    +0.000 A 
ATOM      8  S   UNL     1       0.804   8.732  22.225  0.00  0.00    +0.000 S 
ATOM      9  H   UNL     1       1.772   6.665  20.945  0.00  0.00    +0.000 HD
ENDROOT
BRANCH   6  10
ATOM     10  C   UNL     1       0.349  11.980  20.006  0.00  0.00    +0.000 A 
ATOM     11  C   UNL     1       0.693  13.161  20.686  0.00  0.00    +0.000 A 
ATOM     12  C   UNL     1       0.412  14.411  20.131  0.00  0.00    +0.000 A 
ATOM     13  C   UNL     1      -0.224  14.478  18.899  0.00  0.00    +0.000 A 
ATOM     14  C   UNL     1      -0.577  13.323  18.214  0.00  0.00    +0.000 A 
ATOM     15  C   UNL     1      -0.293  12.070  18.765  0.00  0.00    +0.000 A 
BRANCH  13  16
ATOM     16  O   UNL     1      -0.526  15.677  18.324  0.00  0.00    +0.000 OA
ATOM     17  H   UNL     1      -0.832  16.281  19.021  0.00  0.00    +0.000 HD
ENDBRANCH  13  16
ENDBRANCH   6  10
BRANCH   2  18
ATOM     18  C   UNL     1       3.107   5.809  18.995  0.00  0.00    +0.000 C 
ATOM     19  C   UNL     1       2.807   4.846  20.137  0.00  0.00    +0.000 C 
ATOM     20  C   UNL     1       2.083   4.694  18.837  0.00  0.00    +0.000 C 
BRANCH  18  21
ATOM     21  C   UNL     1       4.438   5.714  18.252  0.00  0.00    +0.000 A 
ATOM     22  C   UNL     1       5.610   5.258  18.910  0.00  0.00    +0.000 A 
ATOM     23  C   UNL     1       6.771   4.915  18.205  0.00  0.00    +0.000 A 
ATOM     24  C   UNL     1       6.735   5.018  16.835  0.00  0.00    +0.000 A 
ATOM     25  C   UNL     1       5.631   5.511  16.181  0.00  0.00    +0.000 A 
ATOM     26  C   UNL     1       4.494   5.898  16.857  0.00  0.00    +0.000 A 
ATOM     27  O   UNL     1       5.777   5.500  14.828  0.00  0.00    +0.000 OA
ATOM     28  C   UNL     1       7.028   4.802  14.728  0.00  0.00    +0.000 C 
ATOM     29  F   UNL     1       6.793   3.581  14.185  0.00  0.00    +0.000 F 
ATOM     30  F   UNL     1       7.836   5.481  13.880  0.00  0.00    +0.000 F 
ATOM     31  O   UNL     1       7.713   4.624  15.976  0.00  0.00    +0.000 OA
ENDBRANCH  18  21
ENDBRANCH   2  18
TORSDOF 4
ENDMDL
MODEL 9
REMARK VINA RESULT:      -8.5      4.480      9.176
REMARK  Name = 
REMARK  4 active torsions:
REMARK  status: ('A' for Active; 'I' for Inactive)
REMARK    1  A    between atoms: C_2  and  C_16
REMARK    2  A    between atoms: C_6  and  C_7
REMARK    3  A    between atoms: C_10  and  O_11
REMARK    4  A    between atoms: C_16  and  C_17
REMARK                            x       y       z     vdW  Elec       q    Type
REMARK                         _______ _______ _______ _____ _____    ______ ____
ROOT
ATOM      1  O   UNL     1       1.926   9.829  17.425  0.00  0.00    +0.000 OA
ATOM      2  C   UNL     1       1.412   9.737  18.533  0.00  0.00    +0.000 C 
ATOM      3  N   UNL     1       1.514   8.717  19.449  0.00  0.00    +0.000 N 
ATOM      4  C   UNL     1       2.257   7.609  19.204  0.00  0.00    +0.000 A 
ATOM      5  N   UNL     1       3.158   7.415  18.283  0.00  0.00    +0.000 NA
ATOM      6  C   UNL     1       3.661   6.134  18.381  0.00  0.00    +0.000 A 
ATOM      7  C   UNL     1       3.097   5.363  19.381  0.00  0.00    +0.000 A 
ATOM      8  S   UNL     1       1.968   6.310  20.271  0.00  0.00    +0.000 S 
ATOM      9  H   UNL     1       0.944   8.717  20.277  0.00  0.00    +0.000 HD
ENDROOT
BRANCH   6  10
ATOM     10  C   UNL     1       4.739   5.704  17.507  0.00  0.00    +0.000 A 
ATOM     11  C   UNL     1       5.940   6.433  17.515  0.00  0.00    +0.000 A 
ATOM     12  C   UNL     1       7.007   6.060  16.696  0.00  0.00    +0.000 A 
ATOM     13  C   UNL     1       6.867   4.961  15.859  0.00  0.00    +0.000 A 
ATOM     14  C   UNL     1       5.686   4.232  15.832  0.00  0.00    +0.000 A 
ATOM     15  C   UNL     1       4.617   4.600  16.654  0.00  0.00    +0.000 A 
BRANCH  13  16
ATOM     16  O   UNL     1       7.879   4.567  15.035  0.00  0.00    +0.000 OA
ATOM     17  H   UNL     1       8.023   5.264  14.374  0.00  0.00    +0.000 HD
ENDBRANCH  13  16
ENDBRANCH   6  10
BRANCH   2  18
ATOM     18  C   UNL     1       0.461  10.823  18.992  0.00  0.00    +0.000 C 
ATOM     19  C   UNL     1      -0.952  10.805  18.423  0.00  0.00    +0.000 C 
ATOM     20  C   UNL     1      -0.726  10.396  19.844  0.00  0.00    +0.000 C 
BRANCH  18  21
ATOM     21  C   UNL     1       1.147  12.158  19.280  0.00  0.00    +0.000 A 
ATOM     22  C   UNL     1       1.494  12.529  20.605  0.00  0.00    +0.000 A 
ATOM     23  C   UNL     1       2.343  13.610  20.875  0.00  0.00    +0.000 A 
ATOM     24  C   UNL     1       2.852  14.301  19.800  0.00  0.00    +0.000 A 
ATOM     25  C   UNL     1       2.484  13.995  18.511  0.00  0.00    +0.000 A 
ATOM     26  C   UNL     1       1.614  12.965  18.224  0.00  0.00    +0.000 A 
ATOM     27  O   UNL     1       3.122  14.766  17.589  0.00  0.00    +0.000 OA
ATOM     28  C   UNL     1       4.031  15.466  18.452  0.00  0.00    +0.000 C 
ATOM     29  F   UNL     1       5.290  15.033  18.186  0.00  0.00    +0.000 F 
ATOM     30  F   UNL     1       3.980  16.787  18.156  0.00  0.00    +0.000 F 
ATOM     31  O   UNL     1       3.775  15.296  19.854  0.00  0.00    +0.000 OA
ENDBRANCH  18  21
ENDBRANCH   2  18
TORSDOF 4
ENDMDL
