MODEL 1
REMARK VINA RESULT:      -8.9      0.000      0.000
REMARK  Name = 
REMARK  6 active torsions:
REMARK  status: ('A' for Active; 'I' for Inactive)
REMARK    1  A    between atoms: C_1  and  C_2
REMARK    2  A    between atoms: C_3  and  C_4
REMARK    3  A    between atoms: N_6  and  C_7
REMARK    4  A    between atoms: C_7  and  C_8
REMARK    5  A    between atoms: C_25  and  C_26
REMARK    6  A    between atoms: C_25  and  C_27
REMARK                            x       y       z     vdW  Elec       q    Type
REMARK                         _______ _______ _______ _____ _____    ______ ____
ROOT
ATOM      1  C   UNL     1       2.599   8.435  17.876  0.00  0.00    +0.000 C 
ATOM      2  C   UNL     1       1.995   8.164  19.211  0.00  0.00    +0.000 A 
ATOM      3  C   UNL     1       2.045   6.956  19.897  0.00  0.00    +0.000 A 
ATOM      4  O   UNL     1       1.388   7.074  21.092  0.00  0.00    +0.000 OA
ATOM      5  C   UNL     1       0.912   8.352  21.174  0.00  0.00    +0.000 A 
ATOM      6  C   UNL     1       0.167   8.870  22.237  0.00  0.00    +0.000 A 
ATOM      7  C   UNL     1      -0.224  10.214  22.154  0.00  0.00    +0.000 A 
ATOM      8  C   UNL     1       0.118  10.996  21.049  0.00  0.00    +0.000 A 
ATOM      9  C   UNL     1       0.837  10.430  19.978  0.00  0.00    +0.000 A 
ATOM     10  C   UNL     1       1.263   9.080  20.035  0.00  0.00    +0.000 A 
ATOM     11  C   UNL     1       1.118  11.306  18.821  0.00  0.00    +0.000 C 
ATOM     12  O   UNL     1       1.971  11.077  17.976  0.00  0.00    +0.000 OA
ATOM     13  C   UNL     1       0.299  12.551  18.752  0.00  0.00    +0.000 C 
ATOM     14  C   UNL     1       0.343  13.190  20.134  0.00  0.00    +0.000 C 
ATOM     15  C   UNL     1       1.770  13.549  20.593  0.00  0.00    +0.000 C 
ATOM     16  C   UNL     1      -0.477  14.486  20.071  0.00  0.00    +0.000 C 
ATOM     17  O   UNL     1      -0.279  12.314  21.099  0.00  0.00    +0.000 OA
ENDROOT
BRANCH   3  18
ATOM     18  C   UNL     1       2.645   5.692  19.503  0.00  0.00    +0.000 C 
ATOM     19  O   UNL     1       1.989   4.747  19.062  0.00  0.00    +0.000 OA
ATOM     20  N   UNL     1       4.007   5.580  19.657  0.00  0.00    +0.000 N 
ATOM     21  H   UNL     1       4.533   6.390  19.957  0.00  0.00    +0.000 HD
BRANCH  20  22
ATOM     22  C   UNL     1       4.687   4.353  19.302  0.00  0.00    +0.000 C 
BRANCH  22  23
ATOM     23  C   UNL     1       5.371   4.439  17.958  0.00  0.00    +0.000 A 
ATOM     24  C   UNL     1       4.683   3.973  16.819  0.00  0.00    +0.000 A 
ATOM     25  C   UNL     1       5.267   4.011  15.551  0.00  0.00    +0.000 A 
ATOM     26  C   UNL     1       6.555   4.514  15.398  0.00  0.00    +0.000 A 
ATOM     27  C   UNL     1       7.248   4.992  16.509  0.00  0.00    +0.000 A 
ATOM     28  C   UNL     1       6.658   4.968  17.780  0.00  0.00    +0.000 A 
ATOM     29 BR   UNL     1       7.673   5.680  19.217  0.00  0.00    +0.000 Br
ENDBRANCH  22  23
ENDBRANCH  20  22
ENDBRANCH   3  18
TORSDOF 3
ENDMDL
MODEL 2
REMARK VINA RESULT:      -8.5      2.448      3.308
REMARK  Name = 
REMARK  6 active torsions:
REMARK  status: ('A' for Active; 'I' for Inactive)
REMARK    1  A    between atoms: C_1  and  C_2
REMARK    2  A    between atoms: C_3  and  C_4
REMARK    3  A    between atoms: N_6  and  C_7
REMARK    4  A    between atoms: C_7  and  C_8
REMARK    5  A    between atoms: C_25  and  C_26
REMARK    6  A    between atoms: C_25  and  C_27
REMARK                            x       y       z     vdW  Elec       q    Type
REMARK                         _______ _______ _______ _____ _____    ______ ____
ROOT
ATOM      1  C   UNL     1       0.477  10.056  18.121  0.00  0.00    +0.000 C 
ATOM      2  C   UNL     1       0.538   9.662  19.556  0.00  0.00    +0.000 A 
ATOM      3  C   UNL     1       1.295   8.621  20.083  0.00  0.00    +0.000 A 
ATOM      4  O   UNL     1       1.110   8.553  21.437  0.00  0.00    +0.000 OA
ATOM      5  C   UNL     1       0.233   9.542  21.782  0.00  0.00    +0.000 A 
ATOM      6  C   UNL     1      -0.230   9.796  23.077  0.00  0.00    +0.000 A 
ATOM      7  C   UNL     1      -1.119  10.868  23.243  0.00  0.00    +0.000 A 
ATOM      8  C   UNL     1      -1.522  11.644  22.154  0.00  0.00    +0.000 A 
ATOM      9  C   UNL     1      -1.065  11.335  20.858  0.00  0.00    +0.000 A 
ATOM     10  C   UNL     1      -0.154  10.269  20.655  0.00  0.00    +0.000 A 
ATOM     11  C   UNL     1      -1.576  12.170  19.749  0.00  0.00    +0.000 C 
ATOM     12  O   UNL     1      -1.057  12.238  18.645  0.00  0.00    +0.000 OA
ATOM     13  C   UNL     1      -2.785  12.983  20.071  0.00  0.00    +0.000 C 
ATOM     14  C   UNL     1      -2.512  13.680  21.397  0.00  0.00    +0.000 C 
ATOM     15  C   UNL     1      -1.278  14.603  21.356  0.00  0.00    +0.000 C 
ATOM     16  C   UNL     1      -3.739  14.541  21.727  0.00  0.00    +0.000 C 
ATOM     17  O   UNL     1      -2.359  12.699  22.445  0.00  0.00    +0.000 OA
ENDROOT
BRANCH   3  18
ATOM     18  C   UNL     1       2.162   7.672  19.405  0.00  0.00    +0.000 C 
ATOM     19  O   UNL     1       2.485   7.784  18.222  0.00  0.00    +0.000 OA
ATOM     20  N   UNL     1       2.611   6.605  20.149  0.00  0.00    +0.000 N 
ATOM     21  H   UNL     1       2.388   6.569  21.135  0.00  0.00    +0.000 HD
BRANCH  20  22
ATOM     22  C   UNL     1       3.469   5.604  19.553  0.00  0.00    +0.000 C 
BRANCH  22  23
ATOM     23  C   UNL     1       2.721   4.342  19.194  0.00  0.00    +0.000 A 
ATOM     24  C   UNL     1       1.606   3.972  19.972  0.00  0.00    +0.000 A 
ATOM     25  C   UNL     1       0.883   2.808  19.699  0.00  0.00    +0.000 A 
ATOM     26  C   UNL     1       1.266   1.989  18.643  0.00  0.00    +0.000 A 
ATOM     27  C   UNL     1       2.358   2.342  17.853  0.00  0.00    +0.000 A 
ATOM     28  C   UNL     1       3.076   3.516  18.116  0.00  0.00    +0.000 A 
ATOM     29 BR   UNL     1       4.522   3.924  16.955  0.00  0.00    +0.000 Br
ENDBRANCH  22  23
ENDBRANCH  20  22
ENDBRANCH   3  18
TORSDOF 3
ENDMDL
MODEL 3
REMARK VINA RESULT:      -8.4      1.185      1.492
REMARK  Name = 
REMARK  6 active torsions:
REMARK  status: ('A' for Active; 'I' for Inactive)
REMARK    1  A    between atoms: C_1  and  C_2
REMARK    2  A    between atoms: C_3  and  C_4
REMARK    3  A    between atoms: N_6  and  C_7
REMARK    4  A    between atoms: C_7  and  C_8
REMARK    5  A    between atoms: C_25  and  C_26
REMARK    6  A    between atoms: C_25  and  C_27
REMARK                            x       y       z     vdW  Elec       q    Type
REMARK                         _______ _______ _______ _____ _____    ______ ____
ROOT
ATOM      1  C   UNL     1       2.500   8.343  18.159  0.00  0.00    +0.000 C 
ATOM      2  C   UNL     1       1.852   8.212  19.495  0.00  0.00    +0.000 A 
ATOM      3  C   UNL     1       1.821   7.061  20.274  0.00  0.00    +0.000 A 
ATOM      4  O   UNL     1       1.145   7.308  21.438  0.00  0.00    +0.000 OA
ATOM      5  C   UNL     1       0.737   8.611  21.408  0.00  0.00    +0.000 A 
ATOM      6  C   UNL     1      -0.001   9.251  22.407  0.00  0.00    +0.000 A 
ATOM      7  C   UNL     1      -0.317  10.603  22.209  0.00  0.00    +0.000 A 
ATOM      8  C   UNL     1       0.093  11.276  21.056  0.00  0.00    +0.000 A 
ATOM      9  C   UNL     1       0.804  10.589  20.051  0.00  0.00    +0.000 A 
ATOM     10  C   UNL     1       1.153   9.227  20.225  0.00  0.00    +0.000 A 
ATOM     11  C   UNL     1       1.158  11.355  18.837  0.00  0.00    +0.000 C 
ATOM     12  O   UNL     1       2.016  11.015  18.037  0.00  0.00    +0.000 OA
ATOM     13  C   UNL     1       0.410  12.632  18.650  0.00  0.00    +0.000 C 
ATOM     14  C   UNL     1       0.458  13.375  19.979  0.00  0.00    +0.000 C 
ATOM     15  C   UNL     1       1.892  13.693  20.446  0.00  0.00    +0.000 C 
ATOM     16  C   UNL     1      -0.288  14.704  19.793  0.00  0.00    +0.000 C 
ATOM     17  O   UNL     1      -0.233  12.613  20.992  0.00  0.00    +0.000 OA
ENDROOT
BRANCH   3  18
ATOM     18  C   UNL     1       2.359   5.740  19.996  0.00  0.00    +0.000 C 
ATOM     19  O   UNL     1       1.651   4.740  19.869  0.00  0.00    +0.000 OA
ATOM     20  N   UNL     1       3.727   5.640  19.890  0.00  0.00    +0.000 N 
ATOM     21  H   UNL     1       4.283   6.483  19.931  0.00  0.00    +0.000 HD
BRANCH  20  22
ATOM     22  C   UNL     1       4.351   4.361  19.626  0.00  0.00    +0.000 C 
BRANCH  22  23
ATOM     23  C   UNL     1       5.145   4.358  18.341  0.00  0.00    +0.000 A 
ATOM     24  C   UNL     1       6.478   4.813  18.370  0.00  0.00    +0.000 A 
ATOM     25  C   UNL     1       7.259   4.848  17.212  0.00  0.00    +0.000 A 
ATOM     26  C   UNL     1       6.718   4.433  16.001  0.00  0.00    +0.000 A 
ATOM     27  C   UNL     1       5.405   3.968  15.952  0.00  0.00    +0.000 A 
ATOM     28  C   UNL     1       4.624   3.918  17.115  0.00  0.00    +0.000 A 
ATOM     29 BR   UNL     1       2.863   3.231  16.945  0.00  0.00    +0.000 Br
ENDBRANCH  22  23
ENDBRANCH  20  22
ENDBRANCH   3  18
TORSDOF 3
ENDMDL
MODEL 4
REMARK VINA RESULT:      -8.3      2.604      4.159
REMARK  Name = 
REMARK  6 active torsions:
REMARK  status: ('A' for Active; 'I' for Inactive)
REMARK    1  A    between atoms: C_1  and  C_2
REMARK    2  A    between atoms: C_3  and  C_4
REMARK    3  A    between atoms: N_6  and  C_7
REMARK    4  A    between atoms: C_7  and  C_8
REMARK    5  A    between atoms: C_25  and  C_26
REMARK    6  A    between atoms: C_25  and  C_27
REMARK                            x       y       z     vdW  Elec       q    Type
REMARK                         _______ _______ _______ _____ _____    ______ ____
ROOT
ATOM      1  C   UNL     1       1.232   9.122  21.984  0.00  0.00    +0.000 C 
ATOM      2  C   UNL     1       0.820   9.626  20.643  0.00  0.00    +0.000 A 
ATOM      3  C   UNL     1       1.201   9.088  19.419  0.00  0.00    +0.000 A 
ATOM      4  O   UNL     1       0.630   9.802  18.401  0.00  0.00    +0.000 OA
ATOM      5  C   UNL     1      -0.113  10.799  18.966  0.00  0.00    +0.000 A 
ATOM      6  C   UNL     1      -0.843  11.761  18.261  0.00  0.00    +0.000 A 
ATOM      7  C   UNL     1      -1.561  12.702  19.013  0.00  0.00    +0.000 A 
ATOM      8  C   UNL     1      -1.542  12.674  20.409  0.00  0.00    +0.000 A 
ATOM      9  C   UNL     1      -0.764  11.713  21.086  0.00  0.00    +0.000 A 
ATOM     10  C   UNL     1      -0.039  10.738  20.359  0.00  0.00    +0.000 A 
ATOM     11  C   UNL     1      -0.753  11.778  22.563  0.00  0.00    +0.000 C 
ATOM     12  O   UNL     1      -0.398  10.862  23.289  0.00  0.00    +0.000 OA
ATOM     13  C   UNL     1      -1.249  13.059  23.147  0.00  0.00    +0.000 C 
ATOM     14  C   UNL     1      -2.560  13.388  22.447  0.00  0.00    +0.000 C 
ATOM     15  C   UNL     1      -3.637  12.300  22.628  0.00  0.00    +0.000 C 
ATOM     16  C   UNL     1      -3.095  14.692  23.056  0.00  0.00    +0.000 C 
ATOM     17  O   UNL     1      -2.322  13.617  21.041  0.00  0.00    +0.000 OA
ENDROOT
BRANCH   3  18
ATOM     18  C   UNL     1       2.082   7.967  19.134  0.00  0.00    +0.000 C 
ATOM     19  O   UNL     1       2.622   7.798  18.041  0.00  0.00    +0.000 OA
ATOM     20  N   UNL     1       2.286   7.068  20.155  0.00  0.00    +0.000 N 
ATOM     21  H   UNL     1       1.887   7.261  21.064  0.00  0.00    +0.000 HD
BRANCH  20  22
ATOM     22  C   UNL     1       3.138   5.915  19.958  0.00  0.00    +0.000 C 
BRANCH  22  23
ATOM     23  C   UNL     1       2.367   4.695  19.513  0.00  0.00    +0.000 A 
ATOM     24  C   UNL     1       1.276   4.263  20.294  0.00  0.00    +0.000 A 
ATOM     25  C   UNL     1       0.533   3.133  19.943  0.00  0.00    +0.000 A 
ATOM     26  C   UNL     1       0.871   2.410  18.804  0.00  0.00    +0.000 A 
ATOM     27  C   UNL     1       1.939   2.828  18.010  0.00  0.00    +0.000 A 
ATOM     28  C   UNL     1       2.676   3.968  18.353  0.00  0.00    +0.000 A 
ATOM     29 BR   UNL     1       4.084   4.472  17.182  0.00  0.00    +0.000 Br
ENDBRANCH  22  23
ENDBRANCH  20  22
ENDBRANCH   3  18
TORSDOF 3
ENDMDL
MODEL 5
REMARK VINA RESULT:      -8.3      2.219      3.236
REMARK  Name = 
REMARK  6 active torsions:
REMARK  status: ('A' for Active; 'I' for Inactive)
REMARK    1  A    between atoms: C_1  and  C_2
REMARK    2  A    between atoms: C_3  and  C_4
REMARK    3  A    between atoms: N_6  and  C_7
REMARK    4  A    between atoms: C_7  and  C_8
REMARK    5  A    between atoms: C_25  and  C_26
REMARK    6  A    between atoms: C_25  and  C_27
REMARK                            x       y       z     vdW  Elec       q    Type
REMARK                         _______ _______ _______ _____ _____    ______ ____
ROOT
ATOM      1  C   UNL     1       0.203  10.851  18.135  0.00  0.00    +0.000 C 
ATOM      2  C   UNL     1       0.491  10.087  19.382  0.00  0.00    +0.000 A 
ATOM      3  C   UNL     1       1.351   9.000  19.490  0.00  0.00    +0.000 A 
ATOM      4  O   UNL     1       1.373   8.554  20.784  0.00  0.00    +0.000 OA
ATOM      5  C   UNL     1       0.527   9.347  21.506  0.00  0.00    +0.000 A 
ATOM      6  C   UNL     1       0.256   9.207  22.870  0.00  0.00    +0.000 A 
ATOM      7  C   UNL     1      -0.631  10.127  23.447  0.00  0.00    +0.000 A 
ATOM      8  C   UNL     1      -1.217  11.138  22.683  0.00  0.00    +0.000 A 
ATOM      9  C   UNL     1      -0.950  11.226  21.302  0.00  0.00    +0.000 A 
ATOM     10  C   UNL     1      -0.047  10.323  20.689  0.00  0.00    +0.000 A 
ATOM     11  C   UNL     1      -1.648  12.290  20.550  0.00  0.00    +0.000 C 
ATOM     12  O   UNL     1      -1.304  12.692  19.449  0.00  0.00    +0.000 OA
ATOM     13  C   UNL     1      -2.820  12.897  21.246  0.00  0.00    +0.000 C 
ATOM     14  C   UNL     1      -2.373  13.227  22.664  0.00  0.00    +0.000 C 
ATOM     15  C   UNL     1      -1.189  14.212  22.716  0.00  0.00    +0.000 C 
ATOM     16  C   UNL     1      -3.564  13.876  23.385  0.00  0.00    +0.000 C 
ATOM     17  O   UNL     1      -2.034  12.012  23.367  0.00  0.00    +0.000 OA
ENDROOT
BRANCH   3  18
ATOM     18  C   UNL     1       2.136   8.335  18.463  0.00  0.00    +0.000 C 
ATOM     19  O   UNL     1       2.385   8.847  17.372  0.00  0.00    +0.000 OA
ATOM     20  N   UNL     1       2.592   7.071  18.757  0.00  0.00    +0.000 N 
ATOM     21  H   UNL     1       2.433   6.697  19.683  0.00  0.00    +0.000 HD
BRANCH  20  22
ATOM     22  C   UNL     1       3.371   6.328  17.790  0.00  0.00    +0.000 C 
BRANCH  22  23
ATOM     23  C   UNL     1       3.070   4.849  17.818  0.00  0.00    +0.000 A 
ATOM     24  C   UNL     1       1.822   4.422  18.314  0.00  0.00    +0.000 A 
ATOM     25  C   UNL     1       1.490   3.067  18.379  0.00  0.00    +0.000 A 
ATOM     26  C   UNL     1       2.404   2.110  17.951  0.00  0.00    +0.000 A 
ATOM     27  C   UNL     1       3.640   2.511  17.445  0.00  0.00    +0.000 A 
ATOM     28  C   UNL     1       3.969   3.871  17.365  0.00  0.00    +0.000 A 
ATOM     29 BR   UNL     1       5.660   4.309  16.623  0.00  0.00    +0.000 Br
ENDBRANCH  22  23
ENDBRANCH  20  22
ENDBRANCH   3  18
TORSDOF 3
ENDMDL
MODEL 6
REMARK VINA RESULT:      -8.1      2.441      3.074
REMARK  Name = 
REMARK  6 active torsions:
REMARK  status: ('A' for Active; 'I' for Inactive)
REMARK    1  A    between atoms: C_1  and  C_2
REMARK    2  A    between atoms: C_3  and  C_4
REMARK    3  A    between atoms: N_6  and  C_7
REMARK    4  A    between atoms: C_7  and  C_8
REMARK    5  A    between atoms: C_25  and  C_26
REMARK    6  A    between atoms: C_25  and  C_27
REMARK                            x       y       z     vdW  Elec       q    Type
REMARK                         _______ _______ _______ _____ _____    ______ ____
ROOT
ATOM      1  C   UNL     1       0.863   9.669  18.082  0.00  0.00    +0.000 C 
ATOM      2  C   UNL     1       0.870   9.303  19.526  0.00  0.00    +0.000 A 
ATOM      3  C   UNL     1       1.629   8.291  20.105  0.00  0.00    +0.000 A 
ATOM      4  O   UNL     1       1.386   8.243  21.451  0.00  0.00    +0.000 OA
ATOM      5  C   UNL     1       0.471   9.216  21.739  0.00  0.00    +0.000 A 
ATOM      6  C   UNL     1      -0.054   9.482  23.007  0.00  0.00    +0.000 A 
ATOM      7  C   UNL     1      -0.975  10.534  23.113  0.00  0.00    +0.000 A 
ATOM      8  C   UNL     1      -1.349  11.280  21.994  0.00  0.00    +0.000 A 
ATOM      9  C   UNL     1      -0.828  10.959  20.724  0.00  0.00    +0.000 A 
ATOM     10  C   UNL     1       0.116   9.913  20.582  0.00  0.00    +0.000 A 
ATOM     11  C   UNL     1      -1.310  11.760  19.579  0.00  0.00    +0.000 C 
ATOM     12  O   UNL     1      -0.746  11.821  18.497  0.00  0.00    +0.000 OA
ATOM     13  C   UNL     1      -2.552  12.548  19.832  0.00  0.00    +0.000 C 
ATOM     14  C   UNL     1      -2.354  13.276  21.155  0.00  0.00    +0.000 C 
ATOM     15  C   UNL     1      -1.142  14.229  21.150  0.00  0.00    +0.000 C 
ATOM     16  C   UNL     1      -3.616  14.112  21.415  0.00  0.00    +0.000 C 
ATOM     17  O   UNL     1      -2.224  12.318  22.227  0.00  0.00    +0.000 OA
ENDROOT
BRANCH   3  18
ATOM     18  C   UNL     1       2.547   7.352  19.484  0.00  0.00    +0.000 C 
ATOM     19  O   UNL     1       2.933   7.460  18.319  0.00  0.00    +0.000 OA
ATOM     20  N   UNL     1       2.973   6.299  20.260  0.00  0.00    +0.000 N 
ATOM     21  H   UNL     1       2.697   6.267  21.233  0.00  0.00    +0.000 HD
BRANCH  20  22
ATOM     22  C   UNL     1       3.879   5.308  19.721  0.00  0.00    +0.000 C 
BRANCH  22  23
ATOM     23  C   UNL     1       3.153   4.141  19.095  0.00  0.00    +0.000 A 
ATOM     24  C   UNL     1       3.253   3.953  17.702  0.00  0.00    +0.000 A 
ATOM     25  C   UNL     1       2.594   2.900  17.061  0.00  0.00    +0.000 A 
ATOM     26  C   UNL     1       1.817   2.018  17.804  0.00  0.00    +0.000 A 
ATOM     27  C   UNL     1       1.715   2.179  19.185  0.00  0.00    +0.000 A 
ATOM     28  C   UNL     1       2.387   3.225  19.831  0.00  0.00    +0.000 A 
ATOM     29 BR   UNL     1       2.213   3.329  21.718  0.00  0.00    +0.000 Br
ENDBRANCH  22  23
ENDBRANCH  20  22
ENDBRANCH   3  18
TORSDOF 3
ENDMDL
MODEL 7
REMARK VINA RESULT:      -8.0      1.542      1.815
REMARK  Name = 
REMARK  6 active torsions:
REMARK  status: ('A' for Active; 'I' for Inactive)
REMARK    1  A    between atoms: C_1  and  C_2
REMARK    2  A    between atoms: C_3  and  C_4
REMARK    3  A    between atoms: N_6  and  C_7
REMARK    4  A    between atoms: C_7  and  C_8
REMARK    5  A    between atoms: C_25  and  C_26
REMARK    6  A    between atoms: C_25  and  C_27
REMARK                            x       y       z     vdW  Elec       q    Type
REMARK                         _______ _______ _______ _____ _____    ______ ____
ROOT
ATOM      1  C   UNL     1       1.777   9.018  18.560  0.00  0.00    +0.000 C 
ATOM      2  C   UNL     1       1.244   8.864  19.943  0.00  0.00    +0.000 A 
ATOM      3  C   UNL     1       1.339   7.721  20.729  0.00  0.00    +0.000 A 
ATOM      4  O   UNL     1       0.744   7.943  21.942  0.00  0.00    +0.000 OA
ATOM      5  C   UNL     1       0.263   9.220  21.936  0.00  0.00    +0.000 A 
ATOM      6  C   UNL     1      -0.430   9.828  22.987  0.00  0.00    +0.000 A 
ATOM      7  C   UNL     1      -0.836  11.158  22.806  0.00  0.00    +0.000 A 
ATOM      8  C   UNL     1      -0.557  11.841  21.621  0.00  0.00    +0.000 A 
ATOM      9  C   UNL     1       0.111  11.185  20.567  0.00  0.00    +0.000 A 
ATOM     10  C   UNL     1       0.549   9.847  20.721  0.00  0.00    +0.000 A 
ATOM     11  C   UNL     1       0.325  11.957  19.325  0.00  0.00    +0.000 C 
ATOM     12  O   UNL     1       1.135  11.657  18.460  0.00  0.00    +0.000 OA
ATOM     13  C   UNL     1      -0.507  13.188  19.189  0.00  0.00    +0.000 C 
ATOM     14  C   UNL     1      -0.396  13.946  20.506  0.00  0.00    +0.000 C 
ATOM     15  C   UNL     1       1.050  14.348  20.856  0.00  0.00    +0.000 C 
ATOM     16  C   UNL     1      -1.228  15.230  20.371  0.00  0.00    +0.000 C 
ATOM     17  O   UNL     1      -0.961  13.157  21.575  0.00  0.00    +0.000 OA
ENDROOT
BRANCH   3  18
ATOM     18  C   UNL     1       1.927   6.429  20.418  0.00  0.00    +0.000 C 
ATOM     19  O   UNL     1       1.359   5.360  20.646  0.00  0.00    +0.000 OA
ATOM     20  N   UNL     1       3.182   6.441  19.854  0.00  0.00    +0.000 N 
ATOM     21  H   UNL     1       3.600   7.330  19.613  0.00  0.00    +0.000 HD
BRANCH  20  22
ATOM     22  C   UNL     1       3.849   5.202  19.521  0.00  0.00    +0.000 C 
BRANCH  22  23
ATOM     23  C   UNL     1       4.382   5.192  18.108  0.00  0.00    +0.000 A 
ATOM     24  C   UNL     1       4.959   6.371  17.595  0.00  0.00    +0.000 A 
ATOM     25  C   UNL     1       5.456   6.430  16.291  0.00  0.00    +0.000 A 
ATOM     26  C   UNL     1       5.382   5.309  15.472  0.00  0.00    +0.000 A 
ATOM     27  C   UNL     1       4.826   4.128  15.963  0.00  0.00    +0.000 A 
ATOM     28  C   UNL     1       4.340   4.063  17.275  0.00  0.00    +0.000 A 
ATOM     29 BR   UNL     1       3.641   2.397  17.857  0.00  0.00    +0.000 Br
ENDBRANCH  22  23
ENDBRANCH  20  22
ENDBRANCH   3  18
TORSDOF 3
ENDMDL
MODEL 8
REMARK VINA RESULT:      -8.0      2.105      2.865
REMARK  Name = 
REMARK  6 active torsions:
REMARK  status: ('A' for Active; 'I' for Inactive)
REMARK    1  A    between atoms: C_1  and  C_2
REMARK    2  A    between atoms: C_3  and  C_4
REMARK    3  A    between atoms: N_6  and  C_7
REMARK    4  A    between atoms: C_7  and  C_8
REMARK    5  A    between atoms: C_25  and  C_26
REMARK    6  A    between atoms: C_25  and  C_27
REMARK                            x       y       z     vdW  Elec       q    Type
REMARK                         _______ _______ _______ _____ _____    ______ ____
ROOT
ATOM      1  C   UNL     1       0.305  10.650  18.044  0.00  0.00    +0.000 C 
ATOM      2  C   UNL     1       0.645   9.876  19.271  0.00  0.00    +0.000 A 
ATOM      3  C   UNL     1       1.518   8.796  19.336  0.00  0.00    +0.000 A 
ATOM      4  O   UNL     1       1.591   8.337  20.624  0.00  0.00    +0.000 OA
ATOM      5  C   UNL     1       0.764   9.113  21.384  0.00  0.00    +0.000 A 
ATOM      6  C   UNL     1       0.543   8.955  22.755  0.00  0.00    +0.000 A 
ATOM      7  C   UNL     1      -0.332   9.860  23.374  0.00  0.00    +0.000 A 
ATOM      8  C   UNL     1      -0.955  10.874  22.643  0.00  0.00    +0.000 A 
ATOM      9  C   UNL     1      -0.738  10.980  21.254  0.00  0.00    +0.000 A 
ATOM     10  C   UNL     1       0.151  10.092  20.599  0.00  0.00    +0.000 A 
ATOM     11  C   UNL     1      -1.472  12.045  20.540  0.00  0.00    +0.000 C 
ATOM     12  O   UNL     1      -1.170  12.463  19.432  0.00  0.00    +0.000 OA
ATOM     13  C   UNL     1      -2.624  12.633  21.283  0.00  0.00    +0.000 C 
ATOM     14  C   UNL     1      -2.130  12.951  22.688  0.00  0.00    +0.000 C 
ATOM     15  C   UNL     1      -0.954  13.948  22.709  0.00  0.00    +0.000 C 
ATOM     16  C   UNL     1      -3.300  13.581  23.458  0.00  0.00    +0.000 C 
ATOM     17  O   UNL     1      -1.755  11.732  23.365  0.00  0.00    +0.000 OA
ENDROOT
BRANCH   3  18
ATOM     18  C   UNL     1       2.272   8.150  18.275  0.00  0.00    +0.000 C 
ATOM     19  O   UNL     1       2.516   8.694  17.197  0.00  0.00    +0.000 OA
ATOM     20  N   UNL     1       2.705   6.867  18.518  0.00  0.00    +0.000 N 
ATOM     21  H   UNL     1       2.552   6.465  19.434  0.00  0.00    +0.000 HD
BRANCH  20  22
ATOM     22  C   UNL     1       3.453   6.142  17.514  0.00  0.00    +0.000 C 
BRANCH  22  23
ATOM     23  C   UNL     1       4.932   6.096  17.814  0.00  0.00    +0.000 A 
ATOM     24  C   UNL     1       5.763   7.095  17.270  0.00  0.00    +0.000 A 
ATOM     25  C   UNL     1       7.141   7.099  17.499  0.00  0.00    +0.000 A 
ATOM     26  C   UNL     1       7.715   6.098  18.275  0.00  0.00    +0.000 A 
ATOM     27  C   UNL     1       6.909   5.107  18.834  0.00  0.00    +0.000 A 
ATOM     28  C   UNL     1       5.525   5.110  18.617  0.00  0.00    +0.000 A 
ATOM     29 BR   UNL     1       4.516   3.738  19.456  0.00  0.00    +0.000 Br
ENDBRANCH  22  23
ENDBRANCH  20  22
ENDBRANCH   3  18
TORSDOF 3
ENDMDL
MODEL 9
REMARK VINA RESULT:      -7.8      1.982      2.561
REMARK  Name = 
REMARK  6 active torsions:
REMARK  status: ('A' for Active; 'I' for Inactive)
REMARK    1  A    between atoms: C_1  and  C_2
REMARK    2  A    between atoms: C_3  and  C_4
REMARK    3  A    between atoms: N_6  and  C_7
REMARK    4  A    between atoms: C_7  and  C_8
REMARK    5  A    between atoms: C_25  and  C_26
REMARK    6  A    between atoms: C_25  and  C_27
REMARK                            x       y       z     vdW  Elec       q    Type
REMARK                         _______ _______ _______ _____ _____    ______ ____
ROOT
ATOM      1  C   UNL     1       0.603  10.059  17.826  0.00  0.00    +0.000 C 
ATOM      2  C   UNL     1       0.961   9.370  19.098  0.00  0.00    +0.000 A 
ATOM      3  C   UNL     1       1.822   8.285  19.220  0.00  0.00    +0.000 A 
ATOM      4  O   UNL     1       1.920   7.917  20.535  0.00  0.00    +0.000 OA
ATOM      5  C   UNL     1       1.122   8.758  21.257  0.00  0.00    +0.000 A 
ATOM      6  C   UNL     1       0.932   8.702  22.641  0.00  0.00    +0.000 A 
ATOM      7  C   UNL     1       0.084   9.662  23.213  0.00  0.00    +0.000 A 
ATOM      8  C   UNL     1      -0.542  10.630  22.425  0.00  0.00    +0.000 A 
ATOM      9  C   UNL     1      -0.358  10.633  21.028  0.00  0.00    +0.000 A 
ATOM     10  C   UNL     1       0.503   9.688  20.418  0.00  0.00    +0.000 A 
ATOM     11  C   UNL     1      -1.095  11.655  20.256  0.00  0.00    +0.000 C 
ATOM     12  O   UNL     1      -0.815  11.988  19.114  0.00  0.00    +0.000 OA
ATOM     13  C   UNL     1      -2.221  12.312  20.982  0.00  0.00    +0.000 C 
ATOM     14  C   UNL     1      -1.689  12.723  22.348  0.00  0.00    +0.000 C 
ATOM     15  C   UNL     1      -0.500  13.700  22.270  0.00  0.00    +0.000 C 
ATOM     16  C   UNL     1      -2.832  13.423  23.098  0.00  0.00    +0.000 C 
ATOM     17  O   UNL     1      -1.314  11.549  23.102  0.00  0.00    +0.000 OA
ENDROOT
BRANCH   3  18
ATOM     18  C   UNL     1       2.541   7.553  18.191  0.00  0.00    +0.000 C 
ATOM     19  O   UNL     1       2.888   8.061  17.124  0.00  0.00    +0.000 OA
ATOM     20  N   UNL     1       2.819   6.231  18.452  0.00  0.00    +0.000 N 
ATOM     21  H   UNL     1       2.585   5.853  19.361  0.00  0.00    +0.000 HD
BRANCH  20  22
ATOM     22  C   UNL     1       3.520   5.422  17.480  0.00  0.00    +0.000 C 
BRANCH  22  23
ATOM     23  C   UNL     1       4.994   5.299  17.785  0.00  0.00    +0.000 A 
ATOM     24  C   UNL     1       5.434   5.539  19.102  0.00  0.00    +0.000 A 
ATOM     25  C   UNL     1       6.787   5.455  19.443  0.00  0.00    +0.000 A 
ATOM     26  C   UNL     1       7.726   5.133  18.470  0.00  0.00    +0.000 A 
ATOM     27  C   UNL     1       7.311   4.878  17.164  0.00  0.00    +0.000 A 
ATOM     28  C   UNL     1       5.954   4.948  16.823  0.00  0.00    +0.000 A 
ATOM     29 BR   UNL     1       5.493   4.545  15.026  0.00  0.00    +0.000 Br
ENDBRANCH  22  23
ENDBRANCH  20  22
ENDBRANCH   3  18
TORSDOF 3
ENDMDL
