MODEL 1
REMARK VINA RESULT:      -7.4      0.000      0.000
REMARK  Name = 
REMARK  6 active torsions:
REMARK  status: ('A' for Active; 'I' for Inactive)
REMARK    1  A    between atoms: C_1  and  C_2
REMARK    2  A    between atoms: C_15  and  C_16
REMARK    3  A    between atoms: C_20  and  O_21
REMARK    4  A    between atoms: O_21  and  C_22
REMARK    5  A    between atoms: C_22  and  C_24
REMARK    6  A    between atoms: C_24  and  C_25
REMARK                            x       y       z     vdW  Elec       q    Type
REMARK                         _______ _______ _______ _____ _____    ______ ____
ROOT
ATOM      1  C   UNL     1       1.786   5.722  18.047  0.00  0.00    +0.000 C 
ATOM      2  C   UNL     1       2.984   6.467  18.686  0.00  0.00    +0.000 C 
ATOM      3  C   UNL     1       2.903   6.360  20.213  0.00  0.00    +0.000 C 
ATOM      4  C   UNL     1       1.701   7.134  20.779  0.00  0.00    +0.000 C 
ATOM      5  C   UNL     1       1.580   8.594  20.274  0.00  0.00    +0.000 C 
ATOM      6  C   UNL     1       1.808   8.733  18.737  0.00  0.00    +0.000 C 
ATOM      7  C   UNL     1       1.900  10.220  18.365  0.00  0.00    +0.000 C 
ATOM      8  C   UNL     1       0.665  11.000  18.815  0.00  0.00    +0.000 C 
ATOM      9  C   UNL     1       0.298  10.765  20.264  0.00  0.00    +0.000 C 
ATOM     10  C   UNL     1       0.010  11.812  21.059  0.00  0.00    +0.000 C 
ATOM     11  C   UNL     1      -0.494  11.624  22.438  0.00  0.00    +0.000 C 
ATOM     12  O   UNL     1      -0.707  12.612  23.145  0.00  0.00    +0.000 OA
ATOM     13  C   UNL     1      -0.833  10.228  22.883  0.00  0.00    +0.000 C 
ATOM     14  C   UNL     1       0.165   9.244  22.293  0.00  0.00    +0.000 C 
ATOM     15  C   UNL     1       0.253   9.307  20.738  0.00  0.00    +0.000 C 
ATOM     16  C   UNL     1      -1.008   8.635  20.144  0.00  0.00    +0.000 C 
ATOM     17  C   UNL     1       3.070   7.966  18.333  0.00  0.00    +0.000 C 
ATOM     18  C   UNL     1       3.481   7.963  16.861  0.00  0.00    +0.000 C 
ATOM     19  C   UNL     1       4.401   6.737  16.724  0.00  0.00    +0.000 C 
ATOM     20  C   UNL     1       4.311   5.976  18.062  0.00  0.00    +0.000 C 
ENDROOT
BRANCH  20  21
ATOM     21  O   UNL     1       4.341   4.558  17.851  0.00  0.00    +0.000 OA
BRANCH  21  22
ATOM     22  C   UNL     1       5.148   3.857  18.693  0.00  0.00    +0.000 C 
ATOM     23  O   UNL     1       6.249   4.225  19.086  0.00  0.00    +0.000 OA
BRANCH  22  24
ATOM     24  C   UNL     1       4.534   2.529  19.070  0.00  0.00    +0.000 C 
BRANCH  24  25
ATOM     25  C   UNL     1       3.077   2.601  19.456  0.00  0.00    +0.000 A 
ATOM     26  C   UNL     1       2.697   3.020  20.739  0.00  0.00    +0.000 A 
ATOM     27  C   UNL     1       1.348   3.102  21.093  0.00  0.00    +0.000 A 
ATOM     28  C   UNL     1       0.361   2.752  20.175  0.00  0.00    +0.000 A 
ATOM     29  C   UNL     1       0.725   2.326  18.900  0.00  0.00    +0.000 A 
ATOM     30  C   UNL     1       2.074   2.255  18.538  0.00  0.00    +0.000 A 
ENDBRANCH  24  25
ENDBRANCH  22  24
ENDBRANCH  21  22
ENDBRANCH  20  21
TORSDOF 4
ENDMDL
MODEL 2
REMARK VINA RESULT:      -7.1      2.328      4.160
REMARK  Name = 
REMARK  6 active torsions:
REMARK  status: ('A' for Active; 'I' for Inactive)
REMARK    1  A    between atoms: C_1  and  C_2
REMARK    2  A    between atoms: C_15  and  C_16
REMARK    3  A    between atoms: C_20  and  O_21
REMARK    4  A    between atoms: O_21  and  C_22
REMARK    5  A    between atoms: C_22  and  C_24
REMARK    6  A    between atoms: C_24  and  C_25
REMARK                            x       y       z     vdW  Elec       q    Type
REMARK                         _______ _______ _______ _____ _____    ______ ____
ROOT
ATOM      1  C   UNL     1      -0.558  10.210  18.221  0.00  0.00    +0.000 C 
ATOM      2  C   UNL     1       0.552  10.342  19.293  0.00  0.00    +0.000 C 
ATOM      3  C   UNL     1       0.098   9.663  20.591  0.00  0.00    +0.000 C 
ATOM      4  C   UNL     1      -1.076  10.407  21.248  0.00  0.00    +0.000 C 
ATOM      5  C   UNL     1      -0.860  11.932  21.414  0.00  0.00    +0.000 C 
ATOM      6  C   UNL     1      -0.259  12.610  20.144  0.00  0.00    +0.000 C 
ATOM      7  C   UNL     1       0.135  14.057  20.472  0.00  0.00    +0.000 C 
ATOM      8  C   UNL     1      -1.042  14.859  21.024  0.00  0.00    +0.000 C 
ATOM      9  C   UNL     1      -1.771  14.164  22.153  0.00  0.00    +0.000 C 
ATOM     10  C   UNL     1      -2.081  14.848  23.270  0.00  0.00    +0.000 C 
ATOM     11  C   UNL     1      -2.918  14.254  24.336  0.00  0.00    +0.000 C 
ATOM     12  O   UNL     1      -3.144  14.903  25.361  0.00  0.00    +0.000 OA
ATOM     13  C   UNL     1      -3.553  12.916  24.075  0.00  0.00    +0.000 C 
ATOM     14  C   UNL     1      -2.600  12.042  23.275  0.00  0.00    +0.000 C 
ATOM     15  C   UNL     1      -2.139  12.691  21.935  0.00  0.00    +0.000 C 
ATOM     16  C   UNL     1      -3.310  12.622  20.925  0.00  0.00    +0.000 C 
ATOM     17  C   UNL     1       0.937  11.794  19.644  0.00  0.00    +0.000 C 
ATOM     18  C   UNL     1       1.678  12.277  18.398  0.00  0.00    +0.000 C 
ATOM     19  C   UNL     1       2.414  11.028  17.883  0.00  0.00    +0.000 C 
ATOM     20  C   UNL     1       1.902   9.843  18.728  0.00  0.00    +0.000 C 
ENDROOT
BRANCH  20  21
ATOM     21  O   UNL     1       1.772   8.659  17.930  0.00  0.00    +0.000 OA
BRANCH  21  22
ATOM     22  C   UNL     1       2.730   7.713  18.124  0.00  0.00    +0.000 C 
ATOM     23  O   UNL     1       3.607   7.420  17.319  0.00  0.00    +0.000 OA
BRANCH  22  24
ATOM     24  C   UNL     1       2.567   7.027  19.460  0.00  0.00    +0.000 C 
BRANCH  24  25
ATOM     25  C   UNL     1       2.031   5.619  19.377  0.00  0.00    +0.000 A 
ATOM     26  C   UNL     1       1.587   4.953  20.529  0.00  0.00    +0.000 A 
ATOM     27  C   UNL     1       1.076   3.655  20.451  0.00  0.00    +0.000 A 
ATOM     28  C   UNL     1       1.017   2.999  19.225  0.00  0.00    +0.000 A 
ATOM     29  C   UNL     1       1.463   3.644  18.074  0.00  0.00    +0.000 A 
ATOM     30  C   UNL     1       1.963   4.949  18.146  0.00  0.00    +0.000 A 
ENDBRANCH  24  25
ENDBRANCH  22  24
ENDBRANCH  21  22
ENDBRANCH  20  21
TORSDOF 4
ENDMDL
MODEL 3
REMARK VINA RESULT:      -7.1      3.116      5.323
REMARK  Name = 
REMARK  6 active torsions:
REMARK  status: ('A' for Active; 'I' for Inactive)
REMARK    1  A    between atoms: C_1  and  C_2
REMARK    2  A    between atoms: C_15  and  C_16
REMARK    3  A    between atoms: C_20  and  O_21
REMARK    4  A    between atoms: O_21  and  C_22
REMARK    5  A    between atoms: C_22  and  C_24
REMARK    6  A    between atoms: C_24  and  C_25
REMARK                            x       y       z     vdW  Elec       q    Type
REMARK                         _______ _______ _______ _____ _____    ______ ____
ROOT
ATOM      1  C   UNL     1       1.189  11.535  20.143  0.00  0.00    +0.000 C 
ATOM      2  C   UNL     1       0.207  10.342  20.240  0.00  0.00    +0.000 C 
ATOM      3  C   UNL     1      -0.848  10.452  19.132  0.00  0.00    +0.000 C 
ATOM      4  C   UNL     1      -1.780  11.656  19.344  0.00  0.00    +0.000 C 
ATOM      5  C   UNL     1      -2.391  11.754  20.765  0.00  0.00    +0.000 C 
ATOM      6  C   UNL     1      -1.352  11.498  21.900  0.00  0.00    +0.000 C 
ATOM      7  C   UNL     1      -2.081  11.386  23.247  0.00  0.00    +0.000 C 
ATOM      8  C   UNL     1      -2.930  12.621  23.542  0.00  0.00    +0.000 C 
ATOM      9  C   UNL     1      -3.840  13.016  22.399  0.00  0.00    +0.000 C 
ATOM     10  C   UNL     1      -5.130  13.308  22.641  0.00  0.00    +0.000 C 
ATOM     11  C   UNL     1      -6.018  13.838  21.582  0.00  0.00    +0.000 C 
ATOM     12  O   UNL     1      -7.205  14.054  21.839  0.00  0.00    +0.000 OA
ATOM     13  C   UNL     1      -5.403  14.198  20.258  0.00  0.00    +0.000 C 
ATOM     14  C   UNL     1      -4.310  13.199  19.910  0.00  0.00    +0.000 C 
ATOM     15  C   UNL     1      -3.206  13.083  21.004  0.00  0.00    +0.000 C 
ATOM     16  C   UNL     1      -2.305  14.339  20.932  0.00  0.00    +0.000 C 
ATOM     17  C   UNL     1      -0.545  10.236  21.583  0.00  0.00    +0.000 C 
ATOM     18  C   UNL     1       0.541   9.799  22.565  0.00  0.00    +0.000 C 
ATOM     19  C   UNL     1       1.463   8.889  21.736  0.00  0.00    +0.000 C 
ATOM     20  C   UNL     1       0.989   9.009  20.273  0.00  0.00    +0.000 C 
ENDROOT
BRANCH  20  21
ATOM     21  O   UNL     1       2.101   8.989  19.368  0.00  0.00    +0.000 OA
BRANCH  21  22
ATOM     22  C   UNL     1       2.060   8.023  18.410  0.00  0.00    +0.000 C 
ATOM     23  O   UNL     1       1.358   8.053  17.406  0.00  0.00    +0.000 OA
BRANCH  22  24
ATOM     24  C   UNL     1       2.974   6.869  18.749  0.00  0.00    +0.000 C 
BRANCH  24  25
ATOM     25  C   UNL     1       2.259   5.580  19.071  0.00  0.00    +0.000 A 
ATOM     26  C   UNL     1       1.950   4.661  18.058  0.00  0.00    +0.000 A 
ATOM     27  C   UNL     1       1.301   3.460  18.356  0.00  0.00    +0.000 A 
ATOM     28  C   UNL     1       0.938   3.169  19.668  0.00  0.00    +0.000 A 
ATOM     29  C   UNL     1       1.229   4.077  20.683  0.00  0.00    +0.000 A 
ATOM     30  C   UNL     1       1.891   5.275  20.389  0.00  0.00    +0.000 A 
ENDBRANCH  24  25
ENDBRANCH  22  24
ENDBRANCH  21  22
ENDBRANCH  20  21
TORSDOF 4
ENDMDL
MODEL 4
REMARK VINA RESULT:      -6.9      2.861      4.929
REMARK  Name = 
REMARK  6 active torsions:
REMARK  status: ('A' for Active; 'I' for Inactive)
REMARK    1  A    between atoms: C_1  and  C_2
REMARK    2  A    between atoms: C_15  and  C_16
REMARK    3  A    between atoms: C_20  and  O_21
REMARK    4  A    between atoms: O_21  and  C_22
REMARK    5  A    between atoms: C_22  and  C_24
REMARK    6  A    between atoms: C_24  and  C_25
REMARK                            x       y       z     vdW  Elec       q    Type
REMARK                         _______ _______ _______ _____ _____    ______ ____
ROOT
ATOM      1  C   UNL     1      -0.488   9.120  20.945  0.00  0.00    +0.000 C 
ATOM      2  C   UNL     1       0.058  10.317  20.128  0.00  0.00    +0.000 C 
ATOM      3  C   UNL     1       0.855  11.250  21.048  0.00  0.00    +0.000 C 
ATOM      4  C   UNL     1      -0.046  11.947  22.079  0.00  0.00    +0.000 C 
ATOM      5  C   UNL     1      -1.302  12.629  21.480  0.00  0.00    +0.000 C 
ATOM      6  C   UNL     1      -2.041  11.742  20.430  0.00  0.00    +0.000 C 
ATOM      7  C   UNL     1      -3.123  12.573  19.726  0.00  0.00    +0.000 C 
ATOM      8  C   UNL     1      -4.106  13.191  20.719  0.00  0.00    +0.000 C 
ATOM      9  C   UNL     1      -3.433  13.923  21.860  0.00  0.00    +0.000 C 
ATOM     10  C   UNL     1      -3.861  15.148  22.214  0.00  0.00    +0.000 C 
ATOM     11  C   UNL     1      -3.333  15.840  23.411  0.00  0.00    +0.000 C 
ATOM     12  O   UNL     1      -3.726  16.979  23.674  0.00  0.00    +0.000 OA
ATOM     13  C   UNL     1      -2.415  15.074  24.322  0.00  0.00    +0.000 C 
ATOM     14  C   UNL     1      -1.510  14.169  23.501  0.00  0.00    +0.000 C 
ATOM     15  C   UNL     1      -2.290  13.190  22.573  0.00  0.00    +0.000 C 
ATOM     16  C   UNL     1      -2.896  12.063  23.444  0.00  0.00    +0.000 C 
ATOM     17  C   UNL     1      -1.026  11.170  19.436  0.00  0.00    +0.000 C 
ATOM     18  C   UNL     1      -1.534  10.261  18.317  0.00  0.00    +0.000 C 
ATOM     19  C   UNL     1      -0.291   9.472  17.871  0.00  0.00    +0.000 C 
ATOM     20  C   UNL     1       0.823   9.808  18.884  0.00  0.00    +0.000 C 
ENDROOT
BRANCH  20  21
ATOM     21  O   UNL     1       1.635   8.659  19.157  0.00  0.00    +0.000 OA
BRANCH  21  22
ATOM     22  C   UNL     1       2.447   8.259  18.142  0.00  0.00    +0.000 C 
ATOM     23  O   UNL     1       2.503   8.783  17.034  0.00  0.00    +0.000 OA
BRANCH  22  24
ATOM     24  C   UNL     1       3.265   7.050  18.530  0.00  0.00    +0.000 C 
BRANCH  24  25
ATOM     25  C   UNL     1       2.448   5.837  18.901  0.00  0.00    +0.000 A 
ATOM     26  C   UNL     1       2.051   4.914  17.921  0.00  0.00    +0.000 A 
ATOM     27  C   UNL     1       1.308   3.783  18.265  0.00  0.00    +0.000 A 
ATOM     28  C   UNL     1       0.937   3.565  19.590  0.00  0.00    +0.000 A 
ATOM     29  C   UNL     1       1.316   4.478  20.572  0.00  0.00    +0.000 A 
ATOM     30  C   UNL     1       2.072   5.605  20.232  0.00  0.00    +0.000 A 
ENDBRANCH  24  25
ENDBRANCH  22  24
ENDBRANCH  21  22
ENDBRANCH  20  21
TORSDOF 4
ENDMDL
MODEL 5
REMARK VINA RESULT:      -6.8      2.715      8.768
REMARK  Name = 
REMARK  6 active torsions:
REMARK  status: ('A' for Active; 'I' for Inactive)
REMARK    1  A    between atoms: C_1  and  C_2
REMARK    2  A    between atoms: C_15  and  C_16
REMARK    3  A    between atoms: C_20  and  O_21
REMARK    4  A    between atoms: O_21  and  C_22
REMARK    5  A    between atoms: C_22  and  C_24
REMARK    6  A    between atoms: C_24  and  C_25
REMARK                            x       y       z     vdW  Elec       q    Type
REMARK                         _______ _______ _______ _____ _____    ______ ____
ROOT
ATOM      1  C   UNL     1      -0.900   9.700  18.772  0.00  0.00    +0.000 C 
ATOM      2  C   UNL     1       0.334  10.239  19.537  0.00  0.00    +0.000 C 
ATOM      3  C   UNL     1       1.488  10.472  18.554  0.00  0.00    +0.000 C 
ATOM      4  C   UNL     1       2.020   9.154  17.970  0.00  0.00    +0.000 C 
ATOM      5  C   UNL     1       2.343   8.066  19.026  0.00  0.00    +0.000 C 
ATOM      6  C   UNL     1       1.239   7.923  20.118  0.00  0.00    +0.000 C 
ATOM      7  C   UNL     1       1.741   7.001  21.238  0.00  0.00    +0.000 C 
ATOM      8  C   UNL     1       2.174   5.636  20.705  0.00  0.00    +0.000 C 
ATOM      9  C   UNL     1       3.120   5.720  19.526  0.00  0.00    +0.000 C 
ATOM     10  C   UNL     1       4.230   4.960  19.504  0.00  0.00    +0.000 C 
ATOM     11  C   UNL     1       5.105   4.900  18.312  0.00  0.00    +0.000 C 
ATOM     12  O   UNL     1       6.134   4.221  18.351  0.00  0.00    +0.000 OA
ATOM     13  C   UNL     1       4.641   5.587  17.058  0.00  0.00    +0.000 C 
ATOM     14  C   UNL     1       3.923   6.880  17.415  0.00  0.00    +0.000 C 
ATOM     15  C   UNL     1       2.727   6.675  18.392  0.00  0.00    +0.000 C 
ATOM     16  C   UNL     1       1.550   6.048  17.607  0.00  0.00    +0.000 C 
ATOM     17  C   UNL     1       0.857   9.308  20.649  0.00  0.00    +0.000 C 
ATOM     18  C   UNL     1      -0.219   9.403  21.730  0.00  0.00    +0.000 C 
ATOM     19  C   UNL     1      -0.719  10.856  21.644  0.00  0.00    +0.000 C 
ATOM     20  C   UNL     1      -0.062  11.467  20.389  0.00  0.00    +0.000 C 
ENDROOT
BRANCH  20  21
ATOM     21  O   UNL     1      -0.966  12.351  19.713  0.00  0.00    +0.000 OA
BRANCH  21  22
ATOM     22  C   UNL     1      -0.383  13.321  18.959  0.00  0.00    +0.000 C 
ATOM     23  O   UNL     1      -0.533  13.464  17.751  0.00  0.00    +0.000 OA
BRANCH  22  24
ATOM     24  C   UNL     1       0.518  14.203  19.792  0.00  0.00    +0.000 C 
BRANCH  24  25
ATOM     25  C   UNL     1       1.738  14.713  19.065  0.00  0.00    +0.000 A 
ATOM     26  C   UNL     1       1.777  16.023  18.564  0.00  0.00    +0.000 A 
ATOM     27  C   UNL     1       2.911  16.502  17.905  0.00  0.00    +0.000 A 
ATOM     28  C   UNL     1       4.016  15.674  17.721  0.00  0.00    +0.000 A 
ATOM     29  C   UNL     1       3.987  14.368  18.204  0.00  0.00    +0.000 A 
ATOM     30  C   UNL     1       2.857  13.890  18.877  0.00  0.00    +0.000 A 
ENDBRANCH  24  25
ENDBRANCH  22  24
ENDBRANCH  21  22
ENDBRANCH  20  21
TORSDOF 4
ENDMDL
MODEL 6
REMARK VINA RESULT:      -6.7      3.083      5.470
REMARK  Name = 
REMARK  6 active torsions:
REMARK  status: ('A' for Active; 'I' for Inactive)
REMARK    1  A    between atoms: C_1  and  C_2
REMARK    2  A    between atoms: C_15  and  C_16
REMARK    3  A    between atoms: C_20  and  O_21
REMARK    4  A    between atoms: O_21  and  C_22
REMARK    5  A    between atoms: C_22  and  C_24
REMARK    6  A    between atoms: C_24  and  C_25
REMARK                            x       y       z     vdW  Elec       q    Type
REMARK                         _______ _______ _______ _____ _____    ______ ____
ROOT
ATOM      1  C   UNL     1      -0.790   9.389  20.447  0.00  0.00    +0.000 C 
ATOM      2  C   UNL     1      -0.482  10.650  19.602  0.00  0.00    +0.000 C 
ATOM      3  C   UNL     1       0.504  11.548  20.358  0.00  0.00    +0.000 C 
ATOM      4  C   UNL     1      -0.124  12.153  21.624  0.00  0.00    +0.000 C 
ATOM      5  C   UNL     1      -1.499  12.831  21.399  0.00  0.00    +0.000 C 
ATOM      6  C   UNL     1      -2.461  11.987  20.507  0.00  0.00    +0.000 C 
ATOM      7  C   UNL     1      -3.697  12.826  20.149  0.00  0.00    +0.000 C 
ATOM      8  C   UNL     1      -4.412  13.351  21.393  0.00  0.00    +0.000 C 
ATOM      9  C   UNL     1      -3.488  14.032  22.379  0.00  0.00    +0.000 C 
ATOM     10  C   UNL     1      -3.834  15.220  22.908  0.00  0.00    +0.000 C 
ATOM     11  C   UNL     1      -3.036  15.853  23.982  0.00  0.00    +0.000 C 
ATOM     12  O   UNL     1      -3.368  16.961  24.410  0.00  0.00    +0.000 OA
ATOM     13  C   UNL     1      -1.909  15.061  24.586  0.00  0.00    +0.000 C 
ATOM     14  C   UNL     1      -1.223  14.238  23.508  0.00  0.00    +0.000 C 
ATOM     15  C   UNL     1      -2.193  13.292  22.737  0.00  0.00    +0.000 C 
ATOM     16  C   UNL     1      -2.548  12.096  23.653  0.00  0.00    +0.000 C 
ATOM     17  C   UNL     1      -1.716  11.509  19.257  0.00  0.00    +0.000 C 
ATOM     18  C   UNL     1      -2.472  10.655  18.240  0.00  0.00    +0.000 C 
ATOM     19  C   UNL     1      -1.367   9.934  17.449  0.00  0.00    +0.000 C 
ATOM     20  C   UNL     1      -0.042  10.242  18.177  0.00  0.00    +0.000 C 
ENDROOT
BRANCH  20  21
ATOM     21  O   UNL     1       0.830   9.104  18.164  0.00  0.00    +0.000 OA
BRANCH  21  22
ATOM     22  C   UNL     1       2.124   9.360  17.832  0.00  0.00    +0.000 C 
ATOM     23  O   UNL     1       2.601  10.476  17.658  0.00  0.00    +0.000 OA
BRANCH  22  24
ATOM     24  C   UNL     1       2.916   8.084  17.665  0.00  0.00    +0.000 C 
BRANCH  24  25
ATOM     25  C   UNL     1       2.459   6.947  18.546  0.00  0.00    +0.000 A 
ATOM     26  C   UNL     1       2.304   5.655  18.022  0.00  0.00    +0.000 A 
ATOM     27  C   UNL     1       1.896   4.598  18.839  0.00  0.00    +0.000 A 
ATOM     28  C   UNL     1       1.623   4.820  20.186  0.00  0.00    +0.000 A 
ATOM     29  C   UNL     1       1.764   6.100  20.718  0.00  0.00    +0.000 A 
ATOM     30  C   UNL     1       2.185   7.158  19.905  0.00  0.00    +0.000 A 
ENDBRANCH  24  25
ENDBRANCH  22  24
ENDBRANCH  21  22
ENDBRANCH  20  21
TORSDOF 4
ENDMDL
MODEL 7
REMARK VINA RESULT:      -6.7      2.801      9.039
REMARK  Name = 
REMARK  6 active torsions:
REMARK  status: ('A' for Active; 'I' for Inactive)
REMARK    1  A    between atoms: C_1  and  C_2
REMARK    2  A    between atoms: C_15  and  C_16
REMARK    3  A    between atoms: C_20  and  O_21
REMARK    4  A    between atoms: O_21  and  C_22
REMARK    5  A    between atoms: C_22  and  C_24
REMARK    6  A    between atoms: C_24  and  C_25
REMARK                            x       y       z     vdW  Elec       q    Type
REMARK                         _______ _______ _______ _____ _____    ______ ____
ROOT
ATOM      1  C   UNL     1      -0.660   9.973  18.425  0.00  0.00    +0.000 C 
ATOM      2  C   UNL     1       0.550  10.438  19.272  0.00  0.00    +0.000 C 
ATOM      3  C   UNL     1       1.789  10.563  18.375  0.00  0.00    +0.000 C 
ATOM      4  C   UNL     1       2.262   9.196  17.857  0.00  0.00    +0.000 C 
ATOM      5  C   UNL     1       2.424   8.113  18.953  0.00  0.00    +0.000 C 
ATOM      6  C   UNL     1       1.234   8.076  19.961  0.00  0.00    +0.000 C 
ATOM      7  C   UNL     1       1.582   7.145  21.132  0.00  0.00    +0.000 C 
ATOM      8  C   UNL     1       1.950   5.741  20.657  0.00  0.00    +0.000 C 
ATOM      9  C   UNL     1       2.984   5.728  19.552  0.00  0.00    +0.000 C 
ATOM     10  C   UNL     1       4.033   4.889  19.627  0.00  0.00    +0.000 C 
ATOM     11  C   UNL     1       4.987   4.737  18.506  0.00  0.00    +0.000 C 
ATOM     12  O   UNL     1       5.957   3.986  18.634  0.00  0.00    +0.000 OA
ATOM     13  C   UNL     1       4.670   5.427  17.208  0.00  0.00    +0.000 C 
ATOM     14  C   UNL     1       4.026   6.777  17.487  0.00  0.00    +0.000 C 
ATOM     15  C   UNL     1       2.749   6.683  18.375  0.00  0.00    +0.000 C 
ATOM     16  C   UNL     1       1.590   6.126  17.513  0.00  0.00    +0.000 C 
ATOM     17  C   UNL     1       0.919   9.497  20.437  0.00  0.00    +0.000 C 
ATOM     18  C   UNL     1      -0.224   9.696  21.431  0.00  0.00    +0.000 C 
ATOM     19  C   UNL     1      -0.607  11.178  21.282  0.00  0.00    +0.000 C 
ATOM     20  C   UNL     1       0.185  11.711  20.070  0.00  0.00    +0.000 C 
ENDROOT
BRANCH  20  21
ATOM     21  O   UNL     1      -0.597  12.643  19.312  0.00  0.00    +0.000 OA
BRANCH  21  22
ATOM     22  C   UNL     1      -0.526  13.938  19.721  0.00  0.00    +0.000 C 
ATOM     23  O   UNL     1      -1.458  14.734  19.716  0.00  0.00    +0.000 OA
BRANCH  22  24
ATOM     24  C   UNL     1       0.873  14.303  20.162  0.00  0.00    +0.000 C 
BRANCH  24  25
ATOM     25  C   UNL     1       1.653  15.113  19.157  0.00  0.00    +0.000 A 
ATOM     26  C   UNL     1       2.749  14.555  18.483  0.00  0.00    +0.000 A 
ATOM     27  C   UNL     1       3.463  15.299  17.541  0.00  0.00    +0.000 A 
ATOM     28  C   UNL     1       3.102  16.616  17.270  0.00  0.00    +0.000 A 
ATOM     29  C   UNL     1       2.021  17.187  17.938  0.00  0.00    +0.000 A 
ATOM     30  C   UNL     1       1.296  16.439  18.873  0.00  0.00    +0.000 A 
ENDBRANCH  24  25
ENDBRANCH  22  24
ENDBRANCH  21  22
ENDBRANCH  20  21
TORSDOF 4
ENDMDL
MODEL 8
REMARK VINA RESULT:      -6.7      2.972      8.975
REMARK  Name = 
REMARK  6 active torsions:
REMARK  status: ('A' for Active; 'I' for Inactive)
REMARK    1  A    between atoms: C_1  and  C_2
REMARK    2  A    between atoms: C_15  and  C_16
REMARK    3  A    between atoms: C_20  and  O_21
REMARK    4  A    between atoms: O_21  and  C_22
REMARK    5  A    between atoms: C_22  and  C_24
REMARK    6  A    between atoms: C_24  and  C_25
REMARK                            x       y       z     vdW  Elec       q    Type
REMARK                         _______ _______ _______ _____ _____    ______ ____
ROOT
ATOM      1  C   UNL     1       0.045   9.361  17.888  0.00  0.00    +0.000 C 
ATOM      2  C   UNL     1       1.240   9.674  18.823  0.00  0.00    +0.000 C 
ATOM      3  C   UNL     1       2.557   9.435  18.073  0.00  0.00    +0.000 C 
ATOM      4  C   UNL     1       2.775   7.947  17.757  0.00  0.00    +0.000 C 
ATOM      5  C   UNL     1       2.595   6.998  18.969  0.00  0.00    +0.000 C 
ATOM      6  C   UNL     1       1.333   7.327  19.825  0.00  0.00    +0.000 C 
ATOM      7  C   UNL     1       1.360   6.499  21.118  0.00  0.00    +0.000 C 
ATOM      8  C   UNL     1       1.463   5.001  20.836  0.00  0.00    +0.000 C 
ATOM      9  C   UNL     1       2.572   4.643  19.870  0.00  0.00    +0.000 C 
ATOM     10  C   UNL     1       3.405   3.626  20.155  0.00  0.00    +0.000 C 
ATOM     11  C   UNL     1       4.409   3.147  19.179  0.00  0.00    +0.000 C 
ATOM     12  O   UNL     1       5.178   2.238  19.498  0.00  0.00    +0.000 OA
ATOM     13  C   UNL     1       4.373   3.720  17.789  0.00  0.00    +0.000 C 
ATOM     14  C   UNL     1       4.009   5.195  17.850  0.00  0.00    +0.000 C 
ATOM     15  C   UNL     1       2.661   5.472  18.582  0.00  0.00    +0.000 C 
ATOM     16  C   UNL     1       1.498   5.056  17.649  0.00  0.00    +0.000 C 
ATOM     17  C   UNL     1       1.285   8.831  20.113  0.00  0.00    +0.000 C 
ATOM     18  C   UNL     1       0.120   9.378  20.937  0.00  0.00    +0.000 C 
ATOM     19  C   UNL     1       0.079  10.877  20.594  0.00  0.00    +0.000 C 
ATOM     20  C   UNL     1       1.080  11.084  19.438  0.00  0.00    +0.000 C 
ENDROOT
BRANCH  20  21
ATOM     21  O   UNL     1       0.591  12.052  18.501  0.00  0.00    +0.000 OA
BRANCH  21  22
ATOM     22  C   UNL     1       0.067  13.183  19.045  0.00  0.00    +0.000 C 
ATOM     23  O   UNL     1      -1.112  13.515  18.988  0.00  0.00    +0.000 OA
BRANCH  22  24
ATOM     24  C   UNL     1       1.132  14.020  19.716  0.00  0.00    +0.000 C 
BRANCH  24  25
ATOM     25  C   UNL     1       1.782  15.041  18.815  0.00  0.00    +0.000 A 
ATOM     26  C   UNL     1       1.232  16.325  18.676  0.00  0.00    +0.000 A 
ATOM     27  C   UNL     1       1.841  17.276  17.855  0.00  0.00    +0.000 A 
ATOM     28  C   UNL     1       2.998  16.955  17.149  0.00  0.00    +0.000 A 
ATOM     29  C   UNL     1       3.549  15.681  17.271  0.00  0.00    +0.000 A 
ATOM     30  C   UNL     1       2.949  14.730  18.103  0.00  0.00    +0.000 A 
ENDBRANCH  24  25
ENDBRANCH  22  24
ENDBRANCH  21  22
ENDBRANCH  20  21
TORSDOF 4
ENDMDL
MODEL 9
REMARK VINA RESULT:      -6.7      3.286      9.157
REMARK  Name = 
REMARK  6 active torsions:
REMARK  status: ('A' for Active; 'I' for Inactive)
REMARK    1  A    between atoms: C_1  and  C_2
REMARK    2  A    between atoms: C_15  and  C_16
REMARK    3  A    between atoms: C_20  and  O_21
REMARK    4  A    between atoms: O_21  and  C_22
REMARK    5  A    between atoms: C_22  and  C_24
REMARK    6  A    between atoms: C_24  and  C_25
REMARK                            x       y       z     vdW  Elec       q    Type
REMARK                         _______ _______ _______ _____ _____    ______ ____
ROOT
ATOM      1  C   UNL     1       0.050   9.476  17.949  0.00  0.00    +0.000 C 
ATOM      2  C   UNL     1       1.240   9.757  18.900  0.00  0.00    +0.000 C 
ATOM      3  C   UNL     1       2.561   9.522  18.156  0.00  0.00    +0.000 C 
ATOM      4  C   UNL     1       2.767   8.039  17.808  0.00  0.00    +0.000 C 
ATOM      5  C   UNL     1       2.569   7.065  18.997  0.00  0.00    +0.000 C 
ATOM      6  C   UNL     1       1.303   7.387  19.850  0.00  0.00    +0.000 C 
ATOM      7  C   UNL     1       1.311   6.529  21.124  0.00  0.00    +0.000 C 
ATOM      8  C   UNL     1       1.402   5.037  20.809  0.00  0.00    +0.000 C 
ATOM      9  C   UNL     1       2.515   4.690  19.845  0.00  0.00    +0.000 C 
ATOM     10  C   UNL     1       3.336   3.659  20.114  0.00  0.00    +0.000 C 
ATOM     11  C   UNL     1       4.344   3.192  19.135  0.00  0.00    +0.000 C 
ATOM     12  O   UNL     1       5.102   2.269  19.440  0.00  0.00    +0.000 OA
ATOM     13  C   UNL     1       4.325   3.797  17.758  0.00  0.00    +0.000 C 
ATOM     14  C   UNL     1       3.974   5.274  17.849  0.00  0.00    +0.000 C 
ATOM     15  C   UNL     1       2.623   5.547  18.577  0.00  0.00    +0.000 C 
ATOM     16  C   UNL     1       1.464   5.164  17.625  0.00  0.00    +0.000 C 
ATOM     17  C   UNL     1       1.266   8.884  20.171  0.00  0.00    +0.000 C 
ATOM     18  C   UNL     1       0.100   9.423  20.998  0.00  0.00    +0.000 C 
ATOM     19  C   UNL     1       0.076  10.930  20.688  0.00  0.00    +0.000 C 
ATOM     20  C   UNL     1       1.088  11.153  19.545  0.00  0.00    +0.000 C 
ENDROOT
BRANCH  20  21
ATOM     21  O   UNL     1       0.617  12.147  18.626  0.00  0.00    +0.000 OA
BRANCH  21  22
ATOM     22  C   UNL     1       1.448  13.206  18.429  0.00  0.00    +0.000 C 
ATOM     23  O   UNL     1       2.351  13.251  17.601  0.00  0.00    +0.000 OA
BRANCH  22  24
ATOM     24  C   UNL     1       1.148  14.332  19.391  0.00  0.00    +0.000 C 
BRANCH  24  25
ATOM     25  C   UNL     1       0.869  15.659  18.730  0.00  0.00    +0.000 A 
ATOM     26  C   UNL     1      -0.447  16.128  18.593  0.00  0.00    +0.000 A 
ATOM     27  C   UNL     1      -0.706  17.363  17.995  0.00  0.00    +0.000 A 
ATOM     28  C   UNL     1       0.343  18.140  17.511  0.00  0.00    +0.000 A 
ATOM     29  C   UNL     1       1.654  17.683  17.631  0.00  0.00    +0.000 A 
ATOM     30  C   UNL     1       1.917  16.452  18.242  0.00  0.00    +0.000 A 
ENDBRANCH  24  25
ENDBRANCH  22  24
ENDBRANCH  21  22
ENDBRANCH  20  21
TORSDOF 4
ENDMDL
