MODEL 1
REMARK VINA RESULT:      -7.2      0.000      0.000
REMARK  Name = 
REMARK  11 active torsions:
REMARK  status: ('A' for Active; 'I' for Inactive)
REMARK    1  A    between atoms: C_1  and  C_2
REMARK    2  A    between atoms: C_2  and  C_3
REMARK    3  A    between atoms: C_3  and  C_4
REMARK    4  A    between atoms: N_6  and  C_7
REMARK    5  A    between atoms: C_8  and  C_9
REMARK    6  A    between atoms: C_11  and  O_12
REMARK    7  A    between atoms: O_12  and  C_13
REMARK    8  A    between atoms: C_14  and  O_15
REMARK    9  A    between atoms: O_15  and  C_16
REMARK   10  A    between atoms: C_17  and  O_18
REMARK   11  A    between atoms: O_18  and  C_19
REMARK                            x       y       z     vdW  Elec       q    Type
REMARK                         _______ _______ _______ _____ _____    ______ ____
ROOT
ATOM      1  C   UNL     1       3.515   4.988  19.802  0.00  0.00    +0.000 A 
ATOM      2  C   UNL     1       3.758   5.926  18.845  0.00  0.00    +0.000 A 
ATOM      3  C   UNL     1       2.854   7.115  18.837  0.00  0.00    +0.000 A 
ATOM      4  C   UNL     1       2.931   8.143  17.882  0.00  0.00    +0.000 A 
ATOM      5  C   UNL     1       2.084   9.258  17.932  0.00  0.00    +0.000 A 
ATOM      6  C   UNL     1       1.101   9.345  18.908  0.00  0.00    +0.000 A 
ATOM      7  C   UNL     1       0.970   8.320  19.837  0.00  0.00    +0.000 A 
ATOM      8  C   UNL     1       1.845   7.231  19.794  0.00  0.00    +0.000 A 
ATOM      9  O   UNL     1       1.631   6.249  20.766  0.00  0.00    +0.000 OA
ATOM     10  C   UNL     1       2.403   5.111  20.801  0.00  0.00    +0.000 A 
ATOM     11  O   UNL     1       2.217   4.234  21.638  0.00  0.00    +0.000 OA
ENDROOT
BRANCH   2  12
ATOM     12  C   UNL     1       4.856   5.705  17.836  0.00  0.00    +0.000 A 
ATOM     13  C   UNL     1       4.758   4.702  16.865  0.00  0.00    +0.000 A 
ATOM     14  C   UNL     1       5.774   4.479  15.930  0.00  0.00    +0.000 A 
ATOM     15  C   UNL     1       6.877   5.355  15.879  0.00  0.00    +0.000 A 
ATOM     16  C   UNL     1       6.976   6.403  16.813  0.00  0.00    +0.000 A 
ATOM     17  C   UNL     1       5.995   6.522  17.812  0.00  0.00    +0.000 A 
BRANCH  14  18
ATOM     18  O   UNL     1       5.759   3.437  15.033  0.00  0.00    +0.000 OA
ATOM     19  C   UNL     1       5.165   3.685  13.763  0.00  0.00    +0.000 C 
ENDBRANCH  14  18
BRANCH  15  20
ATOM     20  O   UNL     1       7.829   5.052  14.932  0.00  0.00    +0.000 OA
ATOM     21  C   UNL     1       7.707   5.716  13.680  0.00  0.00    +0.000 C 
ENDBRANCH  15  20
BRANCH  16  22
ATOM     22  O   UNL     1       8.054   7.246  16.728  0.00  0.00    +0.000 OA
ATOM     23  C   UNL     1       8.117   8.338  17.634  0.00  0.00    +0.000 C 
ENDBRANCH  16  22
ENDBRANCH   2  12
BRANCH   1  26
ATOM     24  C   UNL     1       3.757   2.558  19.521  0.00  0.00    +0.000 C 
ATOM     25  O   UNL     1       4.534   1.607  19.495  0.00  0.00    +0.000 OA
ATOM     26  N   UNL     1       4.219   3.793  19.906  0.00  0.00    +0.000 N 
ATOM     27  H   UNL     1       5.196   3.838  19.621  0.00  0.00    +0.000 HD
BRANCH  24  28
ATOM     28  C   UNL     1       2.306   2.458  19.083  0.00  0.00    +0.000 C 
BRANCH  28  30
ATOM     29  C   UNL     1       1.203   3.972  17.434  0.00  0.00    +0.000 C 
ATOM     30  C   UNL     1       2.112   2.768  17.605  0.00  0.00    +0.000 C 
ENDBRANCH  28  30
ENDBRANCH  24  28
ENDBRANCH   1  26
TORSDOF 7
ENDMDL
MODEL 2
REMARK VINA RESULT:      -7.2      0.098      2.341
REMARK  Name = 
REMARK  11 active torsions:
REMARK  status: ('A' for Active; 'I' for Inactive)
REMARK    1  A    between atoms: C_1  and  C_2
REMARK    2  A    between atoms: C_2  and  C_3
REMARK    3  A    between atoms: C_3  and  C_4
REMARK    4  A    between atoms: N_6  and  C_7
REMARK    5  A    between atoms: C_8  and  C_9
REMARK    6  A    between atoms: C_11  and  O_12
REMARK    7  A    between atoms: O_12  and  C_13
REMARK    8  A    between atoms: C_14  and  O_15
REMARK    9  A    between atoms: O_15  and  C_16
REMARK   10  A    between atoms: C_17  and  O_18
REMARK   11  A    between atoms: O_18  and  C_19
REMARK                            x       y       z     vdW  Elec       q    Type
REMARK                         _______ _______ _______ _____ _____    ______ ____
ROOT
ATOM      1  C   UNL     1       3.479   5.062  19.807  0.00  0.00    +0.000 A 
ATOM      2  C   UNL     1       3.693   5.997  18.840  0.00  0.00    +0.000 A 
ATOM      3  C   UNL     1       2.781   7.180  18.851  0.00  0.00    +0.000 A 
ATOM      4  C   UNL     1       2.828   8.206  17.890  0.00  0.00    +0.000 A 
ATOM      5  C   UNL     1       1.976   9.316  17.956  0.00  0.00    +0.000 A 
ATOM      6  C   UNL     1       1.016   9.400  18.955  0.00  0.00    +0.000 A 
ATOM      7  C   UNL     1       0.914   8.378  19.891  0.00  0.00    +0.000 A 
ATOM      8  C   UNL     1       1.795   7.293  19.831  0.00  0.00    +0.000 A 
ATOM      9  O   UNL     1       1.611   6.315  20.812  0.00  0.00    +0.000 OA
ATOM     10  C   UNL     1       2.392   5.181  20.832  0.00  0.00    +0.000 A 
ATOM     11  O   UNL     1       2.231   4.306  21.676  0.00  0.00    +0.000 OA
ENDROOT
BRANCH   2  12
ATOM     12  C   UNL     1       4.768   5.780  17.807  0.00  0.00    +0.000 A 
ATOM     13  C   UNL     1       5.932   6.557  17.797  0.00  0.00    +0.000 A 
ATOM     14  C   UNL     1       6.933   6.374  16.838  0.00  0.00    +0.000 A 
ATOM     15  C   UNL     1       6.835   5.304  15.924  0.00  0.00    +0.000 A 
ATOM     16  C   UNL     1       5.697   4.476  15.945  0.00  0.00    +0.000 A 
ATOM     17  C   UNL     1       4.657   4.766  16.846  0.00  0.00    +0.000 A 
BRANCH  14  18
ATOM     18  O   UNL     1       8.037   7.187  16.732  0.00  0.00    +0.000 OA
ATOM     19  C   UNL     1       8.079   8.334  17.574  0.00  0.00    +0.000 C 
ENDBRANCH  14  18
BRANCH  15  20
ATOM     20  O   UNL     1       7.862   5.207  15.014  0.00  0.00    +0.000 OA
ATOM     21  C   UNL     1       7.570   5.620  13.685  0.00  0.00    +0.000 C 
ENDBRANCH  15  20
BRANCH  16  22
ATOM     22  O   UNL     1       5.637   3.436  15.053  0.00  0.00    +0.000 OA
ATOM     23  C   UNL     1       5.133   3.703  13.754  0.00  0.00    +0.000 C 
ENDBRANCH  16  22
ENDBRANCH   2  12
BRANCH   1  26
ATOM     24  C   UNL     1       3.730   2.632  19.530  0.00  0.00    +0.000 C 
ATOM     25  O   UNL     1       4.513   1.686  19.488  0.00  0.00    +0.000 OA
ATOM     26  N   UNL     1       4.194   3.872  19.898  0.00  0.00    +0.000 N 
ATOM     27  H   UNL     1       5.163   3.921  19.588  0.00  0.00    +0.000 HD
BRANCH  24  28
ATOM     28  C   UNL     1       2.269   2.521  19.129  0.00  0.00    +0.000 C 
BRANCH  28  30
ATOM     29  C   UNL     1       1.165   3.996  17.445  0.00  0.00    +0.000 C 
ATOM     30  C   UNL     1       2.043   2.773  17.644  0.00  0.00    +0.000 C 
ENDBRANCH  28  30
ENDBRANCH  24  28
ENDBRANCH   1  26
TORSDOF 7
ENDMDL
MODEL 3
REMARK VINA RESULT:      -6.8      8.096     12.882
REMARK  Name = 
REMARK  11 active torsions:
REMARK  status: ('A' for Active; 'I' for Inactive)
REMARK    1  A    between atoms: C_1  and  C_2
REMARK    2  A    between atoms: C_2  and  C_3
REMARK    3  A    between atoms: C_3  and  C_4
REMARK    4  A    between atoms: N_6  and  C_7
REMARK    5  A    between atoms: C_8  and  C_9
REMARK    6  A    between atoms: C_11  and  O_12
REMARK    7  A    between atoms: O_12  and  C_13
REMARK    8  A    between atoms: C_14  and  O_15
REMARK    9  A    between atoms: O_15  and  C_16
REMARK   10  A    between atoms: C_17  and  O_18
REMARK   11  A    between atoms: O_18  and  C_19
REMARK                            x       y       z     vdW  Elec       q    Type
REMARK                         _______ _______ _______ _____ _____    ______ ____
ROOT
ATOM      1  C   UNL     1      -4.144  12.168  18.461  0.00  0.00    +0.000 A 
ATOM      2  C   UNL     1      -3.314  12.281  19.534  0.00  0.00    +0.000 A 
ATOM      3  C   UNL     1      -2.009  11.560  19.441  0.00  0.00    +0.000 A 
ATOM      4  C   UNL     1      -1.064  11.526  20.481  0.00  0.00    +0.000 A 
ATOM      5  C   UNL     1       0.163  10.865  20.339  0.00  0.00    +0.000 A 
ATOM      6  C   UNL     1       0.453  10.175  19.170  0.00  0.00    +0.000 A 
ATOM      7  C   UNL     1      -0.482  10.152  18.143  0.00  0.00    +0.000 A 
ATOM      8  C   UNL     1      -1.688  10.845  18.288  0.00  0.00    +0.000 A 
ATOM      9  O   UNL     1      -2.565  10.758  17.202  0.00  0.00    +0.000 OA
ATOM     10  C   UNL     1      -3.800  11.365  17.243  0.00  0.00    +0.000 A 
ATOM     11  O   UNL     1      -4.586  11.284  16.305  0.00  0.00    +0.000 OA
ENDROOT
BRANCH   2  12
ATOM     12  C   UNL     1      -3.755  13.057  20.749  0.00  0.00    +0.000 A 
ATOM     13  C   UNL     1      -3.494  14.428  20.867  0.00  0.00    +0.000 A 
ATOM     14  C   UNL     1      -3.887  15.158  21.993  0.00  0.00    +0.000 A 
ATOM     15  C   UNL     1      -4.671  14.537  22.987  0.00  0.00    +0.000 A 
ATOM     16  C   UNL     1      -4.990  13.172  22.867  0.00  0.00    +0.000 A 
ATOM     17  C   UNL     1      -4.476  12.442  21.782  0.00  0.00    +0.000 A 
BRANCH  14  18
ATOM     18  O   UNL     1      -3.555  16.478  22.192  0.00  0.00    +0.000 OA
ATOM     19  C   UNL     1      -4.010  17.413  21.220  0.00  0.00    +0.000 C 
ENDBRANCH  14  18
BRANCH  15  20
ATOM     20  O   UNL     1      -5.004  15.332  24.059  0.00  0.00    +0.000 OA
ATOM     21  C   UNL     1      -6.276  15.968  24.003  0.00  0.00    +0.000 C 
ENDBRANCH  15  20
BRANCH  16  22
ATOM     22  O   UNL     1      -5.765  12.600  23.844  0.00  0.00    +0.000 OA
ATOM     23  C   UNL     1      -7.151  12.439  23.582  0.00  0.00    +0.000 C 
ENDBRANCH  16  22
ENDBRANCH   2  12
BRANCH   1  26
ATOM     24  C   UNL     1      -6.578  12.089  18.798  0.00  0.00    +0.000 C 
ATOM     25  O   UNL     1      -7.618  12.738  18.879  0.00  0.00    +0.000 OA
ATOM     26  N   UNL     1      -5.421  12.720  18.413  0.00  0.00    +0.000 N 
ATOM     27  H   UNL     1      -5.492  13.681  18.744  0.00  0.00    +0.000 HD
BRANCH  24  28
ATOM     28  C   UNL     1      -6.485  10.619  19.168  0.00  0.00    +0.000 C 
BRANCH  28  30
ATOM     29  C   UNL     1      -7.509   8.738  20.449  0.00  0.00    +0.000 C 
ATOM     30  C   UNL     1      -7.377  10.247  20.345  0.00  0.00    +0.000 C 
ENDBRANCH  28  30
ENDBRANCH  24  28
ENDBRANCH   1  26
TORSDOF 7
ENDMDL
MODEL 4
REMARK VINA RESULT:      -6.8      2.121      6.592
REMARK  Name = 
REMARK  11 active torsions:
REMARK  status: ('A' for Active; 'I' for Inactive)
REMARK    1  A    between atoms: C_1  and  C_2
REMARK    2  A    between atoms: C_2  and  C_3
REMARK    3  A    between atoms: C_3  and  C_4
REMARK    4  A    between atoms: N_6  and  C_7
REMARK    5  A    between atoms: C_8  and  C_9
REMARK    6  A    between atoms: C_11  and  O_12
REMARK    7  A    between atoms: O_12  and  C_13
REMARK    8  A    between atoms: C_14  and  O_15
REMARK    9  A    between atoms: O_15  and  C_16
REMARK   10  A    between atoms: C_17  and  O_18
REMARK   11  A    between atoms: O_18  and  C_19
REMARK                            x       y       z     vdW  Elec       q    Type
REMARK                         _______ _______ _______ _____ _____    ______ ____
ROOT
ATOM      1  C   UNL     1       3.958   5.433  17.367  0.00  0.00    +0.000 A 
ATOM      2  C   UNL     1       2.904   5.522  18.224  0.00  0.00    +0.000 A 
ATOM      3  C   UNL     1       2.246   4.235  18.601  0.00  0.00    +0.000 A 
ATOM      4  C   UNL     1       1.112   4.156  19.428  0.00  0.00    +0.000 A 
ATOM      5  C   UNL     1       0.545   2.925  19.784  0.00  0.00    +0.000 A 
ATOM      6  C   UNL     1       1.068   1.743  19.276  0.00  0.00    +0.000 A 
ATOM      7  C   UNL     1       2.160   1.794  18.418  0.00  0.00    +0.000 A 
ATOM      8  C   UNL     1       2.734   3.029  18.100  0.00  0.00    +0.000 A 
ATOM      9  O   UNL     1       3.824   2.977  17.226  0.00  0.00    +0.000 OA
ATOM     10  C   UNL     1       4.448   4.131  16.808  0.00  0.00    +0.000 A 
ATOM     11  O   UNL     1       5.395   4.102  16.030  0.00  0.00    +0.000 OA
ENDROOT
BRANCH   2  12
ATOM     12  C   UNL     1       2.431   6.873  18.698  0.00  0.00    +0.000 A 
ATOM     13  C   UNL     1       2.281   7.942  17.806  0.00  0.00    +0.000 A 
ATOM     14  C   UNL     1       1.853   9.203  18.233  0.00  0.00    +0.000 A 
ATOM     15  C   UNL     1       1.445   9.385  19.570  0.00  0.00    +0.000 A 
ATOM     16  C   UNL     1       1.539   8.311  20.476  0.00  0.00    +0.000 A 
ATOM     17  C   UNL     1       2.086   7.093  20.038  0.00  0.00    +0.000 A 
BRANCH  14  18
ATOM     18  O   UNL     1       1.797  10.301  17.407  0.00  0.00    +0.000 OA
ATOM     19  C   UNL     1       2.677  11.380  17.705  0.00  0.00    +0.000 C 
ENDBRANCH  14  18
BRANCH  15  20
ATOM     20  O   UNL     1       1.047  10.660  19.899  0.00  0.00    +0.000 OA
ATOM     21  C   UNL     1      -0.343  10.938  19.778  0.00  0.00    +0.000 C 
ENDBRANCH  15  20
BRANCH  16  22
ATOM     22  O   UNL     1       1.122   8.515  21.767  0.00  0.00    +0.000 OA
ATOM     23  C   UNL     1      -0.254   8.325  22.058  0.00  0.00    +0.000 C 
ENDBRANCH  16  22
ENDBRANCH   2  12
BRANCH   1  26
ATOM     24  C   UNL     1       5.834   7.021  17.337  0.00  0.00    +0.000 C 
ATOM     25  O   UNL     1       6.424   7.891  16.701  0.00  0.00    +0.000 OA
ATOM     26  N   UNL     1       4.638   6.538  16.865  0.00  0.00    +0.000 N 
ATOM     27  H   UNL     1       4.683   6.597  15.849  0.00  0.00    +0.000 HD
BRANCH  24  28
ATOM     28  C   UNL     1       6.393   6.394  18.602  0.00  0.00    +0.000 C 
BRANCH  28  30
ATOM     29  C   UNL     1       7.968   4.554  18.003  0.00  0.00    +0.000 C 
ATOM     30  C   UNL     1       7.856   5.995  18.468  0.00  0.00    +0.000 C 
ENDBRANCH  28  30
ENDBRANCH  24  28
ENDBRANCH   1  26
TORSDOF 7
ENDMDL
MODEL 5
REMARK VINA RESULT:      -6.8      2.022      6.085
REMARK  Name = 
REMARK  11 active torsions:
REMARK  status: ('A' for Active; 'I' for Inactive)
REMARK    1  A    between atoms: C_1  and  C_2
REMARK    2  A    between atoms: C_2  and  C_3
REMARK    3  A    between atoms: C_3  and  C_4
REMARK    4  A    between atoms: N_6  and  C_7
REMARK    5  A    between atoms: C_8  and  C_9
REMARK    6  A    between atoms: C_11  and  O_12
REMARK    7  A    between atoms: O_12  and  C_13
REMARK    8  A    between atoms: C_14  and  O_15
REMARK    9  A    between atoms: O_15  and  C_16
REMARK   10  A    between atoms: C_17  and  O_18
REMARK   11  A    between atoms: O_18  and  C_19
REMARK                            x       y       z     vdW  Elec       q    Type
REMARK                         _______ _______ _______ _____ _____    ______ ____
ROOT
ATOM      1  C   UNL     1       2.866   4.576  18.039  0.00  0.00    +0.000 A 
ATOM      2  C   UNL     1       3.470   5.796  18.004  0.00  0.00    +0.000 A 
ATOM      3  C   UNL     1       4.865   5.829  17.470  0.00  0.00    +0.000 A 
ATOM      4  C   UNL     1       5.650   6.994  17.419  0.00  0.00    +0.000 A 
ATOM      5  C   UNL     1       6.943   6.988  16.879  0.00  0.00    +0.000 A 
ATOM      6  C   UNL     1       7.504   5.802  16.425  0.00  0.00    +0.000 A 
ATOM      7  C   UNL     1       6.768   4.625  16.506  0.00  0.00    +0.000 A 
ATOM      8  C   UNL     1       5.467   4.656  17.017  0.00  0.00    +0.000 A 
ATOM      9  O   UNL     1       4.811   3.422  17.062  0.00  0.00    +0.000 OA
ATOM     10  C   UNL     1       3.540   3.318  17.581  0.00  0.00    +0.000 A 
ATOM     11  O   UNL     1       2.958   2.240  17.643  0.00  0.00    +0.000 OA
ENDROOT
BRANCH   2  12
ATOM     12  C   UNL     1       2.750   7.009  18.537  0.00  0.00    +0.000 A 
ATOM     13  C   UNL     1       2.494   8.116  17.721  0.00  0.00    +0.000 A 
ATOM     14  C   UNL     1       1.837   9.252  18.204  0.00  0.00    +0.000 A 
ATOM     15  C   UNL     1       1.309   9.248  19.512  0.00  0.00    +0.000 A 
ATOM     16  C   UNL     1       1.510   8.126  20.338  0.00  0.00    +0.000 A 
ATOM     17  C   UNL     1       2.279   7.052  19.856  0.00  0.00    +0.000 A 
BRANCH  14  18
ATOM     18  O   UNL     1       1.663  10.398  17.464  0.00  0.00    +0.000 OA
ATOM     19  C   UNL     1       2.499  11.506  17.779  0.00  0.00    +0.000 C 
ENDBRANCH  14  18
BRANCH  15  20
ATOM     20  O   UNL     1       0.686  10.410  19.902  0.00  0.00    +0.000 OA
ATOM     21  C   UNL     1      -0.729  10.446  19.762  0.00  0.00    +0.000 C 
ENDBRANCH  15  20
BRANCH  16  22
ATOM     22  O   UNL     1       0.973   8.146  21.599  0.00  0.00    +0.000 OA
ATOM     23  C   UNL     1       1.481   9.096  22.523  0.00  0.00    +0.000 C 
ENDBRANCH  16  22
ENDBRANCH   2  12
BRANCH   1  26
ATOM     24  C   UNL     1       1.314   4.116  19.888  0.00  0.00    +0.000 C 
ATOM     25  O   UNL     1       0.144   4.120  20.263  0.00  0.00    +0.000 OA
ATOM     26  N   UNL     1       1.597   4.361  18.567  0.00  0.00    +0.000 N 
ATOM     27  H   UNL     1       0.872   4.990  18.228  0.00  0.00    +0.000 HD
BRANCH  24  28
ATOM     28  C   UNL     1       2.488   3.915  20.831  0.00  0.00    +0.000 C 
BRANCH  28  30
ATOM     29  C   UNL     1       4.191   2.092  20.842  0.00  0.00    +0.000 C 
ATOM     30  C   UNL     1       2.748   2.449  21.149  0.00  0.00    +0.000 C 
ENDBRANCH  28  30
ENDBRANCH  24  28
ENDBRANCH   1  26
TORSDOF 7
ENDMDL
MODEL 6
REMARK VINA RESULT:      -6.7      8.136     12.519
REMARK  Name = 
REMARK  11 active torsions:
REMARK  status: ('A' for Active; 'I' for Inactive)
REMARK    1  A    between atoms: C_1  and  C_2
REMARK    2  A    between atoms: C_2  and  C_3
REMARK    3  A    between atoms: C_3  and  C_4
REMARK    4  A    between atoms: N_6  and  C_7
REMARK    5  A    between atoms: C_8  and  C_9
REMARK    6  A    between atoms: C_11  and  O_12
REMARK    7  A    between atoms: O_12  and  C_13
REMARK    8  A    between atoms: C_14  and  O_15
REMARK    9  A    between atoms: O_15  and  C_16
REMARK   10  A    between atoms: C_17  and  O_18
REMARK   11  A    between atoms: O_18  and  C_19
REMARK                            x       y       z     vdW  Elec       q    Type
REMARK                         _______ _______ _______ _____ _____    ______ ____
ROOT
ATOM      1  C   UNL     1      -1.509  12.472  20.317  0.00  0.00    +0.000 A 
ATOM      2  C   UNL     1      -2.789  12.422  19.857  0.00  0.00    +0.000 A 
ATOM      3  C   UNL     1      -3.003  11.682  18.576  0.00  0.00    +0.000 A 
ATOM      4  C   UNL     1      -4.251  11.585  17.935  0.00  0.00    +0.000 A 
ATOM      5  C   UNL     1      -4.414  10.853  16.751  0.00  0.00    +0.000 A 
ATOM      6  C   UNL     1      -3.321  10.245  16.150  0.00  0.00    +0.000 A 
ATOM      7  C   UNL     1      -2.067  10.364  16.736  0.00  0.00    +0.000 A 
ATOM      8  C   UNL     1      -1.927  11.070  17.935  0.00  0.00    +0.000 A 
ATOM      9  O   UNL     1      -0.626  11.138  18.444  0.00  0.00    +0.000 OA
ATOM     10  C   UNL     1      -0.356  11.839  19.598  0.00  0.00    +0.000 A 
ATOM     11  O   UNL     1       0.782  11.921  20.047  0.00  0.00    +0.000 OA
ENDROOT
BRANCH   2  12
ATOM     12  C   UNL     1      -3.887  13.134  20.604  0.00  0.00    +0.000 A 
ATOM     13  C   UNL     1      -4.104  14.507  20.440  0.00  0.00    +0.000 A 
ATOM     14  C   UNL     1      -5.112  15.183  21.135  0.00  0.00    +0.000 A 
ATOM     15  C   UNL     1      -6.015  14.453  21.934  0.00  0.00    +0.000 A 
ATOM     16  C   UNL     1      -5.850  13.063  22.077  0.00  0.00    +0.000 A 
ATOM     17  C   UNL     1      -4.754  12.438  21.459  0.00  0.00    +0.000 A 
BRANCH  14  18
ATOM     18  O   UNL     1      -5.284  16.546  21.080  0.00  0.00    +0.000 OA
ATOM     19  C   UNL     1      -4.112  17.342  20.948  0.00  0.00    +0.000 C 
ENDBRANCH  14  18
BRANCH  15  20
ATOM     20  O   UNL     1      -6.968  15.203  22.584  0.00  0.00    +0.000 OA
ATOM     21  C   UNL     1      -6.664  15.592  23.919  0.00  0.00    +0.000 C 
ENDBRANCH  15  20
BRANCH  16  22
ATOM     22  O   UNL     1      -6.753  12.379  22.850  0.00  0.00    +0.000 OA
ATOM     23  C   UNL     1      -7.902  11.842  22.213  0.00  0.00    +0.000 C 
ENDBRANCH  16  22
ENDBRANCH   2  12
BRANCH   1  26
ATOM     24  C   UNL     1      -1.053  12.656  22.726  0.00  0.00    +0.000 C 
ATOM     25  O   UNL     1      -0.533  13.323  23.617  0.00  0.00    +0.000 OA
ATOM     26  N   UNL     1      -1.128  13.175  21.456  0.00  0.00    +0.000 N 
ATOM     27  H   UNL     1      -0.317  13.780  21.343  0.00  0.00    +0.000 HD
BRANCH  24  28
ATOM     28  C   UNL     1      -1.567  11.243  22.937  0.00  0.00    +0.000 C 
BRANCH  28  30
ATOM     29  C   UNL     1      -0.451   9.169  22.114  0.00  0.00    +0.000 C 
ATOM     30  C   UNL     1      -0.451  10.239  23.191  0.00  0.00    +0.000 C 
ENDBRANCH  28  30
ENDBRANCH  24  28
ENDBRANCH   1  26
TORSDOF 7
ENDMDL
MODEL 7
REMARK VINA RESULT:      -6.7      7.283     10.602
REMARK  Name = 
REMARK  11 active torsions:
REMARK  status: ('A' for Active; 'I' for Inactive)
REMARK    1  A    between atoms: C_1  and  C_2
REMARK    2  A    between atoms: C_2  and  C_3
REMARK    3  A    between atoms: C_3  and  C_4
REMARK    4  A    between atoms: N_6  and  C_7
REMARK    5  A    between atoms: C_8  and  C_9
REMARK    6  A    between atoms: C_11  and  O_12
REMARK    7  A    between atoms: O_12  and  C_13
REMARK    8  A    between atoms: C_14  and  O_15
REMARK    9  A    between atoms: O_15  and  C_16
REMARK   10  A    between atoms: C_17  and  O_18
REMARK   11  A    between atoms: O_18  and  C_19
REMARK                            x       y       z     vdW  Elec       q    Type
REMARK                         _______ _______ _______ _____ _____    ______ ____
ROOT
ATOM      1  C   UNL     1      -3.626  13.184  21.719  0.00  0.00    +0.000 A 
ATOM      2  C   UNL     1      -3.369  12.864  20.421  0.00  0.00    +0.000 A 
ATOM      3  C   UNL     1      -4.483  12.217  19.664  0.00  0.00    +0.000 A 
ATOM      4  C   UNL     1      -4.365  11.771  18.336  0.00  0.00    +0.000 A 
ATOM      5  C   UNL     1      -5.446  11.200  17.653  0.00  0.00    +0.000 A 
ATOM      6  C   UNL     1      -6.659  11.009  18.300  0.00  0.00    +0.000 A 
ATOM      7  C   UNL     1      -6.791  11.397  19.628  0.00  0.00    +0.000 A 
ATOM      8  C   UNL     1      -5.712  11.997  20.285  0.00  0.00    +0.000 A 
ATOM      9  O   UNL     1      -5.941  12.347  21.619  0.00  0.00    +0.000 OA
ATOM     10  C   UNL     1      -4.942  12.908  22.382  0.00  0.00    +0.000 A 
ATOM     11  O   UNL     1      -5.123  13.206  23.558  0.00  0.00    +0.000 OA
ENDROOT
BRANCH   2  12
ATOM     12  C   UNL     1      -2.001  13.118  19.839  0.00  0.00    +0.000 A 
ATOM     13  C   UNL     1      -1.479  14.414  19.755  0.00  0.00    +0.000 A 
ATOM     14  C   UNL     1      -0.217  14.665  19.208  0.00  0.00    +0.000 A 
ATOM     15  C   UNL     1       0.610  13.585  18.838  0.00  0.00    +0.000 A 
ATOM     16  C   UNL     1       0.127  12.268  18.960  0.00  0.00    +0.000 A 
ATOM     17  C   UNL     1      -1.191  12.061  19.401  0.00  0.00    +0.000 A 
BRANCH  14  18
ATOM     18  O   UNL     1       0.283  15.931  19.011  0.00  0.00    +0.000 OA
ATOM     19  C   UNL     1      -0.514  16.830  18.248  0.00  0.00    +0.000 C 
ENDBRANCH  14  18
BRANCH  15  20
ATOM     20  O   UNL     1       1.830  13.929  18.304  0.00  0.00    +0.000 OA
ATOM     21  C   UNL     1       2.940  13.899  19.194  0.00  0.00    +0.000 C 
ENDBRANCH  15  20
BRANCH  16  22
ATOM     22  O   UNL     1       0.960  11.238  18.604  0.00  0.00    +0.000 OA
ATOM     23  C   UNL     1       0.388   9.952  18.426  0.00  0.00    +0.000 C 
ENDBRANCH  16  22
ENDBRANCH   2  12
BRANCH   1  26
ATOM     24  C   UNL     1      -1.713  13.023  23.253  0.00  0.00    +0.000 C 
ATOM     25  O   UNL     1      -0.824  13.633  23.842  0.00  0.00    +0.000 OA
ATOM     26  N   UNL     1      -2.679  13.729  22.580  0.00  0.00    +0.000 N 
ATOM     27  H   UNL     1      -2.236  14.586  22.253  0.00  0.00    +0.000 HD
BRANCH  24  28
ATOM     28  C   UNL     1      -1.769  11.507  23.173  0.00  0.00    +0.000 C 
BRANCH  28  30
ATOM     29  C   UNL     1      -0.456   9.405  22.886  0.00  0.00    +0.000 C 
ATOM     30  C   UNL     1      -0.492  10.897  22.611  0.00  0.00    +0.000 C 
ENDBRANCH  28  30
ENDBRANCH  24  28
ENDBRANCH   1  26
TORSDOF 7
ENDMDL
MODEL 8
REMARK VINA RESULT:      -6.7      2.032      6.084
REMARK  Name = 
REMARK  11 active torsions:
REMARK  status: ('A' for Active; 'I' for Inactive)
REMARK    1  A    between atoms: C_1  and  C_2
REMARK    2  A    between atoms: C_2  and  C_3
REMARK    3  A    between atoms: C_3  and  C_4
REMARK    4  A    between atoms: N_6  and  C_7
REMARK    5  A    between atoms: C_8  and  C_9
REMARK    6  A    between atoms: C_11  and  O_12
REMARK    7  A    between atoms: O_12  and  C_13
REMARK    8  A    between atoms: C_14  and  O_15
REMARK    9  A    between atoms: O_15  and  C_16
REMARK   10  A    between atoms: C_17  and  O_18
REMARK   11  A    between atoms: O_18  and  C_19
REMARK                            x       y       z     vdW  Elec       q    Type
REMARK                         _______ _______ _______ _____ _____    ______ ____
ROOT
ATOM      1  C   UNL     1       2.888   4.582  18.051  0.00  0.00    +0.000 A 
ATOM      2  C   UNL     1       3.462   5.817  18.028  0.00  0.00    +0.000 A 
ATOM      3  C   UNL     1       4.869   5.884  17.530  0.00  0.00    +0.000 A 
ATOM      4  C   UNL     1       5.625   7.068  17.497  0.00  0.00    +0.000 A 
ATOM      5  C   UNL     1       6.932   7.093  16.991  0.00  0.00    +0.000 A 
ATOM      6  C   UNL     1       7.534   5.920  16.556  0.00  0.00    +0.000 A 
ATOM      7  C   UNL     1       6.827   4.726  16.621  0.00  0.00    +0.000 A 
ATOM      8  C   UNL     1       5.512   4.724  17.098  0.00  0.00    +0.000 A 
ATOM      9  O   UNL     1       4.886   3.475  17.130  0.00  0.00    +0.000 OA
ATOM     10  C   UNL     1       3.606   3.339  17.616  0.00  0.00    +0.000 A 
ATOM     11  O   UNL     1       3.050   2.248  17.665  0.00  0.00    +0.000 OA
ENDROOT
BRANCH   2  12
ATOM     12  C   UNL     1       2.698   7.012  18.537  0.00  0.00    +0.000 A 
ATOM     13  C   UNL     1       2.221   7.061  19.853  0.00  0.00    +0.000 A 
ATOM     14  C   UNL     1       1.502   8.158  20.336  0.00  0.00    +0.000 A 
ATOM     15  C   UNL     1       1.348   9.301  19.525  0.00  0.00    +0.000 A 
ATOM     16  C   UNL     1       1.861   9.297  18.214  0.00  0.00    +0.000 A 
ATOM     17  C   UNL     1       2.473   8.131  17.724  0.00  0.00    +0.000 A 
BRANCH  14  18
ATOM     18  O   UNL     1       0.928   8.195  21.585  0.00  0.00    +0.000 OA
ATOM     19  C   UNL     1       1.490   9.099  22.529  0.00  0.00    +0.000 C 
ENDBRANCH  14  18
BRANCH  15  20
ATOM     20  O   UNL     1       0.620  10.327  20.082  0.00  0.00    +0.000 OA
ATOM     21  C   UNL     1      -0.742  10.426  19.682  0.00  0.00    +0.000 C 
ENDBRANCH  15  20
BRANCH  16  22
ATOM     22  O   UNL     1       1.707  10.429  17.455  0.00  0.00    +0.000 OA
ATOM     23  C   UNL     1       2.434  11.587  17.834  0.00  0.00    +0.000 C 
ENDBRANCH  16  22
ENDBRANCH   2  12
BRANCH   1  26
ATOM     24  C   UNL     1       1.301   4.077  19.859  0.00  0.00    +0.000 C 
ATOM     25  O   UNL     1       0.123   4.053  20.204  0.00  0.00    +0.000 OA
ATOM     26  N   UNL     1       1.611   4.336  18.546  0.00  0.00    +0.000 N 
ATOM     27  H   UNL     1       0.881   4.951  18.193  0.00  0.00    +0.000 HD
BRANCH  24  28
ATOM     28  C   UNL     1       2.455   3.897  20.830  0.00  0.00    +0.000 C 
BRANCH  28  30
ATOM     29  C   UNL     1       4.157   2.073  20.877  0.00  0.00    +0.000 C 
ATOM     30  C   UNL     1       2.714   2.438  21.177  0.00  0.00    +0.000 C 
ENDBRANCH  28  30
ENDBRANCH  24  28
ENDBRANCH   1  26
TORSDOF 7
ENDMDL
MODEL 9
REMARK VINA RESULT:      -6.7      7.192     10.334
REMARK  Name = 
REMARK  11 active torsions:
REMARK  status: ('A' for Active; 'I' for Inactive)
REMARK    1  A    between atoms: C_1  and  C_2
REMARK    2  A    between atoms: C_2  and  C_3
REMARK    3  A    between atoms: C_3  and  C_4
REMARK    4  A    between atoms: N_6  and  C_7
REMARK    5  A    between atoms: C_8  and  C_9
REMARK    6  A    between atoms: C_11  and  O_12
REMARK    7  A    between atoms: O_12  and  C_13
REMARK    8  A    between atoms: C_14  and  O_15
REMARK    9  A    between atoms: O_15  and  C_16
REMARK   10  A    between atoms: C_17  and  O_18
REMARK   11  A    between atoms: O_18  and  C_19
REMARK                            x       y       z     vdW  Elec       q    Type
REMARK                         _______ _______ _______ _____ _____    ______ ____
ROOT
ATOM      1  C   UNL     1      -3.553  13.168  21.684  0.00  0.00    +0.000 A 
ATOM      2  C   UNL     1      -3.303  12.832  20.388  0.00  0.00    +0.000 A 
ATOM      3  C   UNL     1      -4.431  12.203  19.637  0.00  0.00    +0.000 A 
ATOM      4  C   UNL     1      -4.322  11.744  18.313  0.00  0.00    +0.000 A 
ATOM      5  C   UNL     1      -5.415  11.191  17.634  0.00  0.00    +0.000 A 
ATOM      6  C   UNL     1      -6.632  11.032  18.283  0.00  0.00    +0.000 A 
ATOM      7  C   UNL     1      -6.756  11.433  19.607  0.00  0.00    +0.000 A 
ATOM      8  C   UNL     1      -5.664  12.015  20.260  0.00  0.00    +0.000 A 
ATOM      9  O   UNL     1      -5.885  12.381  21.591  0.00  0.00    +0.000 OA
ATOM     10  C   UNL     1      -4.875  12.926  22.349  0.00  0.00    +0.000 A 
ATOM     11  O   UNL     1      -5.049  13.237  23.523  0.00  0.00    +0.000 OA
ENDROOT
BRANCH   2  12
ATOM     12  C   UNL     1      -1.930  13.051  19.805  0.00  0.00    +0.000 A 
ATOM     13  C   UNL     1      -1.119  11.973  19.434  0.00  0.00    +0.000 A 
ATOM     14  C   UNL     1       0.160  12.161  18.902  0.00  0.00    +0.000 A 
ATOM     15  C   UNL     1       0.611  13.466  18.617  0.00  0.00    +0.000 A 
ATOM     16  C   UNL     1      -0.207  14.568  18.934  0.00  0.00    +0.000 A 
ATOM     17  C   UNL     1      -1.436  14.343  19.578  0.00  0.00    +0.000 A 
BRANCH  14  18
ATOM     18  O   UNL     1       1.024  11.127  18.627  0.00  0.00    +0.000 OA
ATOM     19  C   UNL     1       0.445   9.871  18.292  0.00  0.00    +0.000 C 
ENDBRANCH  14  18
BRANCH  15  20
ATOM     20  O   UNL     1       1.883  13.554  18.102  0.00  0.00    +0.000 OA
ATOM     21  C   UNL     1       2.922  13.840  19.031  0.00  0.00    +0.000 C 
ENDBRANCH  15  20
BRANCH  16  22
ATOM     22  O   UNL     1       0.253  15.824  18.632  0.00  0.00    +0.000 OA
ATOM     23  C   UNL     1       0.123  16.835  19.620  0.00  0.00    +0.000 C 
ENDBRANCH  16  22
ENDBRANCH   2  12
BRANCH   1  26
ATOM     24  C   UNL     1      -1.645  12.978  23.222  0.00  0.00    +0.000 C 
ATOM     25  O   UNL     1      -0.743  13.573  23.805  0.00  0.00    +0.000 OA
ATOM     26  N   UNL     1      -2.594  13.700  22.540  0.00  0.00    +0.000 N 
ATOM     27  H   UNL     1      -2.131  14.543  22.205  0.00  0.00    +0.000 HD
BRANCH  24  28
ATOM     28  C   UNL     1      -1.736  11.464  23.156  0.00  0.00    +0.000 C 
BRANCH  28  30
ATOM     29  C   UNL     1      -0.205   9.498  23.294  0.00  0.00    +0.000 C 
ATOM     30  C   UNL     1      -0.475  10.819  22.597  0.00  0.00    +0.000 C 
ENDBRANCH  28  30
ENDBRANCH  24  28
ENDBRANCH   1  26
TORSDOF 7
ENDMDL
