MODEL 1
REMARK VINA RESULT:      -9.1      0.000      0.000
REMARK  Name = 
REMARK  4 active torsions:
REMARK  status: ('A' for Active; 'I' for Inactive)
REMARK    1  A    between atoms: C_11  and  C_12
REMARK    2  A    between atoms: C_15  and  C_16
REMARK    3  A    between atoms: C_16  and  O_18
REMARK    4  A    between atoms: C_21  and  C_22
REMARK                            x       y       z     vdW  Elec       q    Type
REMARK                         _______ _______ _______ _____ _____    ______ ____
ROOT
ATOM      1  O   UNL     1       0.145   3.018  20.557  0.00  0.00    +0.000 OA
ATOM      2  C   UNL     1       1.164   3.453  20.027  0.00  0.00    +0.000 C 
ATOM      3  C   UNL     1       1.346   3.402  18.561  0.00  0.00    +0.000 C 
ATOM      4  C   UNL     1       2.474   3.841  17.986  0.00  0.00    +0.000 C 
ATOM      5  C   UNL     1       3.588   4.539  18.730  0.00  0.00    +0.000 C 
ATOM      6  C   UNL     1       3.316   4.594  20.225  0.00  0.00    +0.000 C 
ATOM      7  C   UNL     1       2.249   4.060  20.825  0.00  0.00    +0.000 C 
ATOM      8  O   UNL     1       4.817   3.850  18.690  0.00  0.00    +0.000 OA
ATOM      9  C   UNL     1       5.713   4.881  18.592  0.00  0.00    +0.000 C 
ATOM     10  O   UNL     1       6.776   4.987  19.167  0.00  0.00    +0.000 OA
ATOM     11  C   UNL     1       5.196   5.787  17.498  0.00  0.00    +0.000 C 
ATOM     12  C   UNL     1       3.925   5.850  18.021  0.00  0.00    +0.000 C 
ENDROOT
BRANCH  11  13
ATOM     13  C   UNL     1       5.769   5.058  16.238  0.00  0.00    +0.000 A 
ATOM     14  C   UNL     1       7.054   5.244  15.706  0.00  0.00    +0.000 A 
ATOM     15  C   UNL     1       7.392   4.813  14.396  0.00  0.00    +0.000 A 
ATOM     16  C   UNL     1       6.474   4.157  13.562  0.00  0.00    +0.000 A 
ATOM     17  C   UNL     1       5.191   3.949  14.071  0.00  0.00    +0.000 A 
ATOM     18  C   UNL     1       4.859   4.377  15.385  0.00  0.00    +0.000 A 
BRANCH  16  19
ATOM     19  C   UNL     1       6.942   3.770  12.185  0.00  0.00    +0.000 C 
ATOM     20  O   UNL     1       7.456   4.579  11.427  0.00  0.00    +0.000 OA
BRANCH  19  21
ATOM     21  O   UNL     1       6.789   2.480  11.825  0.00  0.00    +0.000 OA
ATOM     22  H   UNL     1       7.584   1.954  11.652  0.00  0.00    +0.000 HD
ENDBRANCH  19  21
ENDBRANCH  16  19
ENDBRANCH  11  13
BRANCH  12  23
ATOM     23  C   UNL     1       3.168   7.024  18.650  0.00  0.00    +0.000 A 
ATOM     24  C   UNL     1       2.813   8.126  17.824  0.00  0.00    +0.000 A 
ATOM     25  C   UNL     1       1.791   9.027  18.171  0.00  0.00    +0.000 A 
ATOM     26  C   UNL     1       1.122   8.894  19.375  0.00  0.00    +0.000 A 
ATOM     27  C   UNL     1       1.520   7.879  20.248  0.00  0.00    +0.000 A 
ATOM     28  C   UNL     1       2.525   6.961  19.892  0.00  0.00    +0.000 A 
ENDBRANCH  12  23
TORSDOF 4
ENDMDL
MODEL 2
REMARK VINA RESULT:      -8.6      0.804      1.386
REMARK  Name = 
REMARK  4 active torsions:
REMARK  status: ('A' for Active; 'I' for Inactive)
REMARK    1  A    between atoms: C_11  and  C_12
REMARK    2  A    between atoms: C_15  and  C_16
REMARK    3  A    between atoms: C_16  and  O_18
REMARK    4  A    between atoms: C_21  and  C_22
REMARK                            x       y       z     vdW  Elec       q    Type
REMARK                         _______ _______ _______ _____ _____    ______ ____
ROOT
ATOM      1  O   UNL     1      -0.088   2.294  20.028  0.00  0.00    +0.000 OA
ATOM      2  C   UNL     1       0.913   2.918  19.682  0.00  0.00    +0.000 C 
ATOM      3  C   UNL     1       1.287   3.034  18.257  0.00  0.00    +0.000 C 
ATOM      4  C   UNL     1       2.400   3.682  17.884  0.00  0.00    +0.000 C 
ATOM      5  C   UNL     1       3.289   4.455  18.829  0.00  0.00    +0.000 C 
ATOM      6  C   UNL     1       2.821   4.326  20.270  0.00  0.00    +0.000 C 
ATOM      7  C   UNL     1       1.779   3.592  20.670  0.00  0.00    +0.000 C 
ATOM      8  O   UNL     1       4.604   3.953  18.911  0.00  0.00    +0.000 OA
ATOM      9  C   UNL     1       5.336   5.105  19.020  0.00  0.00    +0.000 C 
ATOM     10  O   UNL     1       6.287   5.304  19.747  0.00  0.00    +0.000 OA
ATOM     11  C   UNL     1       4.832   6.030  17.936  0.00  0.00    +0.000 C 
ATOM     12  C   UNL     1       3.509   5.862  18.277  0.00  0.00    +0.000 C 
ENDROOT
BRANCH  11  13
ATOM     13  C   UNL     1       5.668   5.515  16.718  0.00  0.00    +0.000 A 
ATOM     14  C   UNL     1       6.982   5.899  16.414  0.00  0.00    +0.000 A 
ATOM     15  C   UNL     1       7.557   5.657  15.138  0.00  0.00    +0.000 A 
ATOM     16  C   UNL     1       6.859   5.002  14.113  0.00  0.00    +0.000 A 
ATOM     17  C   UNL     1       5.552   4.600  14.392  0.00  0.00    +0.000 A 
ATOM     18  C   UNL     1       4.982   4.839  15.673  0.00  0.00    +0.000 A 
BRANCH  16  19
ATOM     19  C   UNL     1       7.565   4.827  12.796  0.00  0.00    +0.000 C 
ATOM     20  O   UNL     1       7.282   3.919  12.027  0.00  0.00    +0.000 OA
BRANCH  19  21
ATOM     21  O   UNL     1       8.517   5.729  12.485  0.00  0.00    +0.000 OA
ATOM     22  H   UNL     1       8.573   6.539  13.014  0.00  0.00    +0.000 HD
ENDBRANCH  19  21
ENDBRANCH  16  19
ENDBRANCH  11  13
BRANCH  12  23
ATOM     23  C   UNL     1       2.507   6.852  18.880  0.00  0.00    +0.000 A 
ATOM     24  C   UNL     1       2.249   6.791  20.278  0.00  0.00    +0.000 A 
ATOM     25  C   UNL     1       1.701   7.873  20.988  0.00  0.00    +0.000 A 
ATOM     26  C   UNL     1       1.342   9.034  20.325  0.00  0.00    +0.000 A 
ATOM     27  C   UNL     1       1.493   9.080  18.938  0.00  0.00    +0.000 A 
ATOM     28  C   UNL     1       2.065   8.009  18.229  0.00  0.00    +0.000 A 
ENDBRANCH  12  23
TORSDOF 4
ENDMDL
MODEL 3
REMARK VINA RESULT:      -8.4      2.866      7.028
REMARK  Name = 
REMARK  4 active torsions:
REMARK  status: ('A' for Active; 'I' for Inactive)
REMARK    1  A    between atoms: C_11  and  C_12
REMARK    2  A    between atoms: C_15  and  C_16
REMARK    3  A    between atoms: C_16  and  O_18
REMARK    4  A    between atoms: C_21  and  C_22
REMARK                            x       y       z     vdW  Elec       q    Type
REMARK                         _______ _______ _______ _____ _____    ______ ____
ROOT
ATOM      1  O   UNL     1       5.206   0.316  20.203  0.00  0.00    +0.000 OA
ATOM      2  C   UNL     1       4.688   1.342  19.772  0.00  0.00    +0.000 C 
ATOM      3  C   UNL     1       4.887   2.642  20.446  0.00  0.00    +0.000 C 
ATOM      4  C   UNL     1       4.290   3.755  19.997  0.00  0.00    +0.000 C 
ATOM      5  C   UNL     1       3.487   3.830  18.720  0.00  0.00    +0.000 C 
ATOM      6  C   UNL     1       3.358   2.468  18.058  0.00  0.00    +0.000 C 
ATOM      7  C   UNL     1       3.853   1.330  18.553  0.00  0.00    +0.000 C 
ATOM      8  O   UNL     1       2.136   4.179  18.918  0.00  0.00    +0.000 OA
ATOM      9  C   UNL     1       1.891   4.975  17.831  0.00  0.00    +0.000 C 
ATOM     10  O   UNL     1       0.896   4.983  17.137  0.00  0.00    +0.000 OA
ATOM     11  C   UNL     1       3.035   5.960  17.763  0.00  0.00    +0.000 C 
ATOM     12  C   UNL     1       4.003   4.988  17.868  0.00  0.00    +0.000 C 
ENDROOT
BRANCH  11  13
ATOM     13  C   UNL     1       2.532   7.043  18.774  0.00  0.00    +0.000 A 
ATOM     14  C   UNL     1       2.159   6.801  20.105  0.00  0.00    +0.000 A 
ATOM     15  C   UNL     1       1.411   7.746  20.857  0.00  0.00    +0.000 A 
ATOM     16  C   UNL     1       1.018   8.984  20.328  0.00  0.00    +0.000 A 
ATOM     17  C   UNL     1       1.386   9.255  19.009  0.00  0.00    +0.000 A 
ATOM     18  C   UNL     1       2.139   8.309  18.262  0.00  0.00    +0.000 A 
BRANCH  16  19
ATOM     19  C   UNL     1       0.207   9.891  21.214  0.00  0.00    +0.000 C 
ATOM     20  O   UNL     1       0.536  10.130  22.366  0.00  0.00    +0.000 OA
BRANCH  19  21
ATOM     21  O   UNL     1      -0.895  10.449  20.675  0.00  0.00    +0.000 OA
ATOM     22  H   UNL     1      -1.741  10.329  21.132  0.00  0.00    +0.000 HD
ENDBRANCH  19  21
ENDBRANCH  16  19
ENDBRANCH  11  13
BRANCH  12  23
ATOM     23  C   UNL     1       5.032   4.500  16.843  0.00  0.00    +0.000 A 
ATOM     24  C   UNL     1       4.639   4.394  15.481  0.00  0.00    +0.000 A 
ATOM     25  C   UNL     1       5.571   4.369  14.429  0.00  0.00    +0.000 A 
ATOM     26  C   UNL     1       6.928   4.397  14.698  0.00  0.00    +0.000 A 
ATOM     27  C   UNL     1       7.341   4.400  16.032  0.00  0.00    +0.000 A 
ATOM     28  C   UNL     1       6.410   4.451  17.085  0.00  0.00    +0.000 A 
ENDBRANCH  12  23
TORSDOF 4
ENDMDL
MODEL 4
REMARK VINA RESULT:      -8.3      2.848      6.987
REMARK  Name = 
REMARK  4 active torsions:
REMARK  status: ('A' for Active; 'I' for Inactive)
REMARK    1  A    between atoms: C_11  and  C_12
REMARK    2  A    between atoms: C_15  and  C_16
REMARK    3  A    between atoms: C_16  and  O_18
REMARK    4  A    between atoms: C_21  and  C_22
REMARK                            x       y       z     vdW  Elec       q    Type
REMARK                         _______ _______ _______ _____ _____    ______ ____
ROOT
ATOM      1  O   UNL     1       5.366   0.491  20.471  0.00  0.00    +0.000 OA
ATOM      2  C   UNL     1       4.764   1.435  19.965  0.00  0.00    +0.000 C 
ATOM      3  C   UNL     1       4.745   2.765  20.609  0.00  0.00    +0.000 C 
ATOM      4  C   UNL     1       4.057   3.784  20.076  0.00  0.00    +0.000 C 
ATOM      5  C   UNL     1       3.362   3.729  18.736  0.00  0.00    +0.000 C 
ATOM      6  C   UNL     1       3.457   2.346  18.112  0.00  0.00    +0.000 C 
ATOM      7  C   UNL     1       4.044   1.291  18.683  0.00  0.00    +0.000 C 
ATOM      8  O   UNL     1       1.966   3.911  18.812  0.00  0.00    +0.000 OA
ATOM      9  C   UNL     1       1.718   4.645  17.683  0.00  0.00    +0.000 C 
ATOM     10  O   UNL     1       0.792   4.513  16.910  0.00  0.00    +0.000 OA
ATOM     11  C   UNL     1       2.735   5.763  17.675  0.00  0.00    +0.000 C 
ATOM     12  C   UNL     1       3.802   4.922  17.890  0.00  0.00    +0.000 C 
ENDROOT
BRANCH  11  13
ATOM     13  C   UNL     1       2.020   6.798  18.605  0.00  0.00    +0.000 A 
ATOM     14  C   UNL     1       1.719   8.125  18.265  0.00  0.00    +0.000 A 
ATOM     15  C   UNL     1       1.377   9.091  19.248  0.00  0.00    +0.000 A 
ATOM     16  C   UNL     1       1.295   8.777  20.612  0.00  0.00    +0.000 A 
ATOM     17  C   UNL     1       1.578   7.460  20.978  0.00  0.00    +0.000 A 
ATOM     18  C   UNL     1       1.916   6.495  19.990  0.00  0.00    +0.000 A 
BRANCH  16  19
ATOM     19  C   UNL     1       0.947   9.892  21.561  0.00  0.00    +0.000 C 
ATOM     20  O   UNL     1       1.133   9.797  22.765  0.00  0.00    +0.000 OA
BRANCH  19  21
ATOM     21  O   UNL     1       0.436  11.017  21.023  0.00  0.00    +0.000 OA
ATOM     22  H   UNL     1      -0.443  11.306  21.311  0.00  0.00    +0.000 HD
ENDBRANCH  19  21
ENDBRANCH  16  19
ENDBRANCH  11  13
BRANCH  12  23
ATOM     23  C   UNL     1       4.967   4.542  16.969  0.00  0.00    +0.000 A 
ATOM     24  C   UNL     1       4.723   4.436  15.572  0.00  0.00    +0.000 A 
ATOM     25  C   UNL     1       5.756   4.511  14.621  0.00  0.00    +0.000 A 
ATOM     26  C   UNL     1       7.072   4.641  15.029  0.00  0.00    +0.000 A 
ATOM     27  C   UNL     1       7.346   4.647  16.398  0.00  0.00    +0.000 A 
ATOM     28  C   UNL     1       6.312   4.599  17.351  0.00  0.00    +0.000 A 
ENDBRANCH  12  23
TORSDOF 4
ENDMDL
MODEL 5
REMARK VINA RESULT:      -8.2      4.042      6.871
REMARK  Name = 
REMARK  4 active torsions:
REMARK  status: ('A' for Active; 'I' for Inactive)
REMARK    1  A    between atoms: C_11  and  C_12
REMARK    2  A    between atoms: C_15  and  C_16
REMARK    3  A    between atoms: C_16  and  O_18
REMARK    4  A    between atoms: C_21  and  C_22
REMARK                            x       y       z     vdW  Elec       q    Type
REMARK                         _______ _______ _______ _____ _____    ______ ____
ROOT
ATOM      1  O   UNL     1      -1.845  12.068  23.325  0.00  0.00    +0.000 OA
ATOM      2  C   UNL     1      -1.193  11.661  22.367  0.00  0.00    +0.000 C 
ATOM      3  C   UNL     1      -0.774  10.247  22.272  0.00  0.00    +0.000 C 
ATOM      4  C   UNL     1      -0.030   9.812  21.246  0.00  0.00    +0.000 C 
ATOM      5  C   UNL     1       0.335  10.654  20.046  0.00  0.00    +0.000 C 
ATOM      6  C   UNL     1      -0.162  12.084  20.192  0.00  0.00    +0.000 C 
ATOM      7  C   UNL     1      -0.809  12.560  21.260  0.00  0.00    +0.000 C 
ATOM      8  O   UNL     1       1.723  10.851  19.891  0.00  0.00    +0.000 OA
ATOM      9  C   UNL     1       1.861  10.805  18.530  0.00  0.00    +0.000 C 
ATOM     10  O   UNL     1       2.554  11.521  17.837  0.00  0.00    +0.000 OA
ATOM     11  C   UNL     1       1.107   9.578  18.070  0.00  0.00    +0.000 C 
ATOM     12  C   UNL     1      -0.033   9.901  18.770  0.00  0.00    +0.000 C 
ENDROOT
BRANCH  11  13
ATOM     13  C   UNL     1       2.195   8.479  18.302  0.00  0.00    +0.000 A 
ATOM     14  C   UNL     1       3.204   8.129  17.392  0.00  0.00    +0.000 A 
ATOM     15  C   UNL     1       3.941   6.921  17.518  0.00  0.00    +0.000 A 
ATOM     16  C   UNL     1       3.724   6.016  18.568  0.00  0.00    +0.000 A 
ATOM     17  C   UNL     1       2.734   6.345  19.494  0.00  0.00    +0.000 A 
ATOM     18  C   UNL     1       2.002   7.558  19.367  0.00  0.00    +0.000 A 
BRANCH  16  19
ATOM     19  C   UNL     1       4.551   4.759  18.580  0.00  0.00    +0.000 C 
ATOM     20  O   UNL     1       5.291   4.464  17.654  0.00  0.00    +0.000 OA
BRANCH  19  21
ATOM     21  O   UNL     1       4.456   3.974  19.672  0.00  0.00    +0.000 OA
ATOM     22  H   UNL     1       5.110   3.269  19.789  0.00  0.00    +0.000 HD
ENDBRANCH  19  21
ENDBRANCH  16  19
ENDBRANCH  11  13
BRANCH  12  23
ATOM     23  C   UNL     1      -1.420  10.316  18.268  0.00  0.00    +0.000 A 
ATOM     24  C   UNL     1      -1.507  11.305  17.250  0.00  0.00    +0.000 A 
ATOM     25  C   UNL     1      -2.649  11.454  16.442  0.00  0.00    +0.000 A 
ATOM     26  C   UNL     1      -3.761  10.659  16.654  0.00  0.00    +0.000 A 
ATOM     27  C   UNL     1      -3.737   9.748  17.712  0.00  0.00    +0.000 A 
ATOM     28  C   UNL     1      -2.587   9.580  18.504  0.00  0.00    +0.000 A 
ENDBRANCH  12  23
TORSDOF 4
ENDMDL
MODEL 6
REMARK VINA RESULT:      -8.1      0.826      1.235
REMARK  Name = 
REMARK  4 active torsions:
REMARK  status: ('A' for Active; 'I' for Inactive)
REMARK    1  A    between atoms: C_11  and  C_12
REMARK    2  A    between atoms: C_15  and  C_16
REMARK    3  A    between atoms: C_16  and  O_18
REMARK    4  A    between atoms: C_21  and  C_22
REMARK                            x       y       z     vdW  Elec       q    Type
REMARK                         _______ _______ _______ _____ _____    ______ ____
ROOT
ATOM      1  O   UNL     1       0.739   2.916  20.465  0.00  0.00    +0.000 OA
ATOM      2  C   UNL     1       1.627   3.399  19.767  0.00  0.00    +0.000 C 
ATOM      3  C   UNL     1       1.514   3.422  18.294  0.00  0.00    +0.000 C 
ATOM      4  C   UNL     1       2.500   3.914  17.530  0.00  0.00    +0.000 C 
ATOM      5  C   UNL     1       3.731   4.600  18.073  0.00  0.00    +0.000 C 
ATOM      6  C   UNL     1       3.761   4.576  19.594  0.00  0.00    +0.000 C 
ATOM      7  C   UNL     1       2.841   3.991  20.364  0.00  0.00    +0.000 C 
ATOM      8  O   UNL     1       4.936   3.941  17.755  0.00  0.00    +0.000 OA
ATOM      9  C   UNL     1       5.781   4.995  17.536  0.00  0.00    +0.000 C 
ATOM     10  O   UNL     1       6.936   5.098  17.894  0.00  0.00    +0.000 OA
ATOM     11  C   UNL     1       5.046   5.941  16.614  0.00  0.00    +0.000 C 
ATOM     12  C   UNL     1       3.903   5.951  17.381  0.00  0.00    +0.000 C 
ENDROOT
BRANCH  11  13
ATOM     13  C   UNL     1       5.366   5.288  15.229  0.00  0.00    +0.000 A 
ATOM     14  C   UNL     1       4.546   4.372  14.554  0.00  0.00    +0.000 A 
ATOM     15  C   UNL     1       5.034   3.577  13.482  0.00  0.00    +0.000 A 
ATOM     16  C   UNL     1       6.354   3.673  13.019  0.00  0.00    +0.000 A 
ATOM     17  C   UNL     1       7.189   4.584  13.666  0.00  0.00    +0.000 A 
ATOM     18  C   UNL     1       6.695   5.382  14.735  0.00  0.00    +0.000 A 
BRANCH  16  19
ATOM     19  C   UNL     1       6.761   2.760  11.893  0.00  0.00    +0.000 C 
ATOM     20  O   UNL     1       7.807   2.917  11.281  0.00  0.00    +0.000 OA
BRANCH  19  21
ATOM     21  O   UNL     1       5.929   1.742  11.598  0.00  0.00    +0.000 OA
ATOM     22  H   UNL     1       6.315   0.900  11.313  0.00  0.00    +0.000 HD
ENDBRANCH  19  21
ENDBRANCH  16  19
ENDBRANCH  11  13
BRANCH  12  23
ATOM     23  C   UNL     1       3.273   7.076  18.207  0.00  0.00    +0.000 A 
ATOM     24  C   UNL     1       2.893   8.276  17.545  0.00  0.00    +0.000 A 
ATOM     25  C   UNL     1       1.957   9.172  18.091  0.00  0.00    +0.000 A 
ATOM     26  C   UNL     1       1.405   8.931  19.337  0.00  0.00    +0.000 A 
ATOM     27  C   UNL     1       1.836   7.811  20.050  0.00  0.00    +0.000 A 
ATOM     28  C   UNL     1       2.753   6.900  19.495  0.00  0.00    +0.000 A 
ENDBRANCH  12  23
TORSDOF 4
ENDMDL
MODEL 7
REMARK VINA RESULT:      -8.1      6.191     11.315
REMARK  Name = 
REMARK  4 active torsions:
REMARK  status: ('A' for Active; 'I' for Inactive)
REMARK    1  A    between atoms: C_11  and  C_12
REMARK    2  A    between atoms: C_15  and  C_16
REMARK    3  A    between atoms: C_16  and  O_18
REMARK    4  A    between atoms: C_21  and  C_22
REMARK                            x       y       z     vdW  Elec       q    Type
REMARK                         _______ _______ _______ _____ _____    ______ ____
ROOT
ATOM      1  O   UNL     1       2.670   7.393  19.493  0.00  0.00    +0.000 OA
ATOM      2  C   UNL     1       1.851   8.308  19.511  0.00  0.00    +0.000 C 
ATOM      3  C   UNL     1       1.164   8.695  20.761  0.00  0.00    +0.000 C 
ATOM      4  C   UNL     1       0.241   9.667  20.772  0.00  0.00    +0.000 C 
ATOM      5  C   UNL     1      -0.089  10.537  19.582  0.00  0.00    +0.000 C 
ATOM      6  C   UNL     1       0.684  10.110  18.344  0.00  0.00    +0.000 C 
ATOM      7  C   UNL     1       1.522   9.072  18.291  0.00  0.00    +0.000 C 
ATOM      8  O   UNL     1      -1.422  10.415  19.142  0.00  0.00    +0.000 OA
ATOM      9  C   UNL     1      -1.717  11.703  18.782  0.00  0.00    +0.000 C 
ATOM     10  O   UNL     1      -2.335  12.070  17.805  0.00  0.00    +0.000 OA
ATOM     11  C   UNL     1      -1.265  12.575  19.931  0.00  0.00    +0.000 C 
ATOM     12  C   UNL     1      -0.014  12.006  19.995  0.00  0.00    +0.000 C 
ENDROOT
BRANCH  11  13
ATOM     13  C   UNL     1      -2.509  12.465  20.873  0.00  0.00    +0.000 A 
ATOM     14  C   UNL     1      -3.801  12.919  20.569  0.00  0.00    +0.000 A 
ATOM     15  C   UNL     1      -4.791  13.087  21.574  0.00  0.00    +0.000 A 
ATOM     16  C   UNL     1      -4.549  12.790  22.923  0.00  0.00    +0.000 A 
ATOM     17  C   UNL     1      -3.275  12.325  23.251  0.00  0.00    +0.000 A 
ATOM     18  C   UNL     1      -2.288  12.153  22.241  0.00  0.00    +0.000 A 
BRANCH  16  19
ATOM     19  C   UNL     1      -5.669  13.033  23.898  0.00  0.00    +0.000 C 
ATOM     20  O   UNL     1      -6.250  12.114  24.456  0.00  0.00    +0.000 OA
BRANCH  19  21
ATOM     21  O   UNL     1      -5.996  14.316  24.149  0.00  0.00    +0.000 OA
ATOM     22  H   UNL     1      -5.292  14.925  24.419  0.00  0.00    +0.000 HD
ENDBRANCH  19  21
ENDBRANCH  16  19
ENDBRANCH  11  13
BRANCH  12  23
ATOM     23  C   UNL     1       1.363  12.597  19.671  0.00  0.00    +0.000 A 
ATOM     24  C   UNL     1       1.630  13.006  18.335  0.00  0.00    +0.000 A 
ATOM     25  C   UNL     1       2.655  13.915  18.019  0.00  0.00    +0.000 A 
ATOM     26  C   UNL     1       3.481  14.410  19.013  0.00  0.00    +0.000 A 
ATOM     27  C   UNL     1       3.302  13.947  20.318  0.00  0.00    +0.000 A 
ATOM     28  C   UNL     1       2.261  13.057  20.641  0.00  0.00    +0.000 A 
ENDBRANCH  12  23
TORSDOF 4
ENDMDL
MODEL 8
REMARK VINA RESULT:      -8.0      4.279      7.307
REMARK  Name = 
REMARK  4 active torsions:
REMARK  status: ('A' for Active; 'I' for Inactive)
REMARK    1  A    between atoms: C_11  and  C_12
REMARK    2  A    between atoms: C_15  and  C_16
REMARK    3  A    between atoms: C_16  and  O_18
REMARK    4  A    between atoms: C_21  and  C_22
REMARK                            x       y       z     vdW  Elec       q    Type
REMARK                         _______ _______ _______ _____ _____    ______ ____
ROOT
ATOM      1  O   UNL     1      -1.863  12.674  23.464  0.00  0.00    +0.000 OA
ATOM      2  C   UNL     1      -1.244  12.195  22.518  0.00  0.00    +0.000 C 
ATOM      3  C   UNL     1      -0.908  10.757  22.472  0.00  0.00    +0.000 C 
ATOM      4  C   UNL     1      -0.199  10.242  21.458  0.00  0.00    +0.000 C 
ATOM      5  C   UNL     1       0.203  11.017  20.225  0.00  0.00    +0.000 C 
ATOM      6  C   UNL     1      -0.210  12.477  20.321  0.00  0.00    +0.000 C 
ATOM      7  C   UNL     1      -0.818  13.028  21.375  0.00  0.00    +0.000 C 
ATOM      8  O   UNL     1       1.598  11.127  20.053  0.00  0.00    +0.000 OA
ATOM      9  C   UNL     1       1.721  11.023  18.694  0.00  0.00    +0.000 C 
ATOM     10  O   UNL     1       2.448  11.672  17.970  0.00  0.00    +0.000 OA
ATOM     11  C   UNL     1       0.893   9.826  18.285  0.00  0.00    +0.000 C 
ATOM     12  C   UNL     1      -0.220  10.239  18.980  0.00  0.00    +0.000 C 
ENDROOT
BRANCH  11  13
ATOM     13  C   UNL     1       1.919   8.674  18.550  0.00  0.00    +0.000 A 
ATOM     14  C   UNL     1       2.885   8.222  17.640  0.00  0.00    +0.000 A 
ATOM     15  C   UNL     1       3.551   6.979  17.811  0.00  0.00    +0.000 A 
ATOM     16  C   UNL     1       3.303   6.139  18.907  0.00  0.00    +0.000 A 
ATOM     17  C   UNL     1       2.354   6.571  19.834  0.00  0.00    +0.000 A 
ATOM     18  C   UNL     1       1.693   7.819  19.662  0.00  0.00    +0.000 A 
BRANCH  16  19
ATOM     19  C   UNL     1       4.053   4.836  18.965  0.00  0.00    +0.000 C 
ATOM     20  O   UNL     1       3.773   3.966  19.776  0.00  0.00    +0.000 OA
BRANCH  19  21
ATOM     21  O   UNL     1       5.042   4.657  18.067  0.00  0.00    +0.000 OA
ATOM     22  H   UNL     1       5.366   5.429  17.580  0.00  0.00    +0.000 HD
ENDBRANCH  19  21
ENDBRANCH  16  19
ENDBRANCH  11  13
BRANCH  12  23
ATOM     23  C   UNL     1      -1.585  10.716  18.473  0.00  0.00    +0.000 A 
ATOM     24  C   UNL     1      -2.253   9.939  17.486  0.00  0.00    +0.000 A 
ATOM     25  C   UNL     1      -3.638  10.036  17.264  0.00  0.00    +0.000 A 
ATOM     26  C   UNL     1      -4.397  10.945  17.980  0.00  0.00    +0.000 A 
ATOM     27  C   UNL     1      -3.748  11.789  18.883  0.00  0.00    +0.000 A 
ATOM     28  C   UNL     1      -2.367  11.676  19.126  0.00  0.00    +0.000 A 
ENDBRANCH  12  23
TORSDOF 4
ENDMDL
MODEL 9
REMARK VINA RESULT:      -8.0      4.841      8.022
REMARK  Name = 
REMARK  4 active torsions:
REMARK  status: ('A' for Active; 'I' for Inactive)
REMARK    1  A    between atoms: C_11  and  C_12
REMARK    2  A    between atoms: C_15  and  C_16
REMARK    3  A    between atoms: C_16  and  O_18
REMARK    4  A    between atoms: C_21  and  C_22
REMARK                            x       y       z     vdW  Elec       q    Type
REMARK                         _______ _______ _______ _____ _____    ______ ____
ROOT
ATOM      1  O   UNL     1      -4.932  13.098  19.599  0.00  0.00    +0.000 OA
ATOM      2  C   UNL     1      -3.831  12.588  19.788  0.00  0.00    +0.000 C 
ATOM      3  C   UNL     1      -3.174  11.775  18.743  0.00  0.00    +0.000 C 
ATOM      4  C   UNL     1      -1.990  11.188  18.964  0.00  0.00    +0.000 C 
ATOM      5  C   UNL     1      -1.160  11.393  20.208  0.00  0.00    +0.000 C 
ATOM      6  C   UNL     1      -1.877  12.272  21.222  0.00  0.00    +0.000 C 
ATOM      7  C   UNL     1      -3.104  12.773  21.061  0.00  0.00    +0.000 C 
ATOM      8  O   UNL     1      -0.949  10.215  20.953  0.00  0.00    +0.000 OA
ATOM      9  C   UNL     1       0.338  10.385  21.387  0.00  0.00    +0.000 C 
ATOM     10  O   UNL     1       0.780  10.133  22.489  0.00  0.00    +0.000 OA
ATOM     11  C   UNL     1       1.142  10.795  20.175  0.00  0.00    +0.000 C 
ATOM     12  C   UNL     1       0.261  11.786  19.808  0.00  0.00    +0.000 C 
ENDROOT
BRANCH  11  13
ATOM     13  C   UNL     1       1.448   9.391  19.555  0.00  0.00    +0.000 A 
ATOM     14  C   UNL     1       1.668   8.212  20.283  0.00  0.00    +0.000 A 
ATOM     15  C   UNL     1       2.257   7.064  19.689  0.00  0.00    +0.000 A 
ATOM     16  C   UNL     1       2.634   7.028  18.339  0.00  0.00    +0.000 A 
ATOM     17  C   UNL     1       2.416   8.185  17.588  0.00  0.00    +0.000 A 
ATOM     18  C   UNL     1       1.821   9.330  18.186  0.00  0.00    +0.000 A 
BRANCH  16  19
ATOM     19  C   UNL     1       3.272   5.763  17.831  0.00  0.00    +0.000 C 
ATOM     20  O   UNL     1       4.328   5.774  17.215  0.00  0.00    +0.000 OA
BRANCH  19  21
ATOM     21  O   UNL     1       2.637   4.605  18.101  0.00  0.00    +0.000 OA
ATOM     22  H   UNL     1       3.172   3.815  18.264  0.00  0.00    +0.000 HD
ENDBRANCH  19  21
ENDBRANCH  16  19
ENDBRANCH  11  13
BRANCH  12  23
ATOM     23  C   UNL     1       0.429  13.309  19.802  0.00  0.00    +0.000 A 
ATOM     24  C   UNL     1       1.426  13.887  20.635  0.00  0.00    +0.000 A 
ATOM     25  C   UNL     1       1.942  15.175  20.407  0.00  0.00    +0.000 A 
ATOM     26  C   UNL     1       1.446  15.953  19.374  0.00  0.00    +0.000 A 
ATOM     27  C   UNL     1       0.397  15.446  18.605  0.00  0.00    +0.000 A 
ATOM     28  C   UNL     1      -0.102  14.148  18.814  0.00  0.00    +0.000 A 
ENDBRANCH  12  23
TORSDOF 4
ENDMDL
