MODEL 1
REMARK VINA RESULT:      -7.3      0.000      0.000
REMARK  Name = 
REMARK  9 active torsions:
REMARK  status: ('A' for Active; 'I' for Inactive)
REMARK    1  A    between atoms: C_1  and  C_2
REMARK    2  A    between atoms: C_2  and  C_3
REMARK    3  A    between atoms: C_2  and  N_7
REMARK    4  A    between atoms: C_3  and  N_4
REMARK    5  A    between atoms: N_4  and  C_5
REMARK    6  A    between atoms: N_4  and  C_6
REMARK    7  A    between atoms: C_8  and  C_10
REMARK    8  A    between atoms: C_14  and  C_15
REMARK    9  A    between atoms: C_18  and  C_19
REMARK                            x       y       z     vdW  Elec       q    Type
REMARK                         _______ _______ _______ _____ _____    ______ ____
ROOT
ATOM      1  C   UNL     1       6.707   5.997  17.721  0.00  0.00    +0.000 A 
ATOM      2  C   UNL     1       6.306   7.163  17.067  0.00  0.00    +0.000 A 
ATOM      3  F   UNL     1       5.290   7.150  16.191  0.00  0.00    +0.000 F 
ATOM      4  C   UNL     1       6.945   8.380  17.293  0.00  0.00    +0.000 A 
ATOM      5  C   UNL     1       8.015   8.462  18.191  0.00  0.00    +0.000 A 
ATOM      6  C   UNL     1       8.428   7.297  18.847  0.00  0.00    +0.000 A 
ATOM      7  C   UNL     1       7.774   6.082  18.615  0.00  0.00    +0.000 A 
ATOM      8  F   UNL     1       8.232   4.998  19.258  0.00  0.00    +0.000 F 
ENDROOT
BRANCH   5   9
ATOM      9  C   UNL     1       8.680   9.735  18.442  0.00  0.00    +0.000 A 
ATOM     10  N   UNL     1       8.569  10.804  17.639  0.00  0.00    +0.000 NA
ATOM     11  O   UNL     1       9.337  11.778  18.267  0.00  0.00    +0.000 OA
ATOM     12  C   UNL     1       9.849  11.207  19.396  0.00  0.00    +0.000 A 
ATOM     13  N   UNL     1       9.476   9.948  19.544  0.00  0.00    +0.000 NA
BRANCH  12  14
ATOM     14  C   UNL     1      10.707  12.081  20.236  0.00  0.00    +0.000 C 
ATOM     15  F   UNL     1      10.728  13.372  19.806  0.00  0.00    +0.000 F 
ATOM     16  F   UNL     1      10.289  12.117  21.530  0.00  0.00    +0.000 F 
ATOM     17  F   UNL     1      12.000  11.663  20.256  0.00  0.00    +0.000 F 
ENDBRANCH  12  14
ENDBRANCH   5   9
BRANCH   1  19
ATOM     18  N   UNL     1       4.961   4.427  18.345  0.00  0.00    +0.000 N 
ATOM     19  C   UNL     1       6.013   4.706  17.497  0.00  0.00    +0.000 C 
ATOM     20  O   UNL     1       6.378   3.945  16.611  0.00  0.00    +0.000 OA
ATOM     21  H   UNL     1       4.678   5.121  19.026  0.00  0.00    +0.000 HD
BRANCH  18  23
ATOM     22  C   UNL     1       3.055   3.400  17.199  0.00  0.00    +0.000 C 
ATOM     23  C   UNL     1       4.155   3.211  18.243  0.00  0.00    +0.000 C 
BRANCH  23  24
ATOM     24  C   UNL     1       3.573   2.854  19.638  0.00  0.00    +0.000 C 
BRANCH  24  25
ATOM     25  N   UNL     1       2.281   3.475  19.983  0.00  0.00    +0.000 NA
ATOM     26  C   UNL     1       1.437   2.574  20.772  0.00  0.00    +0.000 C 
ATOM     27  C   UNL     1       2.505   4.721  20.721  0.00  0.00    +0.000 C 
ENDBRANCH  24  25
ENDBRANCH  23  24
ENDBRANCH  18  23
ENDBRANCH   1  19
TORSDOF 6
ENDMDL
MODEL 2
REMARK VINA RESULT:      -7.3      6.181      7.969
REMARK  Name = 
REMARK  9 active torsions:
REMARK  status: ('A' for Active; 'I' for Inactive)
REMARK    1  A    between atoms: C_1  and  C_2
REMARK    2  A    between atoms: C_2  and  C_3
REMARK    3  A    between atoms: C_2  and  N_7
REMARK    4  A    between atoms: C_3  and  N_4
REMARK    5  A    between atoms: N_4  and  C_5
REMARK    6  A    between atoms: N_4  and  C_6
REMARK    7  A    between atoms: C_8  and  C_10
REMARK    8  A    between atoms: C_14  and  C_15
REMARK    9  A    between atoms: C_18  and  C_19
REMARK                            x       y       z     vdW  Elec       q    Type
REMARK                         _______ _______ _______ _____ _____    ______ ____
ROOT
ATOM      1  C   UNL     1       2.194   6.997  19.169  0.00  0.00    +0.000 A 
ATOM      2  C   UNL     1       2.087   8.216  18.498  0.00  0.00    +0.000 A 
ATOM      3  F   UNL     1       2.492   8.343  17.226  0.00  0.00    +0.000 F 
ATOM      4  C   UNL     1       1.564   9.347  19.123  0.00  0.00    +0.000 A 
ATOM      5  C   UNL     1       1.127   9.283  20.450  0.00  0.00    +0.000 A 
ATOM      6  C   UNL     1       1.235   8.066  21.133  0.00  0.00    +0.000 A 
ATOM      7  C   UNL     1       1.758   6.938  20.493  0.00  0.00    +0.000 A 
ATOM      8  F   UNL     1       1.855   5.808  21.208  0.00  0.00    +0.000 F 
ENDROOT
BRANCH   5   9
ATOM      9  C   UNL     1       0.566  10.458  21.106  0.00  0.00    +0.000 A 
ATOM     10  N   UNL     1       1.173  11.654  21.138  0.00  0.00    +0.000 NA
ATOM     11  O   UNL     1       0.284  12.465  21.834  0.00  0.00    +0.000 OA
ATOM     12  C   UNL     1      -0.785  11.684  22.165  0.00  0.00    +0.000 A 
ATOM     13  N   UNL     1      -0.655  10.438  21.742  0.00  0.00    +0.000 NA
BRANCH  12  14
ATOM     14  C   UNL     1      -1.875  12.355  22.916  0.00  0.00    +0.000 C 
ATOM     15  F   UNL     1      -2.619  11.487  23.655  0.00  0.00    +0.000 F 
ATOM     16  F   UNL     1      -1.399  13.286  23.787  0.00  0.00    +0.000 F 
ATOM     17  F   UNL     1      -2.745  12.999  22.093  0.00  0.00    +0.000 F 
ENDBRANCH  12  14
ENDBRANCH   5   9
BRANCH   1  19
ATOM     18  N   UNL     1       4.018   5.427  18.839  0.00  0.00    +0.000 N 
ATOM     19  C   UNL     1       2.731   5.788  18.499  0.00  0.00    +0.000 C 
ATOM     20  O   UNL     1       2.054   5.169  17.690  0.00  0.00    +0.000 OA
ATOM     21  H   UNL     1       4.507   5.954  19.553  0.00  0.00    +0.000 HD
BRANCH  18  23
ATOM     22  C   UNL     1       4.612   3.094  19.292  0.00  0.00    +0.000 C 
ATOM     23  C   UNL     1       4.687   4.247  18.291  0.00  0.00    +0.000 C 
BRANCH  23  24
ATOM     24  C   UNL     1       6.154   4.602  17.927  0.00  0.00    +0.000 C 
BRANCH  24  25
ATOM     25  N   UNL     1       6.641   5.915  18.390  0.00  0.00    +0.000 NA
ATOM     26  C   UNL     1       7.761   5.782  19.324  0.00  0.00    +0.000 C 
ATOM     27  C   UNL     1       7.044   6.734  17.243  0.00  0.00    +0.000 C 
ENDBRANCH  24  25
ENDBRANCH  23  24
ENDBRANCH  18  23
ENDBRANCH   1  19
TORSDOF 6
ENDMDL
MODEL 3
REMARK VINA RESULT:      -7.3      6.179      8.049
REMARK  Name = 
REMARK  9 active torsions:
REMARK  status: ('A' for Active; 'I' for Inactive)
REMARK    1  A    between atoms: C_1  and  C_2
REMARK    2  A    between atoms: C_2  and  C_3
REMARK    3  A    between atoms: C_2  and  N_7
REMARK    4  A    between atoms: C_3  and  N_4
REMARK    5  A    between atoms: N_4  and  C_5
REMARK    6  A    between atoms: N_4  and  C_6
REMARK    7  A    between atoms: C_8  and  C_10
REMARK    8  A    between atoms: C_14  and  C_15
REMARK    9  A    between atoms: C_18  and  C_19
REMARK                            x       y       z     vdW  Elec       q    Type
REMARK                         _______ _______ _______ _____ _____    ______ ____
ROOT
ATOM      1  C   UNL     1       2.170   7.000  19.138  0.00  0.00    +0.000 A 
ATOM      2  C   UNL     1       1.731   6.950  20.462  0.00  0.00    +0.000 A 
ATOM      3  F   UNL     1       1.785   5.809  21.164  0.00  0.00    +0.000 F 
ATOM      4  C   UNL     1       1.217   8.076  21.101  0.00  0.00    +0.000 A 
ATOM      5  C   UNL     1       1.130   9.296  20.423  0.00  0.00    +0.000 A 
ATOM      6  C   UNL     1       1.562   9.355  19.093  0.00  0.00    +0.000 A 
ATOM      7  C   UNL     1       2.080   8.218  18.464  0.00  0.00    +0.000 A 
ATOM      8  F   UNL     1       2.456   8.335  17.183  0.00  0.00    +0.000 F 
ENDROOT
BRANCH   5   9
ATOM      9  C   UNL     1       0.605  10.482  21.090  0.00  0.00    +0.000 A 
ATOM     10  N   UNL     1       1.243  11.662  21.122  0.00  0.00    +0.000 NA
ATOM     11  O   UNL     1       0.383  12.491  21.830  0.00  0.00    +0.000 OA
ATOM     12  C   UNL     1      -0.703  11.736  22.169  0.00  0.00    +0.000 A 
ATOM     13  N   UNL     1      -0.608  10.489  21.739  0.00  0.00    +0.000 NA
BRANCH  12  14
ATOM     14  C   UNL     1      -1.768  12.431  22.935  0.00  0.00    +0.000 C 
ATOM     15  F   UNL     1      -1.274  13.344  23.815  0.00  0.00    +0.000 F 
ATOM     16  F   UNL     1      -2.624  13.107  22.123  0.00  0.00    +0.000 F 
ATOM     17  F   UNL     1      -2.522  11.566  23.664  0.00  0.00    +0.000 F 
ENDBRANCH  12  14
ENDBRANCH   5   9
BRANCH   1  19
ATOM     18  N   UNL     1       4.072   5.556  18.696  0.00  0.00    +0.000 N 
ATOM     19  C   UNL     1       2.736   5.808  18.463  0.00  0.00    +0.000 C 
ATOM     20  O   UNL     1       2.040   5.108  17.739  0.00  0.00    +0.000 OA
ATOM     21  H   UNL     1       4.581   6.145  19.345  0.00  0.00    +0.000 HD
BRANCH  18  23
ATOM     22  C   UNL     1       4.733   3.233  19.108  0.00  0.00    +0.000 C 
ATOM     23  C   UNL     1       4.778   4.406  18.130  0.00  0.00    +0.000 C 
BRANCH  23  24
ATOM     24  C   UNL     1       6.237   4.812  17.781  0.00  0.00    +0.000 C 
BRANCH  24  25
ATOM     25  N   UNL     1       6.748   6.031  18.434  0.00  0.00    +0.000 NA
ATOM     26  C   UNL     1       7.834   5.732  19.371  0.00  0.00    +0.000 C 
ATOM     27  C   UNL     1       7.212   6.985  17.423  0.00  0.00    +0.000 C 
ENDBRANCH  24  25
ENDBRANCH  23  24
ENDBRANCH  18  23
ENDBRANCH   1  19
TORSDOF 6
ENDMDL
MODEL 4
REMARK VINA RESULT:      -7.2      5.995      9.327
REMARK  Name = 
REMARK  9 active torsions:
REMARK  status: ('A' for Active; 'I' for Inactive)
REMARK    1  A    between atoms: C_1  and  C_2
REMARK    2  A    between atoms: C_2  and  C_3
REMARK    3  A    between atoms: C_2  and  N_7
REMARK    4  A    between atoms: C_3  and  N_4
REMARK    5  A    between atoms: N_4  and  C_5
REMARK    6  A    between atoms: N_4  and  C_6
REMARK    7  A    between atoms: C_8  and  C_10
REMARK    8  A    between atoms: C_14  and  C_15
REMARK    9  A    between atoms: C_18  and  C_19
REMARK                            x       y       z     vdW  Elec       q    Type
REMARK                         _______ _______ _______ _____ _____    ______ ____
ROOT
ATOM      1  C   UNL     1       1.308   9.314  19.487  0.00  0.00    +0.000 A 
ATOM      2  C   UNL     1       1.297   8.437  20.572  0.00  0.00    +0.000 A 
ATOM      3  F   UNL     1       0.688   8.766  21.720  0.00  0.00    +0.000 F 
ATOM      4  C   UNL     1       1.920   7.192  20.507  0.00  0.00    +0.000 A 
ATOM      5  C   UNL     1       2.576   6.789  19.340  0.00  0.00    +0.000 A 
ATOM      6  C   UNL     1       2.598   7.665  18.248  0.00  0.00    +0.000 A 
ATOM      7  C   UNL     1       1.964   8.909  18.324  0.00  0.00    +0.000 A 
ATOM      8  F   UNL     1       2.040   9.710  17.252  0.00  0.00    +0.000 F 
ENDROOT
BRANCH   5   9
ATOM      9  C   UNL     1       3.219   5.483  19.261  0.00  0.00    +0.000 A 
ATOM     10  N   UNL     1       4.531   5.284  19.460  0.00  0.00    +0.000 NA
ATOM     11  O   UNL     1       4.691   3.912  19.310  0.00  0.00    +0.000 OA
ATOM     12  C   UNL     1       3.457   3.400  19.030  0.00  0.00    +0.000 A 
ATOM     13  N   UNL     1       2.519   4.330  18.984  0.00  0.00    +0.000 NA
BRANCH  12  14
ATOM     14  C   UNL     1       3.390   1.929  18.836  0.00  0.00    +0.000 C 
ATOM     15  F   UNL     1       3.536   1.562  17.534  0.00  0.00    +0.000 F 
ATOM     16  F   UNL     1       4.363   1.277  19.528  0.00  0.00    +0.000 F 
ATOM     17  F   UNL     1       2.203   1.411  19.250  0.00  0.00    +0.000 F 
ENDBRANCH  12  14
ENDBRANCH   5   9
BRANCH   1  19
ATOM     18  N   UNL     1      -0.720  10.630  19.252  0.00  0.00    +0.000 N 
ATOM     19  C   UNL     1       0.627  10.630  19.546  0.00  0.00    +0.000 C 
ATOM     20  O   UNL     1       1.249  11.643  19.835  0.00  0.00    +0.000 OA
ATOM     21  H   UNL     1      -1.187   9.750  19.069  0.00  0.00    +0.000 HD
BRANCH  18  23
ATOM     22  C   UNL     1      -2.015  12.101  20.722  0.00  0.00    +0.000 C 
ATOM     23  C   UNL     1      -1.545  11.838  19.292  0.00  0.00    +0.000 C 
BRANCH  23  24
ATOM     24  C   UNL     1      -2.739  11.685  18.309  0.00  0.00    +0.000 C 
BRANCH  24  25
ATOM     25  N   UNL     1      -2.668  10.552  17.369  0.00  0.00    +0.000 NA
ATOM     26  C   UNL     1      -3.735   9.578  17.607  0.00  0.00    +0.000 C 
ATOM     27  C   UNL     1      -2.739  11.040  15.989  0.00  0.00    +0.000 C 
ENDBRANCH  24  25
ENDBRANCH  23  24
ENDBRANCH  18  23
ENDBRANCH   1  19
TORSDOF 6
ENDMDL
MODEL 5
REMARK VINA RESULT:      -7.2      6.197      8.000
REMARK  Name = 
REMARK  9 active torsions:
REMARK  status: ('A' for Active; 'I' for Inactive)
REMARK    1  A    between atoms: C_1  and  C_2
REMARK    2  A    between atoms: C_2  and  C_3
REMARK    3  A    between atoms: C_2  and  N_7
REMARK    4  A    between atoms: C_3  and  N_4
REMARK    5  A    between atoms: N_4  and  C_5
REMARK    6  A    between atoms: N_4  and  C_6
REMARK    7  A    between atoms: C_8  and  C_10
REMARK    8  A    between atoms: C_14  and  C_15
REMARK    9  A    between atoms: C_18  and  C_19
REMARK                            x       y       z     vdW  Elec       q    Type
REMARK                         _______ _______ _______ _____ _____    ______ ____
ROOT
ATOM      1  C   UNL     1       2.246   7.010  19.200  0.00  0.00    +0.000 A 
ATOM      2  C   UNL     1       2.135   8.238  18.546  0.00  0.00    +0.000 A 
ATOM      3  F   UNL     1       2.563   8.390  17.284  0.00  0.00    +0.000 F 
ATOM      4  C   UNL     1       1.582   9.351  19.177  0.00  0.00    +0.000 A 
ATOM      5  C   UNL     1       1.120   9.261  20.494  0.00  0.00    +0.000 A 
ATOM      6  C   UNL     1       1.233   8.035  21.160  0.00  0.00    +0.000 A 
ATOM      7  C   UNL     1       1.785   6.924  20.513  0.00  0.00    +0.000 A 
ATOM      8  F   UNL     1       1.885   5.785  21.213  0.00  0.00    +0.000 F 
ENDROOT
BRANCH   5   9
ATOM      9  C   UNL     1       0.529  10.417  21.156  0.00  0.00    +0.000 A 
ATOM     10  N   UNL     1       1.144  11.604  21.271  0.00  0.00    +0.000 NA
ATOM     11  O   UNL     1       0.220  12.399  21.939  0.00  0.00    +0.000 OA
ATOM     12  C   UNL     1      -0.875  11.618  22.172  0.00  0.00    +0.000 A 
ATOM     13  N   UNL     1      -0.729  10.387  21.712  0.00  0.00    +0.000 NA
BRANCH  12  14
ATOM     14  C   UNL     1      -2.005  12.273  22.878  0.00  0.00    +0.000 C 
ATOM     15  F   UNL     1      -2.932  12.789  22.025  0.00  0.00    +0.000 F 
ATOM     16  F   UNL     1      -2.672  11.409  23.689  0.00  0.00    +0.000 F 
ATOM     17  F   UNL     1      -1.591  13.304  23.662  0.00  0.00    +0.000 F 
ENDBRANCH  12  14
ENDBRANCH   5   9
BRANCH   1  19
ATOM     18  N   UNL     1       4.110   5.490  18.860  0.00  0.00    +0.000 N 
ATOM     19  C   UNL     1       2.814   5.820  18.522  0.00  0.00    +0.000 C 
ATOM     20  O   UNL     1       2.153   5.188  17.709  0.00  0.00    +0.000 OA
ATOM     21  H   UNL     1       4.586   6.025  19.577  0.00  0.00    +0.000 HD
BRANCH  18  23
ATOM     22  C   UNL     1       4.486   3.084  19.128  0.00  0.00    +0.000 C 
ATOM     23  C   UNL     1       4.809   4.331  18.305  0.00  0.00    +0.000 C 
BRANCH  23  24
ATOM     24  C   UNL     1       6.335   4.615  18.261  0.00  0.00    +0.000 C 
BRANCH  24  25
ATOM     25  N   UNL     1       6.863   5.146  16.990  0.00  0.00    +0.000 NA
ATOM     26  C   UNL     1       5.913   4.967  15.889  0.00  0.00    +0.000 C 
ATOM     27  C   UNL     1       7.192   6.566  17.138  0.00  0.00    +0.000 C 
ENDBRANCH  24  25
ENDBRANCH  23  24
ENDBRANCH  18  23
ENDBRANCH   1  19
TORSDOF 6
ENDMDL
MODEL 6
REMARK VINA RESULT:      -7.2      5.630      8.315
REMARK  Name = 
REMARK  9 active torsions:
REMARK  status: ('A' for Active; 'I' for Inactive)
REMARK    1  A    between atoms: C_1  and  C_2
REMARK    2  A    between atoms: C_2  and  C_3
REMARK    3  A    between atoms: C_2  and  N_7
REMARK    4  A    between atoms: C_3  and  N_4
REMARK    5  A    between atoms: N_4  and  C_5
REMARK    6  A    between atoms: N_4  and  C_6
REMARK    7  A    between atoms: C_8  and  C_10
REMARK    8  A    between atoms: C_14  and  C_15
REMARK    9  A    between atoms: C_18  and  C_19
REMARK                            x       y       z     vdW  Elec       q    Type
REMARK                         _______ _______ _______ _____ _____    ______ ____
ROOT
ATOM      1  C   UNL     1       1.269   9.094  19.282  0.00  0.00    +0.000 A 
ATOM      2  C   UNL     1       1.505   8.003  20.118  0.00  0.00    +0.000 A 
ATOM      3  F   UNL     1       0.884   7.891  21.301  0.00  0.00    +0.000 F 
ATOM      4  C   UNL     1       2.398   6.993  19.762  0.00  0.00    +0.000 A 
ATOM      5  C   UNL     1       3.083   7.052  18.544  0.00  0.00    +0.000 A 
ATOM      6  C   UNL     1       2.856   8.146  17.701  0.00  0.00    +0.000 A 
ATOM      7  C   UNL     1       1.954   9.150  18.068  0.00  0.00    +0.000 A 
ATOM      8  F   UNL     1       1.798  10.182  17.227  0.00  0.00    +0.000 F 
ENDROOT
BRANCH   5   9
ATOM      9  C   UNL     1       4.008   5.993  18.159  0.00  0.00    +0.000 A 
ATOM     10  N   UNL     1       3.928   4.732  18.613  0.00  0.00    +0.000 NA
ATOM     11  O   UNL     1       4.976   4.078  17.977  0.00  0.00    +0.000 OA
ATOM     12  C   UNL     1       5.602   5.005  17.195  0.00  0.00    +0.000 A 
ATOM     13  N   UNL     1       5.044   6.201  17.278  0.00  0.00    +0.000 NA
BRANCH  12  14
ATOM     14  C   UNL     1       6.763   4.518  16.408  0.00  0.00    +0.000 C 
ATOM     15  F   UNL     1       7.230   5.444  15.527  0.00  0.00    +0.000 F 
ATOM     16  F   UNL     1       7.816   4.184  17.204  0.00  0.00    +0.000 F 
ATOM     17  F   UNL     1       6.460   3.412  15.678  0.00  0.00    +0.000 F 
ENDBRANCH  12  14
ENDBRANCH   5   9
BRANCH   1  19
ATOM     18  N   UNL     1       0.842  11.301  20.203  0.00  0.00    +0.000 N 
ATOM     19  C   UNL     1       0.303  10.158  19.650  0.00  0.00    +0.000 C 
ATOM     20  O   UNL     1      -0.897  10.003  19.470  0.00  0.00    +0.000 OA
ATOM     21  H   UNL     1       1.848  11.387  20.280  0.00  0.00    +0.000 HD
BRANCH  18  23
ATOM     22  C   UNL     1       0.782  13.749  20.282  0.00  0.00    +0.000 C 
ATOM     23  C   UNL     1       0.032  12.455  20.596  0.00  0.00    +0.000 C 
BRANCH  23  24
ATOM     24  C   UNL     1      -0.329  12.348  22.103  0.00  0.00    +0.000 C 
BRANCH  24  25
ATOM     25  N   UNL     1      -1.395  11.390  22.451  0.00  0.00    +0.000 NA
ATOM     26  C   UNL     1      -0.876  10.250  23.210  0.00  0.00    +0.000 C 
ATOM     27  C   UNL     1      -2.444  12.064  23.221  0.00  0.00    +0.000 C 
ENDBRANCH  24  25
ENDBRANCH  23  24
ENDBRANCH  18  23
ENDBRANCH   1  19
TORSDOF 6
ENDMDL
MODEL 7
REMARK VINA RESULT:      -7.2      6.135      9.487
REMARK  Name = 
REMARK  9 active torsions:
REMARK  status: ('A' for Active; 'I' for Inactive)
REMARK    1  A    between atoms: C_1  and  C_2
REMARK    2  A    between atoms: C_2  and  C_3
REMARK    3  A    between atoms: C_2  and  N_7
REMARK    4  A    between atoms: C_3  and  N_4
REMARK    5  A    between atoms: N_4  and  C_5
REMARK    6  A    between atoms: N_4  and  C_6
REMARK    7  A    between atoms: C_8  and  C_10
REMARK    8  A    between atoms: C_14  and  C_15
REMARK    9  A    between atoms: C_18  and  C_19
REMARK                            x       y       z     vdW  Elec       q    Type
REMARK                         _______ _______ _______ _____ _____    ______ ____
ROOT
ATOM      1  C   UNL     1       1.178   9.249  19.696  0.00  0.00    +0.000 A 
ATOM      2  C   UNL     1       1.840   8.912  18.515  0.00  0.00    +0.000 A 
ATOM      3  F   UNL     1       1.859   9.752  17.470  0.00  0.00    +0.000 F 
ATOM      4  C   UNL     1       2.501   7.693  18.373  0.00  0.00    +0.000 A 
ATOM      5  C   UNL     1       2.515   6.771  19.425  0.00  0.00    +0.000 A 
ATOM      6  C   UNL     1       1.848   7.097  20.611  0.00  0.00    +0.000 A 
ATOM      7  C   UNL     1       1.194   8.326  20.742  0.00  0.00    +0.000 A 
ATOM      8  F   UNL     1       0.555   8.569  21.895  0.00  0.00    +0.000 F 
ENDROOT
BRANCH   5   9
ATOM      9  C   UNL     1       3.215   5.499  19.288  0.00  0.00    +0.000 A 
ATOM     10  N   UNL     1       4.548   5.369  19.376  0.00  0.00    +0.000 NA
ATOM     11  O   UNL     1       4.765   4.007  19.210  0.00  0.00    +0.000 OA
ATOM     12  C   UNL     1       3.540   3.431  19.033  0.00  0.00    +0.000 A 
ATOM     13  N   UNL     1       2.555   4.312  19.068  0.00  0.00    +0.000 NA
BRANCH  12  14
ATOM     14  C   UNL     1       3.533   1.959  18.841  0.00  0.00    +0.000 C 
ATOM     15  F   UNL     1       4.439   1.319  19.630  0.00  0.00    +0.000 F 
ATOM     16  F   UNL     1       2.321   1.411  19.131  0.00  0.00    +0.000 F 
ATOM     17  F   UNL     1       3.824   1.607  17.561  0.00  0.00    +0.000 F 
ENDBRANCH  12  14
ENDBRANCH   5   9
BRANCH   1  19
ATOM     18  N   UNL     1      -0.594  10.774  19.036  0.00  0.00    +0.000 N 
ATOM     19  C   UNL     1       0.493  10.555  19.856  0.00  0.00    +0.000 C 
ATOM     20  O   UNL     1       0.894  11.376  20.670  0.00  0.00    +0.000 OA
ATOM     21  H   UNL     1      -0.905  10.034  18.418  0.00  0.00    +0.000 HD
BRANCH  18  23
ATOM     22  C   UNL     1      -2.830  11.697  18.650  0.00  0.00    +0.000 C 
ATOM     23  C   UNL     1      -1.396  11.997  19.084  0.00  0.00    +0.000 C 
BRANCH  23  24
ATOM     24  C   UNL     1      -0.739  13.087  18.194  0.00  0.00    +0.000 C 
BRANCH  24  25
ATOM     25  N   UNL     1      -0.370  14.345  18.868  0.00  0.00    +0.000 NA
ATOM     26  C   UNL     1      -0.868  14.390  20.245  0.00  0.00    +0.000 C 
ATOM     27  C   UNL     1       1.086  14.510  18.860  0.00  0.00    +0.000 C 
ENDBRANCH  24  25
ENDBRANCH  23  24
ENDBRANCH  18  23
ENDBRANCH   1  19
TORSDOF 6
ENDMDL
MODEL 8
REMARK VINA RESULT:      -7.1      6.185      9.824
REMARK  Name = 
REMARK  9 active torsions:
REMARK  status: ('A' for Active; 'I' for Inactive)
REMARK    1  A    between atoms: C_1  and  C_2
REMARK    2  A    between atoms: C_2  and  C_3
REMARK    3  A    between atoms: C_2  and  N_7
REMARK    4  A    between atoms: C_3  and  N_4
REMARK    5  A    between atoms: N_4  and  C_5
REMARK    6  A    between atoms: N_4  and  C_6
REMARK    7  A    between atoms: C_8  and  C_10
REMARK    8  A    between atoms: C_14  and  C_15
REMARK    9  A    between atoms: C_18  and  C_19
REMARK                            x       y       z     vdW  Elec       q    Type
REMARK                         _______ _______ _______ _____ _____    ______ ____
ROOT
ATOM      1  C   UNL     1       1.225   9.446  20.000  0.00  0.00    +0.000 A 
ATOM      2  C   UNL     1       1.187   8.463  20.989  0.00  0.00    +0.000 A 
ATOM      3  F   UNL     1       0.647   8.712  22.191  0.00  0.00    +0.000 F 
ATOM      4  C   UNL     1       1.712   7.191  20.772  0.00  0.00    +0.000 A 
ATOM      5  C   UNL     1       2.294   6.867  19.541  0.00  0.00    +0.000 A 
ATOM      6  C   UNL     1       2.342   7.848  18.545  0.00  0.00    +0.000 A 
ATOM      7  C   UNL     1       1.807   9.120  18.775  0.00  0.00    +0.000 A 
ATOM      8  F   UNL     1       1.903  10.021  17.787  0.00  0.00    +0.000 F 
ENDROOT
BRANCH   5   9
ATOM      9  C   UNL     1       2.834   5.534  19.302  0.00  0.00    +0.000 A 
ATOM     10  N   UNL     1       4.141   5.237  19.366  0.00  0.00    +0.000 NA
ATOM     11  O   UNL     1       4.191   3.875  19.095  0.00  0.00    +0.000 OA
ATOM     12  C   UNL     1       2.905   3.467  18.887  0.00  0.00    +0.000 A 
ATOM     13  N   UNL     1       2.034   4.456  18.999  0.00  0.00    +0.000 NA
BRANCH  12  14
ATOM     14  C   UNL     1       2.718   2.026  18.584  0.00  0.00    +0.000 C 
ATOM     15  F   UNL     1       2.442   1.794  17.271  0.00  0.00    +0.000 F 
ATOM     16  F   UNL     1       3.827   1.294  18.876  0.00  0.00    +0.000 F 
ATOM     17  F   UNL     1       1.694   1.482  19.293  0.00  0.00    +0.000 F 
ENDBRANCH  12  14
ENDBRANCH   5   9
BRANCH   1  19
ATOM     18  N   UNL     1      -0.436  11.127  19.436  0.00  0.00    +0.000 N 
ATOM     19  C   UNL     1       0.647  10.793  20.223  0.00  0.00    +0.000 C 
ATOM     20  O   UNL     1       1.126  11.549  21.057  0.00  0.00    +0.000 OA
ATOM     21  H   UNL     1      -0.815  10.438  18.798  0.00  0.00    +0.000 HD
BRANCH  18  23
ATOM     22  C   UNL     1      -2.648  12.178  19.467  0.00  0.00    +0.000 C 
ATOM     23  C   UNL     1      -1.139  12.405  19.548  0.00  0.00    +0.000 C 
BRANCH  23  24
ATOM     24  C   UNL     1      -0.640  13.373  18.440  0.00  0.00    +0.000 C 
BRANCH  24  25
ATOM     25  N   UNL     1       0.184  14.510  18.891  0.00  0.00    +0.000 NA
ATOM     26  C   UNL     1      -0.062  14.837  20.297  0.00  0.00    +0.000 C 
ATOM     27  C   UNL     1       1.605  14.210  18.691  0.00  0.00    +0.000 C 
ENDBRANCH  24  25
ENDBRANCH  23  24
ENDBRANCH  18  23
ENDBRANCH   1  19
TORSDOF 6
ENDMDL
MODEL 9
REMARK VINA RESULT:      -7.1      6.216      9.478
REMARK  Name = 
REMARK  9 active torsions:
REMARK  status: ('A' for Active; 'I' for Inactive)
REMARK    1  A    between atoms: C_1  and  C_2
REMARK    2  A    between atoms: C_2  and  C_3
REMARK    3  A    between atoms: C_2  and  N_7
REMARK    4  A    between atoms: C_3  and  N_4
REMARK    5  A    between atoms: N_4  and  C_5
REMARK    6  A    between atoms: N_4  and  C_6
REMARK    7  A    between atoms: C_8  and  C_10
REMARK    8  A    between atoms: C_14  and  C_15
REMARK    9  A    between atoms: C_18  and  C_19
REMARK                            x       y       z     vdW  Elec       q    Type
REMARK                         _______ _______ _______ _____ _____    ______ ____
ROOT
ATOM      1  C   UNL     1       1.088   9.255  19.713  0.00  0.00    +0.000 A 
ATOM      2  C   UNL     1       1.130   8.329  20.756  0.00  0.00    +0.000 A 
ATOM      3  F   UNL     1       0.513   8.572  21.922  0.00  0.00    +0.000 F 
ATOM      4  C   UNL     1       1.818   7.123  20.632  0.00  0.00    +0.000 A 
ATOM      5  C   UNL     1       2.487   6.810  19.444  0.00  0.00    +0.000 A 
ATOM      6  C   UNL     1       2.455   7.735  18.394  0.00  0.00    +0.000 A 
ATOM      7  C   UNL     1       1.757   8.940  18.531  0.00  0.00    +0.000 A 
ATOM      8  F   UNL     1       1.783   9.793  17.497  0.00  0.00    +0.000 F 
ENDROOT
BRANCH   5   9
ATOM      9  C   UNL     1       3.198   5.545  19.301  0.00  0.00    +0.000 A 
ATOM     10  N   UNL     1       4.533   5.429  19.363  0.00  0.00    +0.000 NA
ATOM     11  O   UNL     1       4.761   4.068  19.201  0.00  0.00    +0.000 OA
ATOM     12  C   UNL     1       3.539   3.479  19.052  0.00  0.00    +0.000 A 
ATOM     13  N   UNL     1       2.546   4.350  19.102  0.00  0.00    +0.000 NA
BRANCH  12  14
ATOM     14  C   UNL     1       3.543   2.006  18.870  0.00  0.00    +0.000 C 
ATOM     15  F   UNL     1       4.473   1.381  19.643  0.00  0.00    +0.000 F 
ATOM     16  F   UNL     1       2.344   1.447  19.188  0.00  0.00    +0.000 F 
ATOM     17  F   UNL     1       3.811   1.649  17.586  0.00  0.00    +0.000 F 
ENDBRANCH  12  14
ENDBRANCH   5   9
BRANCH   1  19
ATOM     18  N   UNL     1       0.829  11.434  20.755  0.00  0.00    +0.000 N 
ATOM     19  C   UNL     1       0.339  10.528  19.837  0.00  0.00    +0.000 C 
ATOM     20  O   UNL     1      -0.658  10.737  19.159  0.00  0.00    +0.000 OA
ATOM     21  H   UNL     1       1.687  11.222  21.250  0.00  0.00    +0.000 HD
BRANCH  18  23
ATOM     22  C   UNL     1       1.317  13.809  21.103  0.00  0.00    +0.000 C 
ATOM     23  C   UNL     1       0.225  12.748  20.981  0.00  0.00    +0.000 C 
BRANCH  23  24
ATOM     24  C   UNL     1      -0.675  12.696  22.245  0.00  0.00    +0.000 C 
BRANCH  24  25
ATOM     25  N   UNL     1      -2.029  12.140  22.059  0.00  0.00    +0.000 NA
ATOM     26  C   UNL     1      -2.801  12.159  23.304  0.00  0.00    +0.000 C 
ATOM     27  C   UNL     1      -2.740  12.891  21.021  0.00  0.00    +0.000 C 
ENDBRANCH  24  25
ENDBRANCH  23  24
ENDBRANCH  18  23
ENDBRANCH   1  19
TORSDOF 6
ENDMDL
