MODEL 1
REMARK VINA RESULT:      -7.6      0.000      0.000
REMARK  Name = 
REMARK  7 active torsions:
REMARK  status: ('A' for Active; 'I' for Inactive)
REMARK    1  A    between atoms: C_1  and  N_2
REMARK    2  A    between atoms: N_2  and  N_3
REMARK    3  A    between atoms: N_2  and  S_15
REMARK    4  A    between atoms: N_3  and  S_4
REMARK    5  A    between atoms: S_4  and  C_7
REMARK    6  A    between atoms: C_8  and  C_9
REMARK    7  A    between atoms: S_15  and  C_18
REMARK                            x       y       z     vdW  Elec       q    Type
REMARK                         _______ _______ _______ _____ _____    ______ ____
ROOT
ATOM      1  N   UNL     1       5.570   3.536  18.499  0.00  0.00    +0.000 NA
ATOM      2  H   UNL     1       5.264   3.234  17.561  0.00  0.00    +0.000 HD
ENDROOT
BRANCH   1   3
ATOM      3  S   UNL     1       6.513   4.971  18.355  0.00  0.00    +0.000 S 
ATOM      4  O   UNL     1       5.678   6.057  18.831  0.00  0.00    +0.000 OA
ATOM      5  O   UNL     1       7.800   4.710  18.964  0.00  0.00    +0.000 OA
BRANCH   3   6
ATOM      6  C   UNL     1       6.756   5.199  16.653  0.00  0.00    +0.000 C 
ATOM      7  C   UNL     1       6.395   4.235  15.791  0.00  0.00    +0.000 C 
BRANCH   7   8
ATOM      8  C   UNL     1       6.638   4.293  14.340  0.00  0.00    +0.000 A 
ATOM      9  C   UNL     1       7.563   5.225  13.848  0.00  0.00    +0.000 A 
ATOM     10  C   UNL     1       7.833   5.313  12.478  0.00  0.00    +0.000 A 
ATOM     11  C   UNL     1       7.188   4.462  11.585  0.00  0.00    +0.000 A 
ATOM     12  C   UNL     1       6.279   3.521  12.060  0.00  0.00    +0.000 A 
ATOM     13  C   UNL     1       6.011   3.432  13.429  0.00  0.00    +0.000 A 
ENDBRANCH   7   8
ENDBRANCH   3   6
ENDBRANCH   1   3
BRANCH   1  15
ATOM     14  C   UNL     1       4.338   2.573  20.439  0.00  0.00    +0.000 C 
ATOM     15  N   UNL     1       4.449   3.633  19.398  0.00  0.00    +0.000 NA
BRANCH  15  16
ATOM     16  S   UNL     1       2.981   3.888  18.500  0.00  0.00    +0.000 S 
ATOM     17  O   UNL     1       3.344   3.938  17.095  0.00  0.00    +0.000 OA
ATOM     18  O   UNL     1       1.988   2.950  18.983  0.00  0.00    +0.000 OA
BRANCH  16  19
ATOM     19  C   UNL     1       2.497   5.521  19.000  0.00  0.00    +0.000 A 
ATOM     20  C   UNL     1       2.030   5.727  20.305  0.00  0.00    +0.000 A 
ATOM     21  C   UNL     1       1.606   7.001  20.689  0.00  0.00    +0.000 A 
ATOM     22  C   UNL     1       1.659   8.057  19.778  0.00  0.00    +0.000 A 
ATOM     23 CL   UNL     1       1.106   9.618  20.245  0.00  0.00    +0.000 Cl
ATOM     24  C   UNL     1       2.150   7.855  18.487  0.00  0.00    +0.000 A 
ATOM     25  C   UNL     1       2.576   6.586  18.095  0.00  0.00    +0.000 A 
ENDBRANCH  16  19
ENDBRANCH  15  16
ENDBRANCH   1  15
TORSDOF 6
ENDMDL
MODEL 2
REMARK VINA RESULT:      -7.1      0.755      1.246
REMARK  Name = 
REMARK  7 active torsions:
REMARK  status: ('A' for Active; 'I' for Inactive)
REMARK    1  A    between atoms: C_1  and  N_2
REMARK    2  A    between atoms: N_2  and  N_3
REMARK    3  A    between atoms: N_2  and  S_15
REMARK    4  A    between atoms: N_3  and  S_4
REMARK    5  A    between atoms: S_4  and  C_7
REMARK    6  A    between atoms: C_8  and  C_9
REMARK    7  A    between atoms: S_15  and  C_18
REMARK                            x       y       z     vdW  Elec       q    Type
REMARK                         _______ _______ _______ _____ _____    ______ ____
ROOT
ATOM      1  N   UNL     1       4.891   3.514  18.346  0.00  0.00    +0.000 NA
ATOM      2  H   UNL     1       4.211   3.647  17.581  0.00  0.00    +0.000 HD
ENDROOT
BRANCH   1   3
ATOM      3  S   UNL     1       6.031   4.805  18.325  0.00  0.00    +0.000 S 
ATOM      4  O   UNL     1       5.282   6.015  18.603  0.00  0.00    +0.000 OA
ATOM      5  O   UNL     1       7.143   4.418  19.168  0.00  0.00    +0.000 OA
BRANCH   3   6
ATOM      6  C   UNL     1       6.598   4.899  16.689  0.00  0.00    +0.000 C 
ATOM      7  C   UNL     1       5.864   4.373  15.696  0.00  0.00    +0.000 C 
BRANCH   7   8
ATOM      8  C   UNL     1       6.294   4.322  14.289  0.00  0.00    +0.000 A 
ATOM      9  C   UNL     1       7.374   5.122  13.885  0.00  0.00    +0.000 A 
ATOM     10  C   UNL     1       7.824   5.102  12.561  0.00  0.00    +0.000 A 
ATOM     11  C   UNL     1       7.208   4.276  11.627  0.00  0.00    +0.000 A 
ATOM     12  C   UNL     1       6.145   3.465  12.016  0.00  0.00    +0.000 A 
ATOM     13  C   UNL     1       5.696   3.483  13.340  0.00  0.00    +0.000 A 
ENDBRANCH   7   8
ENDBRANCH   3   6
ENDBRANCH   1   3
BRANCH   1  15
ATOM     14  C   UNL     1       4.633   2.135  20.405  0.00  0.00    +0.000 C 
ATOM     15  N   UNL     1       4.216   3.318  19.603  0.00  0.00    +0.000 NA
BRANCH  15  16
ATOM     16  S   UNL     1       2.494   3.444  19.385  0.00  0.00    +0.000 S 
ATOM     17  O   UNL     1       2.180   2.818  18.113  0.00  0.00    +0.000 OA
ATOM     18  O   UNL     1       1.851   3.015  20.609  0.00  0.00    +0.000 OA
BRANCH  16  19
ATOM     19  C   UNL     1       2.250   5.194  19.210  0.00  0.00    +0.000 A 
ATOM     20  C   UNL     1       2.201   5.753  17.927  0.00  0.00    +0.000 A 
ATOM     21  C   UNL     1       2.055   7.136  17.785  0.00  0.00    +0.000 A 
ATOM     22  C   UNL     1       1.949   7.944  18.918  0.00  0.00    +0.000 A 
ATOM     23 CL   UNL     1       1.801   9.649  18.740  0.00  0.00    +0.000 Cl
ATOM     24  C   UNL     1       1.971   7.381  20.195  0.00  0.00    +0.000 A 
ATOM     25  C   UNL     1       2.116   6.002  20.345  0.00  0.00    +0.000 A 
ENDBRANCH  16  19
ENDBRANCH  15  16
ENDBRANCH   1  15
TORSDOF 6
ENDMDL
MODEL 3
REMARK VINA RESULT:      -7.1      3.212      8.238
REMARK  Name = 
REMARK  7 active torsions:
REMARK  status: ('A' for Active; 'I' for Inactive)
REMARK    1  A    between atoms: C_1  and  N_2
REMARK    2  A    between atoms: N_2  and  N_3
REMARK    3  A    between atoms: N_2  and  S_15
REMARK    4  A    between atoms: N_3  and  S_4
REMARK    5  A    between atoms: S_4  and  C_7
REMARK    6  A    between atoms: C_8  and  C_9
REMARK    7  A    between atoms: S_15  and  C_18
REMARK                            x       y       z     vdW  Elec       q    Type
REMARK                         _______ _______ _______ _____ _____    ______ ____
ROOT
ATOM      1  N   UNL     1       4.224   5.964  19.404  0.00  0.00    +0.000 NA
ATOM      2  H   UNL     1       4.939   6.675  19.623  0.00  0.00    +0.000 HD
ENDROOT
BRANCH   1   3
ATOM      3  S   UNL     1       2.880   6.724  18.639  0.00  0.00    +0.000 S 
ATOM      4  O   UNL     1       3.424   7.807  17.842  0.00  0.00    +0.000 OA
ATOM      5  O   UNL     1       2.085   5.684  18.021  0.00  0.00    +0.000 OA
BRANCH   3   6
ATOM      6  C   UNL     1       1.950   7.428  19.922  0.00  0.00    +0.000 C 
ATOM      7  C   UNL     1       1.367   8.624  19.747  0.00  0.00    +0.000 C 
BRANCH   7   8
ATOM      8  C   UNL     1       0.632   9.346  20.798  0.00  0.00    +0.000 A 
ATOM      9  C   UNL     1       0.672   8.850  22.110  0.00  0.00    +0.000 A 
ATOM     10  C   UNL     1      -0.004   9.505  23.144  0.00  0.00    +0.000 A 
ATOM     11  C   UNL     1      -0.720  10.669  22.883  0.00  0.00    +0.000 A 
ATOM     12  C   UNL     1      -0.756  11.183  21.589  0.00  0.00    +0.000 A 
ATOM     13  C   UNL     1      -0.078  10.529  20.555  0.00  0.00    +0.000 A 
ENDBRANCH   7   8
ENDBRANCH   3   6
ENDBRANCH   1   3
BRANCH   1  15
ATOM     14  C   UNL     1       4.771   3.534  19.338  0.00  0.00    +0.000 C 
ATOM     15  N   UNL     1       4.800   4.866  18.672  0.00  0.00    +0.000 NA
BRANCH  15  16
ATOM     16  S   UNL     1       6.369   5.310  18.063  0.00  0.00    +0.000 S 
ATOM     17  O   UNL     1       6.455   6.757  18.123  0.00  0.00    +0.000 OA
ATOM     18  O   UNL     1       7.357   4.473  18.712  0.00  0.00    +0.000 OA
BRANCH  16  19
ATOM     19  C   UNL     1       6.271   4.836  16.355  0.00  0.00    +0.000 A 
ATOM     20  C   UNL     1       5.088   4.266  15.869  0.00  0.00    +0.000 A 
ATOM     21  C   UNL     1       5.022   3.850  14.537  0.00  0.00    +0.000 A 
ATOM     22  C   UNL     1       6.128   4.015  13.701  0.00  0.00    +0.000 A 
ATOM     23 CL   UNL     1       6.054   3.473  12.070  0.00  0.00    +0.000 Cl
ATOM     24  C   UNL     1       7.297   4.609  14.180  0.00  0.00    +0.000 A 
ATOM     25  C   UNL     1       7.371   5.027  15.508  0.00  0.00    +0.000 A 
ENDBRANCH  16  19
ENDBRANCH  15  16
ENDBRANCH   1  15
TORSDOF 6
ENDMDL
MODEL 4
REMARK VINA RESULT:      -7.0      3.445      6.355
REMARK  Name = 
REMARK  7 active torsions:
REMARK  status: ('A' for Active; 'I' for Inactive)
REMARK    1  A    between atoms: C_1  and  N_2
REMARK    2  A    between atoms: N_2  and  N_3
REMARK    3  A    between atoms: N_2  and  S_15
REMARK    4  A    between atoms: N_3  and  S_4
REMARK    5  A    between atoms: S_4  and  C_7
REMARK    6  A    between atoms: C_8  and  C_9
REMARK    7  A    between atoms: S_15  and  C_18
REMARK                            x       y       z     vdW  Elec       q    Type
REMARK                         _______ _______ _______ _____ _____    ______ ____
ROOT
ATOM      1  N   UNL     1       3.421   3.931  20.011  0.00  0.00    +0.000 NA
ATOM      2  H   UNL     1       3.539   4.754  19.400  0.00  0.00    +0.000 HD
ENDROOT
BRANCH   1   3
ATOM      3  S   UNL     1       1.961   4.095  20.911  0.00  0.00    +0.000 S 
ATOM      4  O   UNL     1       0.974   3.270  20.242  0.00  0.00    +0.000 OA
ATOM      5  O   UNL     1       2.281   3.873  22.306  0.00  0.00    +0.000 OA
BRANCH   3   6
ATOM      6  C   UNL     1       1.481   5.751  20.722  0.00  0.00    +0.000 C 
ATOM      7  C   UNL     1       2.005   6.490  19.732  0.00  0.00    +0.000 C 
BRANCH   7   8
ATOM      8  C   UNL     1       1.732   7.924  19.539  0.00  0.00    +0.000 A 
ATOM      9  C   UNL     1       2.028   8.505  18.296  0.00  0.00    +0.000 A 
ATOM     10  C   UNL     1       1.779   9.861  18.062  0.00  0.00    +0.000 A 
ATOM     11  C   UNL     1       1.222  10.651  19.063  0.00  0.00    +0.000 A 
ATOM     12  C   UNL     1       0.908  10.085  20.296  0.00  0.00    +0.000 A 
ATOM     13  C   UNL     1       1.155   8.728  20.530  0.00  0.00    +0.000 A 
ENDBRANCH   7   8
ENDBRANCH   3   6
ENDBRANCH   1   3
BRANCH   1  15
ATOM     14  C   UNL     1       4.567   1.739  19.717  0.00  0.00    +0.000 C 
ATOM     15  N   UNL     1       3.537   2.710  19.256  0.00  0.00    +0.000 NA
BRANCH  15  16
ATOM     16  S   UNL     1       3.619   3.064  17.554  0.00  0.00    +0.000 S 
ATOM     17  O   UNL     1       4.246   1.923  16.912  0.00  0.00    +0.000 OA
ATOM     18  O   UNL     1       2.320   3.542  17.129  0.00  0.00    +0.000 OA
BRANCH  16  19
ATOM     19  C   UNL     1       4.761   4.423  17.494  0.00  0.00    +0.000 A 
ATOM     20  C   UNL     1       6.111   4.197  17.790  0.00  0.00    +0.000 A 
ATOM     21  C   UNL     1       7.004   5.271  17.788  0.00  0.00    +0.000 A 
ATOM     22  C   UNL     1       6.548   6.555  17.483  0.00  0.00    +0.000 A 
ATOM     23 CL   UNL     1       7.645   7.880  17.513  0.00  0.00    +0.000 Cl
ATOM     24  C   UNL     1       5.208   6.773  17.162  0.00  0.00    +0.000 A 
ATOM     25  C   UNL     1       4.309   5.706  17.161  0.00  0.00    +0.000 A 
ENDBRANCH  16  19
ENDBRANCH  15  16
ENDBRANCH   1  15
TORSDOF 6
ENDMDL
MODEL 5
REMARK VINA RESULT:      -7.0      3.236      8.006
REMARK  Name = 
REMARK  7 active torsions:
REMARK  status: ('A' for Active; 'I' for Inactive)
REMARK    1  A    between atoms: C_1  and  N_2
REMARK    2  A    between atoms: N_2  and  N_3
REMARK    3  A    between atoms: N_2  and  S_15
REMARK    4  A    between atoms: N_3  and  S_4
REMARK    5  A    between atoms: S_4  and  C_7
REMARK    6  A    between atoms: C_8  and  C_9
REMARK    7  A    between atoms: S_15  and  C_18
REMARK                            x       y       z     vdW  Elec       q    Type
REMARK                         _______ _______ _______ _____ _____    ______ ____
ROOT
ATOM      1  N   UNL     1       3.588   6.146  19.561  0.00  0.00    +0.000 NA
ATOM      2  H   UNL     1       4.535   6.520  19.729  0.00  0.00    +0.000 HD
ENDROOT
BRANCH   1   3
ATOM      3  S   UNL     1       2.819   7.077  18.332  0.00  0.00    +0.000 S 
ATOM      4  O   UNL     1       3.882   7.662  17.538  0.00  0.00    +0.000 OA
ATOM      5  O   UNL     1       1.815   6.237  17.713  0.00  0.00    +0.000 OA
BRANCH   3   6
ATOM      6  C   UNL     1       2.009   8.366  19.162  0.00  0.00    +0.000 C 
ATOM      7  C   UNL     1       1.398   8.128  20.333  0.00  0.00    +0.000 C 
BRANCH   7   8
ATOM      8  C   UNL     1       0.611   9.129  21.072  0.00  0.00    +0.000 A 
ATOM      9  C   UNL     1       0.441   8.965  22.455  0.00  0.00    +0.000 A 
ATOM     10  C   UNL     1      -0.292   9.893  23.202  0.00  0.00    +0.000 A 
ATOM     11  C   UNL     1      -0.855  11.002  22.577  0.00  0.00    +0.000 A 
ATOM     12  C   UNL     1      -0.681  11.187  21.208  0.00  0.00    +0.000 A 
ATOM     13  C   UNL     1       0.053  10.260  20.462  0.00  0.00    +0.000 A 
ENDBRANCH   7   8
ENDBRANCH   3   6
ENDBRANCH   1   3
BRANCH   1  15
ATOM     14  C   UNL     1       2.722   3.881  20.131  0.00  0.00    +0.000 C 
ATOM     15  N   UNL     1       3.632   4.729  19.313  0.00  0.00    +0.000 NA
BRANCH  15  16
ATOM     16  S   UNL     1       5.282   4.174  19.301  0.00  0.00    +0.000 S 
ATOM     17  O   UNL     1       6.071   5.171  20.002  0.00  0.00    +0.000 OA
ATOM     18  O   UNL     1       5.294   2.785  19.712  0.00  0.00    +0.000 OA
BRANCH  16  19
ATOM     19  C   UNL     1       5.706   4.250  17.578  0.00  0.00    +0.000 A 
ATOM     20  C   UNL     1       7.030   4.523  17.211  0.00  0.00    +0.000 A 
ATOM     21  C   UNL     1       7.359   4.629  15.857  0.00  0.00    +0.000 A 
ATOM     22  C   UNL     1       6.372   4.453  14.885  0.00  0.00    +0.000 A 
ATOM     23 CL   UNL     1       6.775   4.615  13.220  0.00  0.00    +0.000 Cl
ATOM     24  C   UNL     1       5.060   4.153  15.253  0.00  0.00    +0.000 A 
ATOM     25  C   UNL     1       4.723   4.045  16.602  0.00  0.00    +0.000 A 
ENDBRANCH  16  19
ENDBRANCH  15  16
ENDBRANCH   1  15
TORSDOF 6
ENDMDL
MODEL 6
REMARK VINA RESULT:      -7.0      3.180      8.097
REMARK  Name = 
REMARK  7 active torsions:
REMARK  status: ('A' for Active; 'I' for Inactive)
REMARK    1  A    between atoms: C_1  and  N_2
REMARK    2  A    between atoms: N_2  and  N_3
REMARK    3  A    between atoms: N_2  and  S_15
REMARK    4  A    between atoms: N_3  and  S_4
REMARK    5  A    between atoms: S_4  and  C_7
REMARK    6  A    between atoms: C_8  and  C_9
REMARK    7  A    between atoms: S_15  and  C_18
REMARK                            x       y       z     vdW  Elec       q    Type
REMARK                         _______ _______ _______ _____ _____    ______ ____
ROOT
ATOM      1  N   UNL     1       2.824   4.909  19.032  0.00  0.00    +0.000 NA
ATOM      2  H   UNL     1       3.024   3.909  18.871  0.00  0.00    +0.000 HD
ENDROOT
BRANCH   1   3
ATOM      3  S   UNL     1       1.896   5.080  20.473  0.00  0.00    +0.000 S 
ATOM      4  O   UNL     1       0.585   4.534  20.181  0.00  0.00    +0.000 OA
ATOM      5  O   UNL     1       2.686   4.552  21.566  0.00  0.00    +0.000 OA
BRANCH   3   6
ATOM      6  C   UNL     1       1.717   6.788  20.711  0.00  0.00    +0.000 C 
ATOM      7  C   UNL     1       0.612   7.269  21.304  0.00  0.00    +0.000 C 
BRANCH   7   8
ATOM      8  C   UNL     1       0.323   8.702  21.474  0.00  0.00    +0.000 A 
ATOM      9  C   UNL     1       0.675   9.587  20.443  0.00  0.00    +0.000 A 
ATOM     10  C   UNL     1       0.414  10.956  20.555  0.00  0.00    +0.000 A 
ATOM     11  C   UNL     1      -0.210  11.457  21.693  0.00  0.00    +0.000 A 
ATOM     12  C   UNL     1      -0.580  10.589  22.717  0.00  0.00    +0.000 A 
ATOM     13  C   UNL     1      -0.321   9.219  22.605  0.00  0.00    +0.000 A 
ENDBRANCH   7   8
ENDBRANCH   3   6
ENDBRANCH   1   3
BRANCH   1  15
ATOM     14  C   UNL     1       4.096   6.774  17.978  0.00  0.00    +0.000 C 
ATOM     15  N   UNL     1       4.036   5.686  18.992  0.00  0.00    +0.000 NA
BRANCH  15  16
ATOM     16  S   UNL     1       5.423   4.633  18.972  0.00  0.00    +0.000 S 
ATOM     17  O   UNL     1       6.503   5.340  19.636  0.00  0.00    +0.000 OA
ATOM     18  O   UNL     1       5.000   3.322  19.418  0.00  0.00    +0.000 OA
BRANCH  16  19
ATOM     19  C   UNL     1       5.812   4.536  17.242  0.00  0.00    +0.000 A 
ATOM     20  C   UNL     1       4.901   3.928  16.369  0.00  0.00    +0.000 A 
ATOM     21  C   UNL     1       5.223   3.809  15.014  0.00  0.00    +0.000 A 
ATOM     22  C   UNL     1       6.440   4.304  14.542  0.00  0.00    +0.000 A 
ATOM     23 CL   UNL     1       6.846   4.127  12.880  0.00  0.00    +0.000 Cl
ATOM     24  C   UNL     1       7.334   4.934  15.409  0.00  0.00    +0.000 A 
ATOM     25  C   UNL     1       7.020   5.058  16.763  0.00  0.00    +0.000 A 
ENDBRANCH  16  19
ENDBRANCH  15  16
ENDBRANCH   1  15
TORSDOF 6
ENDMDL
MODEL 7
REMARK VINA RESULT:      -7.0      0.687      1.196
REMARK  Name = 
REMARK  7 active torsions:
REMARK  status: ('A' for Active; 'I' for Inactive)
REMARK    1  A    between atoms: C_1  and  N_2
REMARK    2  A    between atoms: N_2  and  N_3
REMARK    3  A    between atoms: N_2  and  S_15
REMARK    4  A    between atoms: N_3  and  S_4
REMARK    5  A    between atoms: S_4  and  C_7
REMARK    6  A    between atoms: C_8  and  C_9
REMARK    7  A    between atoms: S_15  and  C_18
REMARK                            x       y       z     vdW  Elec       q    Type
REMARK                         _______ _______ _______ _____ _____    ______ ____
ROOT
ATOM      1  N   UNL     1       4.705   3.521  18.515  0.00  0.00    +0.000 NA
ATOM      2  H   UNL     1       4.211   3.360  17.623  0.00  0.00    +0.000 HD
ENDROOT
BRANCH   1   3
ATOM      3  S   UNL     1       5.863   4.779  18.304  0.00  0.00    +0.000 S 
ATOM      4  O   UNL     1       5.112   6.017  18.235  0.00  0.00    +0.000 OA
ATOM      5  O   UNL     1       6.891   4.597  19.308  0.00  0.00    +0.000 OA
BRANCH   3   6
ATOM      6  C   UNL     1       6.572   4.503  16.746  0.00  0.00    +0.000 C 
ATOM      7  C   UNL     1       5.937   4.919  15.639  0.00  0.00    +0.000 C 
BRANCH   7   8
ATOM      8  C   UNL     1       6.409   4.658  14.269  0.00  0.00    +0.000 A 
ATOM      9  C   UNL     1       5.767   3.665  13.513  0.00  0.00    +0.000 A 
ATOM     10  C   UNL     1       6.175   3.386  12.205  0.00  0.00    +0.000 A 
ATOM     11  C   UNL     1       7.221   4.103  11.632  0.00  0.00    +0.000 A 
ATOM     12  C   UNL     1       7.856   5.103  12.364  0.00  0.00    +0.000 A 
ATOM     13  C   UNL     1       7.448   5.383  13.672  0.00  0.00    +0.000 A 
ENDBRANCH   7   8
ENDBRANCH   3   6
ENDBRANCH   1   3
BRANCH   1  15
ATOM     14  C   UNL     1       3.761   2.704  20.670  0.00  0.00    +0.000 C 
ATOM     15  N   UNL     1       3.770   3.728  19.590  0.00  0.00    +0.000 NA
BRANCH  15  16
ATOM     16  S   UNL     1       2.190   4.083  18.949  0.00  0.00    +0.000 S 
ATOM     17  O   UNL     1       2.285   3.982  17.504  0.00  0.00    +0.000 OA
ATOM     18  O   UNL     1       1.218   3.310  19.693  0.00  0.00    +0.000 OA
BRANCH  16  19
ATOM     19  C   UNL     1       1.978   5.796  19.366  0.00  0.00    +0.000 A 
ATOM     20  C   UNL     1       1.566   6.140  20.660  0.00  0.00    +0.000 A 
ATOM     21  C   UNL     1       1.354   7.484  20.979  0.00  0.00    +0.000 A 
ATOM     22  C   UNL     1       1.563   8.470  20.013  0.00  0.00    +0.000 A 
ATOM     23 CL   UNL     1       1.270  10.120  20.401  0.00  0.00    +0.000 Cl
ATOM     24  C   UNL     1       2.000   8.127  18.733  0.00  0.00    +0.000 A 
ATOM     25  C   UNL     1       2.215   6.788  18.406  0.00  0.00    +0.000 A 
ENDBRANCH  16  19
ENDBRANCH  15  16
ENDBRANCH   1  15
TORSDOF 6
ENDMDL
MODEL 8
REMARK VINA RESULT:      -7.0      3.107      7.653
REMARK  Name = 
REMARK  7 active torsions:
REMARK  status: ('A' for Active; 'I' for Inactive)
REMARK    1  A    between atoms: C_1  and  N_2
REMARK    2  A    between atoms: N_2  and  N_3
REMARK    3  A    between atoms: N_2  and  S_15
REMARK    4  A    between atoms: N_3  and  S_4
REMARK    5  A    between atoms: S_4  and  C_7
REMARK    6  A    between atoms: C_8  and  C_9
REMARK    7  A    between atoms: S_15  and  C_18
REMARK                            x       y       z     vdW  Elec       q    Type
REMARK                         _______ _______ _______ _____ _____    ______ ____
ROOT
ATOM      1  N   UNL     1       3.564   5.696  19.662  0.00  0.00    +0.000 NA
ATOM      2  H   UNL     1       4.572   5.547  19.496  0.00  0.00    +0.000 HD
ENDROOT
BRANCH   1   3
ATOM      3  S   UNL     1       2.913   6.652  18.385  0.00  0.00    +0.000 S 
ATOM      4  O   UNL     1       4.047   7.166  17.641  0.00  0.00    +0.000 OA
ATOM      5  O   UNL     1       1.896   5.861  17.723  0.00  0.00    +0.000 OA
BRANCH   3   6
ATOM      6  C   UNL     1       2.136   7.995  19.159  0.00  0.00    +0.000 C 
ATOM      7  C   UNL     1       1.664   7.865  20.409  0.00  0.00    +0.000 C 
BRANCH   7   8
ATOM      8  C   UNL     1       0.914   8.913  21.121  0.00  0.00    +0.000 A 
ATOM      9  C   UNL     1       0.664  10.127  20.465  0.00  0.00    +0.000 A 
ATOM     10  C   UNL     1      -0.051  11.149  21.097  0.00  0.00    +0.000 A 
ATOM     11  C   UNL     1      -0.534  10.967  22.389  0.00  0.00    +0.000 A 
ATOM     12  C   UNL     1      -0.308   9.761  23.048  0.00  0.00    +0.000 A 
ATOM     13  C   UNL     1       0.405   8.738  22.415  0.00  0.00    +0.000 A 
ENDBRANCH   7   8
ENDBRANCH   3   6
ENDBRANCH   1   3
BRANCH   1  15
ATOM     14  C   UNL     1       2.198   4.287  21.197  0.00  0.00    +0.000 C 
ATOM     15  N   UNL     1       2.891   4.443  19.888  0.00  0.00    +0.000 NA
BRANCH  15  16
ATOM     16  S   UNL     1       3.945   3.116  19.492  0.00  0.00    +0.000 S 
ATOM     17  O   UNL     1       4.860   2.953  20.608  0.00  0.00    +0.000 OA
ATOM     18  O   UNL     1       3.128   2.015  19.026  0.00  0.00    +0.000 OA
BRANCH  16  19
ATOM     19  C   UNL     1       4.868   3.750  18.114  0.00  0.00    +0.000 A 
ATOM     20  C   UNL     1       4.344   3.621  16.822  0.00  0.00    +0.000 A 
ATOM     21  C   UNL     1       5.087   4.077  15.730  0.00  0.00    +0.000 A 
ATOM     22  C   UNL     1       6.336   4.665  15.936  0.00  0.00    +0.000 A 
ATOM     23 CL   UNL     1       7.261   5.197  14.586  0.00  0.00    +0.000 Cl
ATOM     24  C   UNL     1       6.844   4.817  17.226  0.00  0.00    +0.000 A 
ATOM     25  C   UNL     1       6.108   4.365  18.322  0.00  0.00    +0.000 A 
ENDBRANCH  16  19
ENDBRANCH  15  16
ENDBRANCH   1  15
TORSDOF 6
ENDMDL
MODEL 9
REMARK VINA RESULT:      -7.0      0.978      1.750
REMARK  Name = 
REMARK  7 active torsions:
REMARK  status: ('A' for Active; 'I' for Inactive)
REMARK    1  A    between atoms: C_1  and  N_2
REMARK    2  A    between atoms: N_2  and  N_3
REMARK    3  A    between atoms: N_2  and  S_15
REMARK    4  A    between atoms: N_3  and  S_4
REMARK    5  A    between atoms: S_4  and  C_7
REMARK    6  A    between atoms: C_8  and  C_9
REMARK    7  A    between atoms: S_15  and  C_18
REMARK                            x       y       z     vdW  Elec       q    Type
REMARK                         _______ _______ _______ _____ _____    ______ ____
ROOT
ATOM      1  N   UNL     1       4.471   4.027  18.370  0.00  0.00    +0.000 NA
ATOM      2  H   UNL     1       3.689   4.473  17.865  0.00  0.00    +0.000 HD
ENDROOT
BRANCH   1   3
ATOM      3  S   UNL     1       5.835   5.080  18.350  0.00  0.00    +0.000 S 
ATOM      4  O   UNL     1       5.312   6.428  18.452  0.00  0.00    +0.000 OA
ATOM      5  O   UNL     1       6.783   4.583  19.326  0.00  0.00    +0.000 OA
BRANCH   3   6
ATOM      6  C   UNL     1       6.536   4.903  16.774  0.00  0.00    +0.000 C 
ATOM      7  C   UNL     1       5.743   4.749  15.702  0.00  0.00    +0.000 C 
BRANCH   7   8
ATOM      8  C   UNL     1       6.237   4.504  14.338  0.00  0.00    +0.000 A 
ATOM      9  C   UNL     1       5.545   3.596  13.523  0.00  0.00    +0.000 A 
ATOM     10  C   UNL     1       5.971   3.336  12.217  0.00  0.00    +0.000 A 
ATOM     11  C   UNL     1       7.089   3.989  11.705  0.00  0.00    +0.000 A 
ATOM     12  C   UNL     1       7.776   4.906  12.495  0.00  0.00    +0.000 A 
ATOM     13  C   UNL     1       7.349   5.167  13.801  0.00  0.00    +0.000 A 
ENDBRANCH   7   8
ENDBRANCH   3   6
ENDBRANCH   1   3
BRANCH   1  15
ATOM     14  C   UNL     1       4.495   2.234  20.100  0.00  0.00    +0.000 C 
ATOM     15  N   UNL     1       4.056   3.594  19.679  0.00  0.00    +0.000 NA
BRANCH  15  16
ATOM     16  S   UNL     1       2.352   3.875  19.891  0.00  0.00    +0.000 S 
ATOM     17  O   UNL     1       1.660   3.052  18.916  0.00  0.00    +0.000 OA
ATOM     18  O   UNL     1       2.050   3.774  21.304  0.00  0.00    +0.000 OA
BRANCH  16  19
ATOM     19  C   UNL     1       2.174   5.573  19.402  0.00  0.00    +0.000 A 
ATOM     20  C   UNL     1       2.156   5.894  18.040  0.00  0.00    +0.000 A 
ATOM     21  C   UNL     1       2.062   7.233  17.651  0.00  0.00    +0.000 A 
ATOM     22  C   UNL     1       1.976   8.235  18.619  0.00  0.00    +0.000 A 
ATOM     23 CL   UNL     1       1.892   9.884  18.137  0.00  0.00    +0.000 Cl
ATOM     24  C   UNL     1       1.966   7.909  19.976  0.00  0.00    +0.000 A 
ATOM     25  C   UNL     1       2.059   6.575  20.373  0.00  0.00    +0.000 A 
ENDBRANCH  16  19
ENDBRANCH  15  16
ENDBRANCH   1  15
TORSDOF 6
ENDMDL
