MODEL 1
REMARK VINA RESULT:      -7.6      0.000      0.000
REMARK  Name = 
REMARK  5 active torsions:
REMARK  status: ('A' for Active; 'I' for Inactive)
REMARK    1  A    between atoms: C_1  and  S_2
REMARK    2  A    between atoms: S_2  and  C_3
REMARK    3  A    between atoms: C_10  and  C_11
REMARK    4  A    between atoms: C_14  and  C_15
REMARK    5  A    between atoms: C_24  and  C_25
REMARK                            x       y       z     vdW  Elec       q    Type
REMARK                         _______ _______ _______ _____ _____    ______ ____
ROOT
ATOM      1  C   UNL     1       5.854  15.471  18.465  0.00  0.00    +0.000 A 
ATOM      2  N   UNL     1       5.530  16.775  18.612  0.00  0.00    +0.000 NA
ATOM      3  N   UNL     1       4.253  17.158  18.488  0.00  0.00    +0.000 NA
ATOM      4  C   UNL     1       3.295  16.237  18.264  0.00  0.00    +0.000 A 
ATOM      5  C   UNL     1       3.658  14.894  18.180  0.00  0.00    +0.000 A 
ATOM      6  N   UNL     1       4.957  14.479  18.229  0.00  0.00    +0.000 NA
ATOM      7  O   UNL     1       2.650  13.987  17.814  0.00  0.00    +0.000 OA
ATOM      8  C   UNL     1       1.721  13.737  18.914  0.00  0.00    +0.000 C 
ATOM      9  N   UNL     1       1.118  14.917  19.573  0.00  0.00    +0.000 N 
ATOM     10  C   UNL     1       1.660  15.187  20.860  0.00  0.00    +0.000 C 
ATOM     11  C   UNL     1       1.166  16.403  21.627  0.00  0.00    +0.000 C 
ATOM     12  O   UNL     1       2.508  14.481  21.413  0.00  0.00    +0.000 OA
ATOM     13  C   UNL     1       0.870  16.034  18.715  0.00  0.00    +0.000 A 
ATOM     14  C   UNL     1      -0.436  16.490  18.542  0.00  0.00    +0.000 A 
ATOM     15  C   UNL     1      -0.678  17.622  17.759  0.00  0.00    +0.000 A 
ATOM     16  C   UNL     1       0.377  18.298  17.152  0.00  0.00    +0.000 A 
ATOM     17  C   UNL     1       1.683  17.843  17.334  0.00  0.00    +0.000 A 
ATOM     18  C   UNL     1       1.947  16.698  18.110  0.00  0.00    +0.000 A 
ENDROOT
BRANCH   8  19
ATOM     19  C   UNL     1       0.757  12.528  18.749  0.00  0.00    +0.000 A 
ATOM     20  C   UNL     1       1.426  11.273  18.738  0.00  0.00    +0.000 A 
ATOM     21  N   UNL     1       0.544  10.625  19.590  0.00  0.00    +0.000 N 
ATOM     22  C   UNL     1       0.544  10.802  21.003  0.00  0.00    +0.000 C 
ATOM     23  C   UNL     1      -0.787  10.750  21.700  0.00  0.00    +0.000 C 
ATOM     24  O   UNL     1       1.579  11.159  21.553  0.00  0.00    +0.000 OA
ATOM     25  C   UNL     1      -0.559  10.652  18.765  0.00  0.00    +0.000 A 
ATOM     26  C   UNL     1      -1.413   9.645  18.332  0.00  0.00    +0.000 A 
ATOM     27  C   UNL     1      -2.640  10.088  17.862  0.00  0.00    +0.000 A 
ATOM     28  C   UNL     1      -2.961  11.446  17.960  0.00  0.00    +0.000 A 
ATOM     29  C   UNL     1      -2.003  12.450  18.318  0.00  0.00    +0.000 A 
ATOM     30  C   UNL     1      -0.666  12.053  18.562  0.00  0.00    +0.000 A 
ENDBRANCH   8  19
BRANCH   1  32
ATOM     31  C   UNL     1       7.975  14.860  20.208  0.00  0.00    +0.000 C 
ATOM     32  S   UNL     1       7.624  15.230  18.492  0.00  0.00    +0.000 S 
ENDBRANCH   1  32
TORSDOF 2
ENDMDL
MODEL 2
REMARK VINA RESULT:      -7.1      5.199      8.170
REMARK  Name = 
REMARK  5 active torsions:
REMARK  status: ('A' for Active; 'I' for Inactive)
REMARK    1  A    between atoms: C_1  and  S_2
REMARK    2  A    between atoms: S_2  and  C_3
REMARK    3  A    between atoms: C_10  and  C_11
REMARK    4  A    between atoms: C_14  and  C_15
REMARK    5  A    between atoms: C_24  and  C_25
REMARK                            x       y       z     vdW  Elec       q    Type
REMARK                         _______ _______ _______ _____ _____    ______ ____
ROOT
ATOM      1  C   UNL     1      -6.963  14.972  18.954  0.00  0.00    +0.000 A 
ATOM      2  N   UNL     1      -7.412  15.386  20.160  0.00  0.00    +0.000 NA
ATOM      3  N   UNL     1      -6.898  14.854  21.276  0.00  0.00    +0.000 NA
ATOM      4  C   UNL     1      -5.907  13.945  21.191  0.00  0.00    +0.000 A 
ATOM      5  C   UNL     1      -5.427  13.586  19.932  0.00  0.00    +0.000 A 
ATOM      6  N   UNL     1      -5.977  14.055  18.775  0.00  0.00    +0.000 NA
ATOM      7  O   UNL     1      -4.490  12.541  19.885  0.00  0.00    +0.000 OA
ATOM      8  C   UNL     1      -3.171  12.976  20.341  0.00  0.00    +0.000 C 
ATOM      9  N   UNL     1      -3.097  13.656  21.653  0.00  0.00    +0.000 N 
ATOM     10  C   UNL     1      -2.884  15.058  21.554  0.00  0.00    +0.000 C 
ATOM     11  C   UNL     1      -2.839  15.888  22.827  0.00  0.00    +0.000 C 
ATOM     12  O   UNL     1      -2.715  15.656  20.487  0.00  0.00    +0.000 OA
ATOM     13  C   UNL     1      -4.036  13.200  22.629  0.00  0.00    +0.000 A 
ATOM     14  C   UNL     1      -3.572  12.637  23.818  0.00  0.00    +0.000 A 
ATOM     15  C   UNL     1      -4.483  12.251  24.805  0.00  0.00    +0.000 A 
ATOM     16  C   UNL     1      -5.851  12.426  24.610  0.00  0.00    +0.000 A 
ATOM     17  C   UNL     1      -6.310  12.996  23.423  0.00  0.00    +0.000 A 
ATOM     18  C   UNL     1      -5.410  13.381  22.411  0.00  0.00    +0.000 A 
ENDROOT
BRANCH   8  19
ATOM     19  C   UNL     1      -1.983  12.017  20.042  0.00  0.00    +0.000 A 
ATOM     20  C   UNL     1      -1.734  11.845  18.653  0.00  0.00    +0.000 A 
ATOM     21  N   UNL     1      -0.355  11.972  18.731  0.00  0.00    +0.000 N 
ATOM     22  C   UNL     1       0.312  13.224  18.865  0.00  0.00    +0.000 C 
ATOM     23  C   UNL     1       1.570  13.245  19.687  0.00  0.00    +0.000 C 
ATOM     24  O   UNL     1      -0.250  14.238  18.467  0.00  0.00    +0.000 OA
ATOM     25  C   UNL     1      -0.107  10.834  19.465  0.00  0.00    +0.000 A 
ATOM     26  C   UNL     1       0.756   9.766  19.250  0.00  0.00    +0.000 A 
ATOM     27  C   UNL     1       1.048   9.020  20.383  0.00  0.00    +0.000 A 
ATOM     28  C   UNL     1       0.567   9.446  21.625  0.00  0.00    +0.000 A 
ATOM     29  C   UNL     1      -0.402  10.492  21.771  0.00  0.00    +0.000 A 
ATOM     30  C   UNL     1      -0.912  11.108  20.602  0.00  0.00    +0.000 A 
ENDBRANCH   8  19
BRANCH   1  32
ATOM     31  C   UNL     1      -7.499  14.665  16.210  0.00  0.00    +0.000 C 
ATOM     32  S   UNL     1      -7.917  15.684  17.622  0.00  0.00    +0.000 S 
ENDBRANCH   1  32
TORSDOF 2
ENDMDL
MODEL 3
REMARK VINA RESULT:      -6.8      5.504      8.097
REMARK  Name = 
REMARK  5 active torsions:
REMARK  status: ('A' for Active; 'I' for Inactive)
REMARK    1  A    between atoms: C_1  and  S_2
REMARK    2  A    between atoms: S_2  and  C_3
REMARK    3  A    between atoms: C_10  and  C_11
REMARK    4  A    between atoms: C_14  and  C_15
REMARK    5  A    between atoms: C_24  and  C_25
REMARK                            x       y       z     vdW  Elec       q    Type
REMARK                         _______ _______ _______ _____ _____    ______ ____
ROOT
ATOM      1  C   UNL     1      -6.333  16.899  22.551  0.00  0.00    +0.000 A 
ATOM      2  N   UNL     1      -7.505  16.647  21.927  0.00  0.00    +0.000 NA
ATOM      3  N   UNL     1      -7.520  15.876  20.833  0.00  0.00    +0.000 NA
ATOM      4  C   UNL     1      -6.377  15.320  20.388  0.00  0.00    +0.000 A 
ATOM      5  C   UNL     1      -5.196  15.551  21.092  0.00  0.00    +0.000 A 
ATOM      6  N   UNL     1      -5.133  16.389  22.167  0.00  0.00    +0.000 NA
ATOM      7  O   UNL     1      -4.010  15.064  20.519  0.00  0.00    +0.000 OA
ATOM      8  C   UNL     1      -3.894  13.614  20.667  0.00  0.00    +0.000 C 
ATOM      9  N   UNL     1      -5.041  12.793  20.219  0.00  0.00    +0.000 N 
ATOM     10  C   UNL     1      -5.808  12.258  21.290  0.00  0.00    +0.000 C 
ATOM     11  C   UNL     1      -7.047  11.437  20.970  0.00  0.00    +0.000 C 
ATOM     12  O   UNL     1      -5.523  12.404  22.482  0.00  0.00    +0.000 OA
ATOM     13  C   UNL     1      -5.754  13.306  19.091  0.00  0.00    +0.000 A 
ATOM     14  C   UNL     1      -5.815  12.555  17.918  0.00  0.00    +0.000 A 
ATOM     15  C   UNL     1      -6.566  13.020  16.834  0.00  0.00    +0.000 A 
ATOM     16  C   UNL     1      -7.255  14.227  16.919  0.00  0.00    +0.000 A 
ATOM     17  C   UNL     1      -7.197  14.971  18.097  0.00  0.00    +0.000 A 
ATOM     18  C   UNL     1      -6.438  14.527  19.196  0.00  0.00    +0.000 A 
ENDROOT
BRANCH   8  19
ATOM     19  C   UNL     1      -2.500  12.994  20.364  0.00  0.00    +0.000 A 
ATOM     20  C   UNL     1      -1.420  13.758  20.883  0.00  0.00    +0.000 A 
ATOM     21  N   UNL     1      -0.713  12.685  21.404  0.00  0.00    +0.000 N 
ATOM     22  C   UNL     1      -1.058  12.034  22.623  0.00  0.00    +0.000 C 
ATOM     23  C   UNL     1      -0.818  10.553  22.701  0.00  0.00    +0.000 C 
ATOM     24  O   UNL     1      -1.688  12.660  23.469  0.00  0.00    +0.000 OA
ATOM     25  C   UNL     1      -0.409  12.070  20.210  0.00  0.00    +0.000 A 
ATOM     26  C   UNL     1       0.799  11.639  19.674  0.00  0.00    +0.000 A 
ATOM     27  C   UNL     1       0.681  10.701  18.659  0.00  0.00    +0.000 A 
ATOM     28  C   UNL     1      -0.582  10.192  18.341  0.00  0.00    +0.000 A 
ATOM     29  C   UNL     1      -1.800  10.749  18.853  0.00  0.00    +0.000 A 
ATOM     30  C   UNL     1      -1.721  11.879  19.703  0.00  0.00    +0.000 A 
ENDBRANCH   8  19
BRANCH   1  32
ATOM     31  C   UNL     1      -5.202  17.700  24.999  0.00  0.00    +0.000 C 
ATOM     32  S   UNL     1      -6.535  18.089  23.868  0.00  0.00    +0.000 S 
ENDBRANCH   1  32
TORSDOF 2
ENDMDL
MODEL 4
REMARK VINA RESULT:      -6.8      7.653     10.229
REMARK  Name = 
REMARK  5 active torsions:
REMARK  status: ('A' for Active; 'I' for Inactive)
REMARK    1  A    between atoms: C_1  and  S_2
REMARK    2  A    between atoms: S_2  and  C_3
REMARK    3  A    between atoms: C_10  and  C_11
REMARK    4  A    between atoms: C_14  and  C_15
REMARK    5  A    between atoms: C_24  and  C_25
REMARK                            x       y       z     vdW  Elec       q    Type
REMARK                         _______ _______ _______ _____ _____    ______ ____
ROOT
ATOM      1  C   UNL     1       6.236  11.976  25.774  0.00  0.00    +0.000 A 
ATOM      2  N   UNL     1       6.362  13.042  26.596  0.00  0.00    +0.000 NA
ATOM      3  N   UNL     1       7.274  13.983  26.323  0.00  0.00    +0.000 NA
ATOM      4  C   UNL     1       8.027  13.886  25.211  0.00  0.00    +0.000 A 
ATOM      5  C   UNL     1       7.828  12.805  24.354  0.00  0.00    +0.000 A 
ATOM      6  N   UNL     1       6.959  11.792  24.638  0.00  0.00    +0.000 NA
ATOM      7  O   UNL     1       8.723  12.673  23.280  0.00  0.00    +0.000 OA
ATOM      8  C   UNL     1       8.449  13.647  22.225  0.00  0.00    +0.000 C 
ATOM      9  N   UNL     1       8.351  15.069  22.623  0.00  0.00    +0.000 N 
ATOM     10  C   UNL     1       7.019  15.566  22.626  0.00  0.00    +0.000 C 
ATOM     11  C   UNL     1       6.768  16.999  23.067  0.00  0.00    +0.000 C 
ATOM     12  O   UNL     1       6.036  14.906  22.276  0.00  0.00    +0.000 OA
ATOM     13  C   UNL     1       9.202  15.459  23.703  0.00  0.00    +0.000 A 
ATOM     14  C   UNL     1      10.173  16.438  23.493  0.00  0.00    +0.000 A 
ATOM     15  C   UNL     1      10.963  16.872  24.561  0.00  0.00    +0.000 A 
ATOM     16  C   UNL     1      10.786  16.336  25.834  0.00  0.00    +0.000 A 
ATOM     17  C   UNL     1       9.809  15.362  26.041  0.00  0.00    +0.000 A 
ATOM     18  C   UNL     1       9.010  14.903  24.977  0.00  0.00    +0.000 A 
ENDROOT
BRANCH   8  19
ATOM     19  C   UNL     1       9.153  13.407  20.858  0.00  0.00    +0.000 A 
ATOM     20  C   UNL     1       8.418  13.910  19.751  0.00  0.00    +0.000 A 
ATOM     21  N   UNL     1       9.496  14.501  19.110  0.00  0.00    +0.000 N 
ATOM     22  C   UNL     1      10.063  15.744  19.511  0.00  0.00    +0.000 C 
ATOM     23  C   UNL     1      11.548  15.904  19.348  0.00  0.00    +0.000 C 
ATOM     24  O   UNL     1       9.363  16.542  20.123  0.00  0.00    +0.000 OA
ATOM     25  C   UNL     1      10.188  13.347  18.815  0.00  0.00    +0.000 A 
ATOM     26  C   UNL     1      10.706  12.860  17.621  0.00  0.00    +0.000 A 
ATOM     27  C   UNL     1      11.690  11.894  17.767  0.00  0.00    +0.000 A 
ATOM     28  C   UNL     1      12.151  11.575  19.049  0.00  0.00    +0.000 A 
ATOM     29  C   UNL     1      11.508  12.031  20.245  0.00  0.00    +0.000 A 
ATOM     30  C   UNL     1      10.340  12.823  20.125  0.00  0.00    +0.000 A 
ENDBRANCH   8  19
BRANCH   1  32
ATOM     31  C   UNL     1       4.177  11.692  27.669  0.00  0.00    +0.000 C 
ATOM     32  S   UNL     1       5.093  10.773  26.434  0.00  0.00    +0.000 S 
ENDBRANCH   1  32
TORSDOF 2
ENDMDL
MODEL 5
REMARK VINA RESULT:      -6.7      7.501      9.904
REMARK  Name = 
REMARK  5 active torsions:
REMARK  status: ('A' for Active; 'I' for Inactive)
REMARK    1  A    between atoms: C_1  and  S_2
REMARK    2  A    between atoms: S_2  and  C_3
REMARK    3  A    between atoms: C_10  and  C_11
REMARK    4  A    between atoms: C_14  and  C_15
REMARK    5  A    between atoms: C_24  and  C_25
REMARK                            x       y       z     vdW  Elec       q    Type
REMARK                         _______ _______ _______ _____ _____    ______ ____
ROOT
ATOM      1  C   UNL     1       6.345  11.977  25.167  0.00  0.00    +0.000 A 
ATOM      2  N   UNL     1       6.284  13.125  25.879  0.00  0.00    +0.000 NA
ATOM      3  N   UNL     1       7.160  14.105  25.630  0.00  0.00    +0.000 NA
ATOM      4  C   UNL     1       8.068  13.961  24.645  0.00  0.00    +0.000 A 
ATOM      5  C   UNL     1       8.063  12.788  23.891  0.00  0.00    +0.000 A 
ATOM      6  N   UNL     1       7.232  11.741  24.165  0.00  0.00    +0.000 NA
ATOM      7  O   UNL     1       9.108  12.625  22.967  0.00  0.00    +0.000 OA
ATOM      8  C   UNL     1       8.922  13.466  21.786  0.00  0.00    +0.000 C 
ATOM      9  N   UNL     1       8.675  14.907  22.012  0.00  0.00    +0.000 N 
ATOM     10  C   UNL     1       7.326  15.293  21.784  0.00  0.00    +0.000 C 
ATOM     11  C   UNL     1       6.922  16.738  22.030  0.00  0.00    +0.000 C 
ATOM     12  O   UNL     1       6.448  14.526  21.378  0.00  0.00    +0.000 OA
ATOM     13  C   UNL     1       9.338  15.468  23.148  0.00  0.00    +0.000 A 
ATOM     14  C   UNL     1      10.261  16.496  22.965  0.00  0.00    +0.000 A 
ATOM     15  C   UNL     1      10.862  17.095  24.076  0.00  0.00    +0.000 A 
ATOM     16  C   UNL     1      10.544  16.672  25.364  0.00  0.00    +0.000 A 
ATOM     17  C   UNL     1       9.613  15.649  25.542  0.00  0.00    +0.000 A 
ATOM     18  C   UNL     1       9.005  15.025  24.437  0.00  0.00    +0.000 A 
ENDROOT
BRANCH   8  19
ATOM     19  C   UNL     1       9.827  13.151  20.560  0.00  0.00    +0.000 A 
ATOM     20  C   UNL     1      10.798  12.147  20.821  0.00  0.00    +0.000 A 
ATOM     21  N   UNL     1      10.606  11.442  19.642  0.00  0.00    +0.000 N 
ATOM     22  C   UNL     1       9.509  10.559  19.425  0.00  0.00    +0.000 C 
ATOM     23  C   UNL     1       8.954  10.488  18.030  0.00  0.00    +0.000 C 
ATOM     24  O   UNL     1       8.963  10.046  20.395  0.00  0.00    +0.000 OA
ATOM     25  C   UNL     1      11.057  12.411  18.773  0.00  0.00    +0.000 A 
ATOM     26  C   UNL     1      12.008  12.374  17.761  0.00  0.00    +0.000 A 
ATOM     27  C   UNL     1      11.903  13.397  16.831  0.00  0.00    +0.000 A 
ATOM     28  C   UNL     1      10.826  14.287  16.909  0.00  0.00    +0.000 A 
ATOM     29  C   UNL     1       9.938  14.340  18.033  0.00  0.00    +0.000 A 
ATOM     30  C   UNL     1      10.175  13.467  19.123  0.00  0.00    +0.000 A 
ENDBRANCH   8  19
BRANCH   1  32
ATOM     31  C   UNL     1       4.747  11.391  27.406  0.00  0.00    +0.000 C 
ATOM     32  S   UNL     1       5.202  10.756  25.794  0.00  0.00    +0.000 S 
ENDBRANCH   1  32
TORSDOF 2
ENDMDL
MODEL 6
REMARK VINA RESULT:      -6.7      3.679      7.647
REMARK  Name = 
REMARK  5 active torsions:
REMARK  status: ('A' for Active; 'I' for Inactive)
REMARK    1  A    between atoms: C_1  and  S_2
REMARK    2  A    between atoms: S_2  and  C_3
REMARK    3  A    between atoms: C_10  and  C_11
REMARK    4  A    between atoms: C_14  and  C_15
REMARK    5  A    between atoms: C_24  and  C_25
REMARK                            x       y       z     vdW  Elec       q    Type
REMARK                         _______ _______ _______ _____ _____    ______ ____
ROOT
ATOM      1  C   UNL     1      -4.169  14.314  22.107  0.00  0.00    +0.000 A 
ATOM      2  N   UNL     1      -4.776  13.147  21.795  0.00  0.00    +0.000 NA
ATOM      3  N   UNL     1      -4.212  12.325  20.903  0.00  0.00    +0.000 NA
ATOM      4  C   UNL     1      -3.023  12.643  20.355  0.00  0.00    +0.000 A 
ATOM      5  C   UNL     1      -2.395  13.826  20.745  0.00  0.00    +0.000 A 
ATOM      6  N   UNL     1      -2.976  14.719  21.598  0.00  0.00    +0.000 NA
ATOM      7  O   UNL     1      -1.227  14.182  20.053  0.00  0.00    +0.000 OA
ATOM      8  C   UNL     1      -0.087  13.362  20.458  0.00  0.00    +0.000 C 
ATOM      9  N   UNL     1      -0.261  11.893  20.424  0.00  0.00    +0.000 N 
ATOM     10  C   UNL     1      -0.398  11.308  21.712  0.00  0.00    +0.000 C 
ATOM     11  C   UNL     1      -0.636   9.810  21.819  0.00  0.00    +0.000 C 
ATOM     12  O   UNL     1      -0.322  11.941  22.769  0.00  0.00    +0.000 OA
ATOM     13  C   UNL     1      -1.112  11.405  19.384  0.00  0.00    +0.000 A 
ATOM     14  C   UNL     1      -0.593  10.541  18.421  0.00  0.00    +0.000 A 
ATOM     15  C   UNL     1      -1.436  10.007  17.441  0.00  0.00    +0.000 A 
ATOM     16  C   UNL     1      -2.790  10.331  17.423  0.00  0.00    +0.000 A 
ATOM     17  C   UNL     1      -3.306  11.189  18.393  0.00  0.00    +0.000 A 
ATOM     18  C   UNL     1      -2.473  11.747  19.381  0.00  0.00    +0.000 A 
ENDROOT
BRANCH   8  19
ATOM     19  C   UNL     1       1.318  13.856  20.009  0.00  0.00    +0.000 A 
ATOM     20  C   UNL     1       1.476  13.893  18.597  0.00  0.00    +0.000 A 
ATOM     21  N   UNL     1       2.085  15.138  18.546  0.00  0.00    +0.000 N 
ATOM     22  C   UNL     1       1.374  16.366  18.666  0.00  0.00    +0.000 C 
ATOM     23  C   UNL     1       2.075  17.499  19.364  0.00  0.00    +0.000 C 
ATOM     24  O   UNL     1       0.186  16.392  18.366  0.00  0.00    +0.000 OA
ATOM     25  C   UNL     1       3.246  14.801  19.207  0.00  0.00    +0.000 A 
ATOM     26  C   UNL     1       4.584  14.966  18.867  0.00  0.00    +0.000 A 
ATOM     27  C   UNL     1       5.465  14.895  19.935  0.00  0.00    +0.000 A 
ATOM     28  C   UNL     1       4.960  14.783  21.234  0.00  0.00    +0.000 A 
ATOM     29  C   UNL     1       3.580  14.513  21.514  0.00  0.00    +0.000 A 
ATOM     30  C   UNL     1       2.693  14.328  20.426  0.00  0.00    +0.000 A 
ENDBRANCH   8  19
BRANCH   1  32
ATOM     31  C   UNL     1      -6.607  14.275  23.508  0.00  0.00    +0.000 C 
ATOM     32  S   UNL     1      -5.190  15.318  23.175  0.00  0.00    +0.000 S 
ENDBRANCH   1  32
TORSDOF 2
ENDMDL
MODEL 7
REMARK VINA RESULT:      -6.7      4.355      9.320
REMARK  Name = 
REMARK  5 active torsions:
REMARK  status: ('A' for Active; 'I' for Inactive)
REMARK    1  A    between atoms: C_1  and  S_2
REMARK    2  A    between atoms: S_2  and  C_3
REMARK    3  A    between atoms: C_10  and  C_11
REMARK    4  A    between atoms: C_14  and  C_15
REMARK    5  A    between atoms: C_24  and  C_25
REMARK                            x       y       z     vdW  Elec       q    Type
REMARK                         _______ _______ _______ _____ _____    ______ ____
ROOT
ATOM      1  C   UNL     1       3.179  15.864  21.405  0.00  0.00    +0.000 A 
ATOM      2  N   UNL     1       3.196  15.433  22.686  0.00  0.00    +0.000 NA
ATOM      3  N   UNL     1       4.215  14.679  23.117  0.00  0.00    +0.000 NA
ATOM      4  C   UNL     1       5.237  14.393  22.288  0.00  0.00    +0.000 A 
ATOM      5  C   UNL     1       5.216  14.906  20.991  0.00  0.00    +0.000 A 
ATOM      6  N   UNL     1       4.160  15.616  20.498  0.00  0.00    +0.000 NA
ATOM      7  O   UNL     1       6.231  14.474  20.122  0.00  0.00    +0.000 OA
ATOM      8  C   UNL     1       7.511  15.111  20.427  0.00  0.00    +0.000 C 
ATOM      9  N   UNL     1       7.987  15.042  21.826  0.00  0.00    +0.000 N 
ATOM     10  C   UNL     1       7.867  16.274  22.527  0.00  0.00    +0.000 C 
ATOM     11  C   UNL     1       8.272  16.330  23.991  0.00  0.00    +0.000 C 
ATOM     12  O   UNL     1       7.465  17.322  22.015  0.00  0.00    +0.000 OA
ATOM     13  C   UNL     1       7.639  13.848  22.530  0.00  0.00    +0.000 A 
ATOM     14  C   UNL     1       8.648  13.015  23.012  0.00  0.00    +0.000 A 
ATOM     15  C   UNL     1       8.316  11.882  23.759  0.00  0.00    +0.000 A 
ATOM     16  C   UNL     1       6.984  11.578  24.026  0.00  0.00    +0.000 A 
ATOM     17  C   UNL     1       5.977  12.418  23.549  0.00  0.00    +0.000 A 
ATOM     18  C   UNL     1       6.290  13.558  22.785  0.00  0.00    +0.000 A 
ENDROOT
BRANCH   8  19
ATOM     19  C   UNL     1       8.631  14.966  19.357  0.00  0.00    +0.000 A 
ATOM     20  C   UNL     1       8.833  16.147  18.591  0.00  0.00    +0.000 A 
ATOM     21  N   UNL     1      10.219  16.127  18.648  0.00  0.00    +0.000 N 
ATOM     22  C   UNL     1      10.964  16.539  19.790  0.00  0.00    +0.000 C 
ATOM     23  C   UNL     1      12.241  15.802  20.077  0.00  0.00    +0.000 C 
ATOM     24  O   UNL     1      10.455  17.335  20.571  0.00  0.00    +0.000 OA
ATOM     25  C   UNL     1      10.416  14.975  17.919  0.00  0.00    +0.000 A 
ATOM     26  C   UNL     1      11.206  14.709  16.807  0.00  0.00    +0.000 A 
ATOM     27  C   UNL     1      11.480  13.366  16.600  0.00  0.00    +0.000 A 
ATOM     28  C   UNL     1      11.058  12.426  17.547  0.00  0.00    +0.000 A 
ATOM     29  C   UNL     1      10.159  12.746  18.616  0.00  0.00    +0.000 A 
ATOM     30  C   UNL     1       9.658  14.068  18.706  0.00  0.00    +0.000 A 
ENDBRANCH   8  19
BRANCH   1  32
ATOM     31  C   UNL     1       0.407  15.417  21.239  0.00  0.00    +0.000 C 
ATOM     32  S   UNL     1       1.645  16.692  21.014  0.00  0.00    +0.000 S 
ENDBRANCH   1  32
TORSDOF 2
ENDMDL
MODEL 8
REMARK VINA RESULT:      -6.7      5.373      9.405
REMARK  Name = 
REMARK  5 active torsions:
REMARK  status: ('A' for Active; 'I' for Inactive)
REMARK    1  A    between atoms: C_1  and  S_2
REMARK    2  A    between atoms: S_2  and  C_3
REMARK    3  A    between atoms: C_10  and  C_11
REMARK    4  A    between atoms: C_14  and  C_15
REMARK    5  A    between atoms: C_24  and  C_25
REMARK                            x       y       z     vdW  Elec       q    Type
REMARK                         _______ _______ _______ _____ _____    ______ ____
ROOT
ATOM      1  C   UNL     1       3.500  15.932  21.805  0.00  0.00    +0.000 A 
ATOM      2  N   UNL     1       3.476  15.656  23.128  0.00  0.00    +0.000 NA
ATOM      3  N   UNL     1       4.384  14.821  23.646  0.00  0.00    +0.000 NA
ATOM      4  C   UNL     1       5.341  14.295  22.856  0.00  0.00    +0.000 A 
ATOM      5  C   UNL     1       5.372  14.649  21.508  0.00  0.00    +0.000 A 
ATOM      6  N   UNL     1       4.420  15.440  20.934  0.00  0.00    +0.000 NA
ATOM      7  O   UNL     1       6.301  13.977  20.698  0.00  0.00    +0.000 OA
ATOM      8  C   UNL     1       7.663  14.454  20.925  0.00  0.00    +0.000 C 
ATOM      9  N   UNL     1       8.147  14.484  22.323  0.00  0.00    +0.000 N 
ATOM     10  C   UNL     1       8.217  15.793  22.872  0.00  0.00    +0.000 C 
ATOM     11  C   UNL     1       8.650  15.963  24.320  0.00  0.00    +0.000 C 
ATOM     12  O   UNL     1       7.959  16.821  22.239  0.00  0.00    +0.000 OA
ATOM     13  C   UNL     1       7.644  13.442  23.163  0.00  0.00    +0.000 A 
ATOM     14  C   UNL     1       8.533  12.536  23.741  0.00  0.00    +0.000 A 
ATOM     15  C   UNL     1       8.055  11.558  24.617  0.00  0.00    +0.000 A 
ATOM     16  C   UNL     1       6.697  11.483  24.918  0.00  0.00    +0.000 A 
ATOM     17  C   UNL     1       5.813  12.396  24.344  0.00  0.00    +0.000 A 
ATOM     18  C   UNL     1       6.272  13.382  23.451  0.00  0.00    +0.000 A 
ENDROOT
BRANCH   8  19
ATOM     19  C   UNL     1       8.733  14.025  19.880  0.00  0.00    +0.000 A 
ATOM     20  C   UNL     1       8.502  14.563  18.585  0.00  0.00    +0.000 A 
ATOM     21  N   UNL     1       9.813  14.943  18.343  0.00  0.00    +0.000 N 
ATOM     22  C   UNL     1      10.410  16.108  18.903  0.00  0.00    +0.000 C 
ATOM     23  C   UNL     1      11.870  16.031  19.252  0.00  0.00    +0.000 C 
ATOM     24  O   UNL     1       9.686  17.040  19.236  0.00  0.00    +0.000 OA
ATOM     25  C   UNL     1      10.365  13.681  18.309  0.00  0.00    +0.000 A 
ATOM     26  C   UNL     1      11.165  13.048  17.365  0.00  0.00    +0.000 A 
ATOM     27  C   UNL     1      11.870  11.954  17.844  0.00  0.00    +0.000 A 
ATOM     28  C   UNL     1      11.819  11.650  19.208  0.00  0.00    +0.000 A 
ATOM     29  C   UNL     1      10.898  12.272  20.112  0.00  0.00    +0.000 A 
ATOM     30  C   UNL     1       9.983  13.223  19.597  0.00  0.00    +0.000 A 
ENDBRANCH   8  19
BRANCH   1  32
ATOM     31  C   UNL     1       1.207  17.181  22.851  0.00  0.00    +0.000 C 
ATOM     32  S   UNL     1       2.094  16.919  21.317  0.00  0.00    +0.000 S 
ENDBRANCH   1  32
TORSDOF 2
ENDMDL
MODEL 9
REMARK VINA RESULT:      -6.7      3.909      7.657
REMARK  Name = 
REMARK  5 active torsions:
REMARK  status: ('A' for Active; 'I' for Inactive)
REMARK    1  A    between atoms: C_1  and  S_2
REMARK    2  A    between atoms: S_2  and  C_3
REMARK    3  A    between atoms: C_10  and  C_11
REMARK    4  A    between atoms: C_14  and  C_15
REMARK    5  A    between atoms: C_24  and  C_25
REMARK                            x       y       z     vdW  Elec       q    Type
REMARK                         _______ _______ _______ _____ _____    ______ ____
ROOT
ATOM      1  C   UNL     1      -4.210  14.551  22.867  0.00  0.00    +0.000 A 
ATOM      2  N   UNL     1      -4.764  13.341  22.628  0.00  0.00    +0.000 NA
ATOM      3  N   UNL     1      -4.387  12.642  21.551  0.00  0.00    +0.000 NA
ATOM      4  C   UNL     1      -3.428  13.126  20.738  0.00  0.00    +0.000 A 
ATOM      5  C   UNL     1      -2.835  14.350  21.049  0.00  0.00    +0.000 A 
ATOM      6  N   UNL     1      -3.246  15.120  22.097  0.00  0.00    +0.000 NA
ATOM      7  O   UNL     1      -1.939  14.878  20.105  0.00  0.00    +0.000 OA
ATOM      8  C   UNL     1      -0.658  14.175  20.123  0.00  0.00    +0.000 C 
ATOM      9  N   UNL     1      -0.692  12.700  20.010  0.00  0.00    +0.000 N 
ATOM     10  C   UNL     1      -0.417  12.031  21.234  0.00  0.00    +0.000 C 
ATOM     11  C   UNL     1      -0.471  10.511  21.272  0.00  0.00    +0.000 C 
ATOM     12  O   UNL     1      -0.117  12.608  22.283  0.00  0.00    +0.000 OA
ATOM     13  C   UNL     1      -1.743  12.175  19.195  0.00  0.00    +0.000 A 
ATOM     14  C   UNL     1      -1.424  11.433  18.058  0.00  0.00    +0.000 A 
ATOM     15  C   UNL     1      -2.446  10.861  17.294  0.00  0.00    +0.000 A 
ATOM     16  C   UNL     1      -3.778  11.026  17.661  0.00  0.00    +0.000 A 
ATOM     17  C   UNL     1      -4.092  11.762  18.804  0.00  0.00    +0.000 A 
ATOM     18  C   UNL     1      -3.079  12.356  19.581  0.00  0.00    +0.000 A 
ENDROOT
BRANCH   8  19
ATOM     19  C   UNL     1       0.518  14.853  19.362  0.00  0.00    +0.000 A 
ATOM     20  C   UNL     1       0.125  16.012  18.639  0.00  0.00    +0.000 A 
ATOM     21  N   UNL     1       1.193  16.804  19.032  0.00  0.00    +0.000 N 
ATOM     22  C   UNL     1       1.280  17.427  20.310  0.00  0.00    +0.000 C 
ATOM     23  C   UNL     1       2.648  17.553  20.919  0.00  0.00    +0.000 C 
ATOM     24  O   UNL     1       0.245  17.664  20.923  0.00  0.00    +0.000 OA
ATOM     25  C   UNL     1       2.190  16.092  18.404  0.00  0.00    +0.000 A 
ATOM     26  C   UNL     1       3.193  16.484  17.526  0.00  0.00    +0.000 A 
ATOM     27  C   UNL     1       4.256  15.599  17.427  0.00  0.00    +0.000 A 
ATOM     28  C   UNL     1       4.296  14.481  18.266  0.00  0.00    +0.000 A 
ATOM     29  C   UNL     1       3.186  14.072  19.075  0.00  0.00    +0.000 A 
ATOM     30  C   UNL     1       1.987  14.822  19.005  0.00  0.00    +0.000 A 
ENDBRANCH   8  19
BRANCH   1  32
ATOM     31  C   UNL     1      -6.712  15.481  23.753  0.00  0.00    +0.000 C 
ATOM     32  S   UNL     1      -4.995  15.368  24.248  0.00  0.00    +0.000 S 
ENDBRANCH   1  32
TORSDOF 2
ENDMDL
