MODEL 1
REMARK VINA RESULT:      -7.0      0.000      0.000
REMARK  Name = 
REMARK  5 active torsions:
REMARK  status: ('A' for Active; 'I' for Inactive)
REMARK    1  A    between atoms: C_1  and  N_2
REMARK    2  A    between atoms: N_2  and  C_3
REMARK    3  A    between atoms: C_4  and  C_6
REMARK    4  A    between atoms: C_6  and  N_7
REMARK    5  A    between atoms: C_8  and  C_9
REMARK                            x       y       z     vdW  Elec       q    Type
REMARK                         _______ _______ _______ _____ _____    ______ ____
ROOT
ATOM      1  N   UNL     1       2.967   4.598  19.047  0.00  0.00    +0.000 N 
ATOM      2  C   UNL     1       2.424   4.189  20.254  0.00  0.00    +0.000 A 
ATOM      3  N   UNL     1       1.863   5.224  20.871  0.00  0.00    +0.000 NA
ATOM      4  C   UNL     1       2.037   6.304  20.052  0.00  0.00    +0.000 A 
ATOM      5  C   UNL     1       1.661   7.641  20.259  0.00  0.00    +0.000 A 
ATOM      6  C   UNL     1       1.945   8.583  19.265  0.00  0.00    +0.000 A 
ATOM      7  C   UNL     1       2.591   8.201  18.088  0.00  0.00    +0.000 A 
ATOM      8  C   UNL     1       2.988   6.874  17.875  0.00  0.00    +0.000 A 
ATOM      9  C   UNL     1       2.704   5.946  18.888  0.00  0.00    +0.000 A 
ENDROOT
BRANCH   2  10
ATOM     10  C   UNL     1       2.500   2.791  20.792  0.00  0.00    +0.000 C 
ATOM     11  F   UNL     1       3.773   2.371  21.012  0.00  0.00    +0.000 F 
ATOM     12  F   UNL     1       1.862   2.680  21.988  0.00  0.00    +0.000 F 
ATOM     13  F   UNL     1       1.942   1.871  19.964  0.00  0.00    +0.000 F 
ENDBRANCH   2  10
BRANCH   1  14
ATOM     14  C   UNL     1       3.736   3.785  18.110  0.00  0.00    +0.000 C 
BRANCH  14  18
ATOM     15  C   UNL     1       7.336   4.625  17.133  0.00  0.00    +0.000 C 
ATOM     16  N   UNL     1       5.907   4.365  17.030  0.00  0.00    +0.000 N 
ATOM     17  C   UNL     1       5.292   4.385  15.715  0.00  0.00    +0.000 C 
ATOM     18  C   UNL     1       5.232   4.060  18.210  0.00  0.00    +0.000 C 
ATOM     19  O   UNL     1       5.820   4.025  19.285  0.00  0.00    +0.000 OA
ENDBRANCH  14  18
ENDBRANCH   1  14
TORSDOF 3
ENDMDL
MODEL 2
REMARK VINA RESULT:      -6.7      3.536      6.299
REMARK  Name = 
REMARK  5 active torsions:
REMARK  status: ('A' for Active; 'I' for Inactive)
REMARK    1  A    between atoms: C_1  and  N_2
REMARK    2  A    between atoms: N_2  and  C_3
REMARK    3  A    between atoms: C_4  and  C_6
REMARK    4  A    between atoms: C_6  and  N_7
REMARK    5  A    between atoms: C_8  and  C_9
REMARK                            x       y       z     vdW  Elec       q    Type
REMARK                         _______ _______ _______ _____ _____    ______ ____
ROOT
ATOM      1  N   UNL     1       6.110   4.481  16.232  0.00  0.00    +0.000 N 
ATOM      2  C   UNL     1       7.056   5.444  16.542  0.00  0.00    +0.000 A 
ATOM      3  N   UNL     1       7.708   5.808  15.443  0.00  0.00    +0.000 NA
ATOM      4  C   UNL     1       7.172   5.083  14.416  0.00  0.00    +0.000 A 
ATOM      5  C   UNL     1       7.533   5.070  13.059  0.00  0.00    +0.000 A 
ATOM      6  C   UNL     1       6.829   4.238  12.183  0.00  0.00    +0.000 A 
ATOM      7  C   UNL     1       5.787   3.436  12.648  0.00  0.00    +0.000 A 
ATOM      8  C   UNL     1       5.426   3.425  14.002  0.00  0.00    +0.000 A 
ATOM      9  C   UNL     1       6.150   4.257  14.868  0.00  0.00    +0.000 A 
ENDROOT
BRANCH   2  10
ATOM     10  C   UNL     1       7.324   5.959  17.925  0.00  0.00    +0.000 C 
ATOM     11  F   UNL     1       8.025   5.088  18.696  0.00  0.00    +0.000 F 
ATOM     12  F   UNL     1       8.059   7.104  17.899  0.00  0.00    +0.000 F 
ATOM     13  F   UNL     1       6.190   6.240  18.617  0.00  0.00    +0.000 F 
ENDBRANCH   2  10
BRANCH   1  14
ATOM     14  C   UNL     1       5.243   3.768  17.165  0.00  0.00    +0.000 C 
BRANCH  14  18
ATOM     15  C   UNL     1       1.494   4.254  17.737  0.00  0.00    +0.000 C 
ATOM     16  N   UNL     1       2.796   3.614  17.614  0.00  0.00    +0.000 N 
ATOM     17  C   UNL     1       2.877   2.173  17.773  0.00  0.00    +0.000 C 
ATOM     18  C   UNL     1       3.878   4.432  17.297  0.00  0.00    +0.000 C 
ATOM     19  O   UNL     1       3.734   5.640  17.140  0.00  0.00    +0.000 OA
ENDBRANCH  14  18
ENDBRANCH   1  14
TORSDOF 3
ENDMDL
MODEL 3
REMARK VINA RESULT:      -6.6      3.249      4.388
REMARK  Name = 
REMARK  5 active torsions:
REMARK  status: ('A' for Active; 'I' for Inactive)
REMARK    1  A    between atoms: C_1  and  N_2
REMARK    2  A    between atoms: N_2  and  C_3
REMARK    3  A    between atoms: C_4  and  C_6
REMARK    4  A    between atoms: C_6  and  N_7
REMARK    5  A    between atoms: C_8  and  C_9
REMARK                            x       y       z     vdW  Elec       q    Type
REMARK                         _______ _______ _______ _____ _____    ______ ____
ROOT
ATOM      1  N   UNL     1       3.837   4.946  18.004  0.00  0.00    +0.000 N 
ATOM      2  C   UNL     1       3.977   4.178  16.860  0.00  0.00    +0.000 A 
ATOM      3  N   UNL     1       3.067   3.210  16.852  0.00  0.00    +0.000 NA
ATOM      4  C   UNL     1       2.331   3.360  17.993  0.00  0.00    +0.000 A 
ATOM      5  C   UNL     1       1.272   2.573  18.474  0.00  0.00    +0.000 A 
ATOM      6  C   UNL     1       0.661   2.929  19.680  0.00  0.00    +0.000 A 
ATOM      7  C   UNL     1       1.094   4.047  20.393  0.00  0.00    +0.000 A 
ATOM      8  C   UNL     1       2.160   4.833  19.935  0.00  0.00    +0.000 A 
ATOM      9  C   UNL     1       2.768   4.454  18.729  0.00  0.00    +0.000 A 
ENDROOT
BRANCH   2  10
ATOM     10  C   UNL     1       5.030   4.393  15.814  0.00  0.00    +0.000 C 
ATOM     11  F   UNL     1       4.792   3.709  14.664  0.00  0.00    +0.000 F 
ATOM     12  F   UNL     1       5.116   5.703  15.453  0.00  0.00    +0.000 F 
ATOM     13  F   UNL     1       6.269   4.019  16.221  0.00  0.00    +0.000 F 
ENDBRANCH   2  10
BRANCH   1  14
ATOM     14  C   UNL     1       4.688   6.055  18.427  0.00  0.00    +0.000 C 
BRANCH  14  18
ATOM     15  C   UNL     1       8.393   5.658  19.283  0.00  0.00    +0.000 C 
ATOM     16  N   UNL     1       7.170   6.128  18.648  0.00  0.00    +0.000 N 
ATOM     17  C   UNL     1       7.276   7.097  17.572  0.00  0.00    +0.000 C 
ATOM     18  C   UNL     1       5.972   5.569  19.088  0.00  0.00    +0.000 C 
ATOM     19  O   UNL     1       5.956   4.726  19.979  0.00  0.00    +0.000 OA
ENDBRANCH  14  18
ENDBRANCH   1  14
TORSDOF 3
ENDMDL
MODEL 4
REMARK VINA RESULT:      -6.4      2.893      4.196
REMARK  Name = 
REMARK  5 active torsions:
REMARK  status: ('A' for Active; 'I' for Inactive)
REMARK    1  A    between atoms: C_1  and  N_2
REMARK    2  A    between atoms: N_2  and  C_3
REMARK    3  A    between atoms: C_4  and  C_6
REMARK    4  A    between atoms: C_6  and  N_7
REMARK    5  A    between atoms: C_8  and  C_9
REMARK                            x       y       z     vdW  Elec       q    Type
REMARK                         _______ _______ _______ _____ _____    ______ ____
ROOT
ATOM      1  N   UNL     1       2.944   6.507  19.264  0.00  0.00    +0.000 N 
ATOM      2  C   UNL     1       3.415   6.771  17.988  0.00  0.00    +0.000 A 
ATOM      3  N   UNL     1       2.903   7.914  17.545  0.00  0.00    +0.000 NA
ATOM      4  C   UNL     1       2.105   8.395  18.545  0.00  0.00    +0.000 A 
ATOM      5  C   UNL     1       1.310   9.552  18.564  0.00  0.00    +0.000 A 
ATOM      6  C   UNL     1       0.574   9.845  19.716  0.00  0.00    +0.000 A 
ATOM      7  C   UNL     1       0.626   9.002  20.826  0.00  0.00    +0.000 A 
ATOM      8  C   UNL     1       1.401   7.834  20.816  0.00  0.00    +0.000 A 
ATOM      9  C   UNL     1       2.125   7.551  19.649  0.00  0.00    +0.000 A 
ENDROOT
BRANCH   2  10
ATOM     10  C   UNL     1       4.333   5.870  17.217  0.00  0.00    +0.000 C 
ATOM     11  F   UNL     1       3.754   4.695  16.856  0.00  0.00    +0.000 F 
ATOM     12  F   UNL     1       4.745   6.450  16.056  0.00  0.00    +0.000 F 
ATOM     13  F   UNL     1       5.455   5.537  17.905  0.00  0.00    +0.000 F 
ENDBRANCH   2  10
BRANCH   1  14
ATOM     14  C   UNL     1       3.205   5.316  20.067  0.00  0.00    +0.000 C 
BRANCH  14  18
ATOM     15  C   UNL     1       1.856   1.861  19.142  0.00  0.00    +0.000 C 
ATOM     16  N   UNL     1       2.785   2.936  19.453  0.00  0.00    +0.000 N 
ATOM     17  C   UNL     1       4.210   2.661  19.392  0.00  0.00    +0.000 C 
ATOM     18  C   UNL     1       2.238   4.184  19.741  0.00  0.00    +0.000 C 
ATOM     19  O   UNL     1       1.024   4.358  19.741  0.00  0.00    +0.000 OA
ENDBRANCH  14  18
ENDBRANCH   1  14
TORSDOF 3
ENDMDL
MODEL 5
REMARK VINA RESULT:      -6.4      3.387      5.563
REMARK  Name = 
REMARK  5 active torsions:
REMARK  status: ('A' for Active; 'I' for Inactive)
REMARK    1  A    between atoms: C_1  and  N_2
REMARK    2  A    between atoms: N_2  and  C_3
REMARK    3  A    between atoms: C_4  and  C_6
REMARK    4  A    between atoms: C_6  and  N_7
REMARK    5  A    between atoms: C_8  and  C_9
REMARK                            x       y       z     vdW  Elec       q    Type
REMARK                         _______ _______ _______ _____ _____    ______ ____
ROOT
ATOM      1  N   UNL     1       3.415   5.678  18.236  0.00  0.00    +0.000 N 
ATOM      2  C   UNL     1       4.168   5.242  17.159  0.00  0.00    +0.000 A 
ATOM      3  N   UNL     1       3.841   3.990  16.857  0.00  0.00    +0.000 NA
ATOM      4  C   UNL     1       2.865   3.620  17.738  0.00  0.00    +0.000 A 
ATOM      5  C   UNL     1       2.208   2.386  17.866  0.00  0.00    +0.000 A 
ATOM      6  C   UNL     1       1.228   2.242  18.852  0.00  0.00    +0.000 A 
ATOM      7  C   UNL     1       0.907   3.307  19.695  0.00  0.00    +0.000 A 
ATOM      8  C   UNL     1       1.565   4.540  19.592  0.00  0.00    +0.000 A 
ATOM      9  C   UNL     1       2.553   4.661  18.604  0.00  0.00    +0.000 A 
ENDROOT
BRANCH   2  10
ATOM     10  C   UNL     1       5.222   6.058  16.471  0.00  0.00    +0.000 C 
ATOM     11  F   UNL     1       5.992   6.774  17.332  0.00  0.00    +0.000 F 
ATOM     12  F   UNL     1       6.084   5.272  15.770  0.00  0.00    +0.000 F 
ATOM     13  F   UNL     1       4.710   6.957  15.592  0.00  0.00    +0.000 F 
ENDBRANCH   2  10
BRANCH   1  14
ATOM     14  C   UNL     1       3.525   6.962  18.923  0.00  0.00    +0.000 C 
BRANCH  14  18
ATOM     15  C   UNL     1       0.728   9.557  18.671  0.00  0.00    +0.000 C 
ATOM     16  N   UNL     1       1.642   8.569  19.225  0.00  0.00    +0.000 N 
ATOM     17  C   UNL     1       1.502   8.201  20.622  0.00  0.00    +0.000 C 
ATOM     18  C   UNL     1       2.565   7.999  18.351  0.00  0.00    +0.000 C 
ATOM     19  O   UNL     1       2.607   8.329  17.170  0.00  0.00    +0.000 OA
ENDBRANCH  14  18
ENDBRANCH   1  14
TORSDOF 3
ENDMDL
MODEL 6
REMARK VINA RESULT:      -6.4      2.935      4.585
REMARK  Name = 
REMARK  5 active torsions:
REMARK  status: ('A' for Active; 'I' for Inactive)
REMARK    1  A    between atoms: C_1  and  N_2
REMARK    2  A    between atoms: N_2  and  C_3
REMARK    3  A    between atoms: C_4  and  C_6
REMARK    4  A    between atoms: C_6  and  N_7
REMARK    5  A    between atoms: C_8  and  C_9
REMARK                            x       y       z     vdW  Elec       q    Type
REMARK                         _______ _______ _______ _____ _____    ______ ____
ROOT
ATOM      1  N   UNL     1       4.645   5.002  18.082  0.00  0.00    +0.000 N 
ATOM      2  C   UNL     1       5.368   5.389  16.966  0.00  0.00    +0.000 A 
ATOM      3  N   UNL     1       4.987   6.601  16.578  0.00  0.00    +0.000 NA
ATOM      4  C   UNL     1       4.019   7.002  17.455  0.00  0.00    +0.000 A 
ATOM      5  C   UNL     1       3.269   8.189  17.465  0.00  0.00    +0.000 A 
ATOM      6  C   UNL     1       2.325   8.382  18.478  0.00  0.00    +0.000 A 
ATOM      7  C   UNL     1       2.132   7.413  19.463  0.00  0.00    +0.000 A 
ATOM      8  C   UNL     1       2.860   6.216  19.458  0.00  0.00    +0.000 A 
ATOM      9  C   UNL     1       3.794   6.035  18.428  0.00  0.00    +0.000 A 
ENDROOT
BRANCH   2  10
ATOM     10  C   UNL     1       6.397   4.538  16.282  0.00  0.00    +0.000 C 
ATOM     11  F   UNL     1       5.898   3.364  15.816  0.00  0.00    +0.000 F 
ATOM     12  F   UNL     1       6.928   5.170  15.199  0.00  0.00    +0.000 F 
ATOM     13  F   UNL     1       7.437   4.208  17.089  0.00  0.00    +0.000 F 
ENDBRANCH   2  10
BRANCH   1  14
ATOM     14  C   UNL     1       4.707   3.713  18.766  0.00  0.00    +0.000 C 
BRANCH  14  18
ATOM     15  C   UNL     1       1.476   1.748  19.324  0.00  0.00    +0.000 C 
ATOM     16  N   UNL     1       2.655   2.559  19.586  0.00  0.00    +0.000 N 
ATOM     17  C   UNL     1       2.938   2.949  20.956  0.00  0.00    +0.000 C 
ATOM     18  C   UNL     1       3.469   2.865  18.498  0.00  0.00    +0.000 C 
ATOM     19  O   UNL     1       3.192   2.473  17.370  0.00  0.00    +0.000 OA
ENDBRANCH  14  18
ENDBRANCH   1  14
TORSDOF 3
ENDMDL
MODEL 7
REMARK VINA RESULT:      -6.3      2.280      4.994
REMARK  Name = 
REMARK  5 active torsions:
REMARK  status: ('A' for Active; 'I' for Inactive)
REMARK    1  A    between atoms: C_1  and  N_2
REMARK    2  A    between atoms: N_2  and  C_3
REMARK    3  A    between atoms: C_4  and  C_6
REMARK    4  A    between atoms: C_6  and  N_7
REMARK    5  A    between atoms: C_8  and  C_9
REMARK                            x       y       z     vdW  Elec       q    Type
REMARK                         _______ _______ _______ _____ _____    ______ ____
ROOT
ATOM      1  N   UNL     1       3.741   5.353  18.319  0.00  0.00    +0.000 N 
ATOM      2  C   UNL     1       3.030   4.318  17.734  0.00  0.00    +0.000 A 
ATOM      3  N   UNL     1       3.795   3.689  16.847  0.00  0.00    +0.000 NA
ATOM      4  C   UNL     1       5.009   4.316  16.868  0.00  0.00    +0.000 A 
ATOM      5  C   UNL     1       6.151   4.060  16.094  0.00  0.00    +0.000 A 
ATOM      6  C   UNL     1       7.293   4.840  16.298  0.00  0.00    +0.000 A 
ATOM      7  C   UNL     1       7.298   5.856  17.254  0.00  0.00    +0.000 A 
ATOM      8  C   UNL     1       6.160   6.136  18.023  0.00  0.00    +0.000 A 
ATOM      9  C   UNL     1       5.021   5.350  17.797  0.00  0.00    +0.000 A 
ENDROOT
BRANCH   2  10
ATOM     10  C   UNL     1       1.597   3.992  18.035  0.00  0.00    +0.000 C 
ATOM     11  F   UNL     1       0.720   4.624  17.213  0.00  0.00    +0.000 F 
ATOM     12  F   UNL     1       1.346   2.662  17.892  0.00  0.00    +0.000 F 
ATOM     13  F   UNL     1       1.231   4.325  19.299  0.00  0.00    +0.000 F 
ENDBRANCH   2  10
BRANCH   1  14
ATOM     14  C   UNL     1       3.239   6.329  19.282  0.00  0.00    +0.000 C 
BRANCH  14  18
ATOM     15  C   UNL     1       1.217   9.521  18.701  0.00  0.00    +0.000 C 
ATOM     16  N   UNL     1       1.801   8.364  19.363  0.00  0.00    +0.000 N 
ATOM     17  C   UNL     1       1.448   8.106  20.747  0.00  0.00    +0.000 C 
ATOM     18  C   UNL     1       2.626   7.544  18.596  0.00  0.00    +0.000 C 
ATOM     19  O   UNL     1       2.854   7.799  17.418  0.00  0.00    +0.000 OA
ENDBRANCH  14  18
ENDBRANCH   1  14
TORSDOF 3
ENDMDL
MODEL 8
REMARK VINA RESULT:      -6.3      3.157      5.268
REMARK  Name = 
REMARK  5 active torsions:
REMARK  status: ('A' for Active; 'I' for Inactive)
REMARK    1  A    between atoms: C_1  and  N_2
REMARK    2  A    between atoms: N_2  and  C_3
REMARK    3  A    between atoms: C_4  and  C_6
REMARK    4  A    between atoms: C_6  and  N_7
REMARK    5  A    between atoms: C_8  and  C_9
REMARK                            x       y       z     vdW  Elec       q    Type
REMARK                         _______ _______ _______ _____ _____    ______ ____
ROOT
ATOM      1  N   UNL     1       3.217   5.718  17.605  0.00  0.00    +0.000 N 
ATOM      2  C   UNL     1       3.440   7.084  17.671  0.00  0.00    +0.000 A 
ATOM      3  N   UNL     1       4.651   7.367  17.203  0.00  0.00    +0.000 NA
ATOM      4  C   UNL     1       5.209   6.178  16.825  0.00  0.00    +0.000 A 
ATOM      5  C   UNL     1       6.487   5.926  16.302  0.00  0.00    +0.000 A 
ATOM      6  C   UNL     1       6.837   4.611  15.981  0.00  0.00    +0.000 A 
ATOM      7  C   UNL     1       5.932   3.567  16.176  0.00  0.00    +0.000 A 
ATOM      8  C   UNL     1       4.658   3.800  16.712  0.00  0.00    +0.000 A 
ATOM      9  C   UNL     1       4.329   5.124  17.039  0.00  0.00    +0.000 A 
ENDROOT
BRANCH   2  10
ATOM     10  C   UNL     1       2.467   8.079  18.228  0.00  0.00    +0.000 C 
ATOM     11  F   UNL     1       2.883   9.366  18.101  0.00  0.00    +0.000 F 
ATOM     12  F   UNL     1       1.266   8.015  17.591  0.00  0.00    +0.000 F 
ATOM     13  F   UNL     1       2.217   7.897  19.550  0.00  0.00    +0.000 F 
ENDBRANCH   2  10
BRANCH   1  14
ATOM     14  C   UNL     1       2.045   4.995  18.090  0.00  0.00    +0.000 C 
BRANCH  14  18
ATOM     15  C   UNL     1       1.887   2.655  21.109  0.00  0.00    +0.000 C 
ATOM     16  N   UNL     1       1.674   3.195  19.774  0.00  0.00    +0.000 N 
ATOM     17  C   UNL     1       0.823   2.459  18.856  0.00  0.00    +0.000 C 
ATOM     18  C   UNL     1       2.265   4.423  19.485  0.00  0.00    +0.000 C 
ATOM     19  O   UNL     1       2.944   5.011  20.320  0.00  0.00    +0.000 OA
ENDBRANCH  14  18
ENDBRANCH   1  14
TORSDOF 3
ENDMDL
MODEL 9
REMARK VINA RESULT:      -6.3      3.096      4.171
REMARK  Name = 
REMARK  5 active torsions:
REMARK  status: ('A' for Active; 'I' for Inactive)
REMARK    1  A    between atoms: C_1  and  N_2
REMARK    2  A    between atoms: N_2  and  C_3
REMARK    3  A    between atoms: C_4  and  C_6
REMARK    4  A    between atoms: C_6  and  N_7
REMARK    5  A    between atoms: C_8  and  C_9
REMARK                            x       y       z     vdW  Elec       q    Type
REMARK                         _______ _______ _______ _____ _____    ______ ____
ROOT
ATOM      1  N   UNL     1       4.179   4.933  18.795  0.00  0.00    +0.000 N 
ATOM      2  C   UNL     1       3.491   6.090  18.470  0.00  0.00    +0.000 A 
ATOM      3  N   UNL     1       2.302   6.091  19.061  0.00  0.00    +0.000 NA
ATOM      4  C   UNL     1       2.226   4.931  19.780  0.00  0.00    +0.000 A 
ATOM      5  C   UNL     1       1.163   4.437  20.553  0.00  0.00    +0.000 A 
ATOM      6  C   UNL     1       1.319   3.212  21.210  0.00  0.00    +0.000 A 
ATOM      7  C   UNL     1       2.510   2.494  21.098  0.00  0.00    +0.000 A 
ATOM      8  C   UNL     1       3.574   2.965  20.317  0.00  0.00    +0.000 A 
ATOM      9  C   UNL     1       3.394   4.190  19.657  0.00  0.00    +0.000 A 
ENDROOT
BRANCH   2  10
ATOM     10  C   UNL     1       4.009   7.158  17.551  0.00  0.00    +0.000 C 
ATOM     11  F   UNL     1       5.261   7.578  17.869  0.00  0.00    +0.000 F 
ATOM     12  F   UNL     1       4.082   6.718  16.265  0.00  0.00    +0.000 F 
ATOM     13  F   UNL     1       3.233   8.272  17.539  0.00  0.00    +0.000 F 
ENDBRANCH   2  10
BRANCH   1  14
ATOM     14  C   UNL     1       5.483   4.514  18.290  0.00  0.00    +0.000 C 
BRANCH  14  18
ATOM     15  C   UNL     1       6.199   3.901  14.585  0.00  0.00    +0.000 C 
ATOM     16  N   UNL     1       6.291   4.443  15.932  0.00  0.00    +0.000 N 
ATOM     17  C   UNL     1       7.262   5.491  16.193  0.00  0.00    +0.000 C 
ATOM     18  C   UNL     1       5.394   3.950  16.877  0.00  0.00    +0.000 C 
ATOM     19  O   UNL     1       4.573   3.088  16.581  0.00  0.00    +0.000 OA
ENDBRANCH  14  18
ENDBRANCH   1  14
TORSDOF 3
ENDMDL
