MODEL 1
REMARK VINA RESULT:      -7.6      0.000      0.000
REMARK  Name = 
REMARK  15 active torsions:
REMARK  status: ('A' for Active; 'I' for Inactive)
REMARK    1  A    between atoms: C_1  and  C_2
REMARK    2  A    between atoms: C_2  and  C_3
REMARK    3  A    between atoms: C_3  and  N_4
REMARK    4  A    between atoms: N_7  and  C_8
REMARK    5  A    between atoms: C_8  and  C_9
REMARK    6  A    between atoms: C_8  and  C_15
REMARK    7  A    between atoms: C_9  and  S_10
REMARK    8  A    between atoms: S_10  and  C_11
REMARK    9  A    between atoms: C_11  and  C_12
REMARK   10  A    between atoms: C_12  and  C_13
REMARK   11  A    between atoms: C_12  and  C_14
REMARK   12  A    between atoms: C_15  and  O_17
REMARK   13  A    between atoms: C_18  and  C_20
REMARK   14  A    between atoms: C_24  and  C_25
REMARK   15  A    between atoms: C_26  and  C_27
REMARK                            x       y       z     vdW  Elec       q    Type
REMARK                         _______ _______ _______ _____ _____    ______ ____
ROOT
ATOM      1  N   UNK A   0       1.940   7.941  19.544  0.00  0.00    +0.000 N 
ATOM      2  C   UNK A   0       2.494   6.650  19.549  0.00  0.00    +0.000 C 
ATOM      3  O   UNK A   0       2.291   5.803  20.422  0.00  0.00    +0.000 OA
ATOM      4  N   UNK A   1       3.320   6.319  18.502  0.00  0.00    +0.000 N 
ATOM      5  C   UNK A   0       2.043   8.823  18.425  0.00  0.00    +0.000 C 
ATOM      6  O   UNK A   0       2.830   8.618  17.493  0.00  0.00    +0.000 OA
ATOM      7  H   UNK A   1       3.701   7.107  17.975  0.00  0.00    +0.000 HD
ENDROOT
BRANCH   5   8
ATOM      8  C   UNK A   0       1.312  10.146  18.385  0.00  0.00    +0.000 A 
ATOM      9  C   UNK A   0       2.087  11.312  18.499  0.00  0.00    +0.000 A 
ATOM     10  C   UNK A   0       1.476  12.564  18.632  0.00  0.00    +0.000 A 
ATOM     11  C   UNK A   0       0.085  12.662  18.683  0.00  0.00    +0.000 A 
ATOM     12  C   UNK A   0      -0.698  11.523  18.512  0.00  0.00    +0.000 A 
ATOM     13  C   UNK A   0      -0.082  10.284  18.280  0.00  0.00    +0.000 A 
BRANCH  12  14
ATOM     14  C   UNK A   0      -2.125  11.599  18.672  0.00  0.00    +0.000 C 
ATOM     15  C   UNK A   0      -3.314  11.732  18.772  0.00  0.00    +0.000 C 
BRANCH  15  16
ATOM     16  C   UNK A   0      -4.730  11.918  18.896  0.00  0.00    +0.000 A 
ATOM     17  C   UNK A   0      -5.289  12.318  20.115  0.00  0.00    +0.000 A 
ATOM     18  C   UNK A   0      -6.678  12.452  20.247  0.00  0.00    +0.000 A 
ATOM     19  C   UNK A   0      -7.514  12.192  19.161  0.00  0.00    +0.000 A 
ATOM     20  C   UNK A   0      -6.963  11.816  17.935  0.00  0.00    +0.000 A 
ATOM     21  C   UNK A   0      -5.580  11.684  17.810  0.00  0.00    +0.000 A 
ATOM     22  F   UNK A   0      -5.076  11.323  16.619  0.00  0.00    +0.000 F 
ENDBRANCH  15  16
ENDBRANCH  12  14
ENDBRANCH   5   8
BRANCH   1  23
ATOM     23  C   UNK A   0       1.044   8.298  20.658  0.00  0.00    +0.000 C 
BRANCH  23  25
ATOM     24  C   UNK A   0       0.375   9.693  22.685  0.00  0.00    +0.000 C 
ATOM     25  C   UNK A   0       1.509   9.086  21.884  0.00  0.00    +0.000 C 
ENDBRANCH  23  25
ENDBRANCH   1  23
BRANCH   4  26
ATOM     26  C   UNK A   1       4.077   5.058  18.510  0.00  0.00    +0.000 C 
BRANCH  26  27
ATOM     27  C   UNK A   1       5.565   5.419  18.618  0.00  0.00    +0.000 C 
ATOM     28  O   UNK A   1       6.163   5.612  19.668  0.00  0.00    +0.000 OA
BRANCH  27  29
ATOM     29  O   UNK A   1       6.209   5.382  17.421  0.00  0.00    +0.000 OA
ATOM     30  H   UNK A   1       6.755   6.185  17.264  0.00  0.00    +0.000 HD
ENDBRANCH  27  29
ENDBRANCH  26  27
BRANCH  26  31
ATOM     31  C   UNK A   1       3.805   4.190  17.268  0.00  0.00    +0.000 C 
BRANCH  31  32
ATOM     32  S   UNK A   1       2.308   3.159  17.516  0.00  0.00    +0.000 S 
BRANCH  32  33
ATOM     33  C   UNK A   1       2.872   2.060  18.864  0.00  0.00    +0.000 C 
BRANCH  33  34
ATOM     34  C   UNK A   1       1.942   2.143  20.095  0.00  0.00    +0.000 C 
ATOM     35  C   UNK A   1       2.644   2.678  21.348  0.00  0.00    +0.000 C 
ATOM     36  C   UNK A   1       0.728   3.029  19.793  0.00  0.00    +0.000 C 
ENDBRANCH  33  34
ENDBRANCH  32  33
ENDBRANCH  31  32
ENDBRANCH  26  31
ENDBRANCH   4  26
TORSDOF 12
ENDMDL
MODEL 2
REMARK VINA RESULT:      -7.5      1.103      1.339
REMARK  Name = 
REMARK  15 active torsions:
REMARK  status: ('A' for Active; 'I' for Inactive)
REMARK    1  A    between atoms: C_1  and  C_2
REMARK    2  A    between atoms: C_2  and  C_3
REMARK    3  A    between atoms: C_3  and  N_4
REMARK    4  A    between atoms: N_7  and  C_8
REMARK    5  A    between atoms: C_8  and  C_9
REMARK    6  A    between atoms: C_8  and  C_15
REMARK    7  A    between atoms: C_9  and  S_10
REMARK    8  A    between atoms: S_10  and  C_11
REMARK    9  A    between atoms: C_11  and  C_12
REMARK   10  A    between atoms: C_12  and  C_13
REMARK   11  A    between atoms: C_12  and  C_14
REMARK   12  A    between atoms: C_15  and  O_17
REMARK   13  A    between atoms: C_18  and  C_20
REMARK   14  A    between atoms: C_24  and  C_25
REMARK   15  A    between atoms: C_26  and  C_27
REMARK                            x       y       z     vdW  Elec       q    Type
REMARK                         _______ _______ _______ _____ _____    ______ ____
ROOT
ATOM      1  N   UNK A   0       1.698   8.588  19.701  0.00  0.00    +0.000 N 
ATOM      2  C   UNK A   0       2.201   7.278  19.621  0.00  0.00    +0.000 C 
ATOM      3  O   UNK A   0       2.276   6.497  20.572  0.00  0.00    +0.000 OA
ATOM      4  N   UNK A   1       2.640   6.849  18.392  0.00  0.00    +0.000 N 
ATOM      5  C   UNK A   0       1.451   9.393  18.547  0.00  0.00    +0.000 C 
ATOM      6  O   UNK A   0       1.892   9.098  17.430  0.00  0.00    +0.000 OA
ATOM      7  H   UNK A   1       2.845   7.587  17.715  0.00  0.00    +0.000 HD
ENDROOT
BRANCH   5   8
ATOM      8  C   UNK A   0       0.770  10.739  18.647  0.00  0.00    +0.000 A 
ATOM      9  C   UNK A   0       1.594  11.876  18.673  0.00  0.00    +0.000 A 
ATOM     10  C   UNK A   0       1.055  13.143  18.926  0.00  0.00    +0.000 A 
ATOM     11  C   UNK A   0      -0.309  13.283  19.185  0.00  0.00    +0.000 A 
ATOM     12  C   UNK A   0      -1.149  12.175  19.105  0.00  0.00    +0.000 A 
ATOM     13  C   UNK A   0      -0.619  10.924  18.754  0.00  0.00    +0.000 A 
BRANCH  12  14
ATOM     14  C   UNK A   0      -2.532  12.292  19.478  0.00  0.00    +0.000 C 
ATOM     15  C   UNK A   0      -3.681  12.326  19.828  0.00  0.00    +0.000 C 
BRANCH  15  16
ATOM     16  C   UNK A   0      -5.053  12.337  20.244  0.00  0.00    +0.000 A 
ATOM     17  C   UNK A   0      -5.441  13.035  21.393  0.00  0.00    +0.000 A 
ATOM     18  C   UNK A   0      -6.774  13.004  21.823  0.00  0.00    +0.000 A 
ATOM     19  C   UNK A   0      -7.726  12.280  21.106  0.00  0.00    +0.000 A 
ATOM     20  C   UNK A   0      -7.352  11.601  19.945  0.00  0.00    +0.000 A 
ATOM     21  C   UNK A   0      -6.023  11.636  19.522  0.00  0.00    +0.000 A 
ATOM     22  F   UNK A   0      -5.691  10.975  18.401  0.00  0.00    +0.000 F 
ENDBRANCH  15  16
ENDBRANCH  12  14
ENDBRANCH   5   8
BRANCH   1  23
ATOM     23  C   UNK A   0       1.217   9.049  21.014  0.00  0.00    +0.000 C 
BRANCH  23  25
ATOM     24  C   UNK A   0      -0.586   9.542  22.749  0.00  0.00    +0.000 C 
ATOM     25  C   UNK A   0      -0.160   8.686  21.574  0.00  0.00    +0.000 C 
ENDBRANCH  23  25
ENDBRANCH   1  23
BRANCH   4  26
ATOM     26  C   UNK A   1       3.336   5.562  18.247  0.00  0.00    +0.000 C 
BRANCH  26  27
ATOM     27  C   UNK A   1       4.667   5.840  17.536  0.00  0.00    +0.000 C 
ATOM     28  O   UNK A   1       4.774   6.326  16.417  0.00  0.00    +0.000 OA
BRANCH  27  29
ATOM     29  O   UNK A   1       5.750   5.614  18.326  0.00  0.00    +0.000 OA
ATOM     30  H   UNK A   1       6.448   6.298  18.211  0.00  0.00    +0.000 HD
ENDBRANCH  27  29
ENDBRANCH  26  27
BRANCH  26  31
ATOM     31  C   UNK A   1       2.505   4.516  17.483  0.00  0.00    +0.000 C 
BRANCH  31  32
ATOM     32  S   UNK A   1       3.155   2.827  17.786  0.00  0.00    +0.000 S 
BRANCH  32  33
ATOM     33  C   UNK A   1       1.736   2.067  18.652  0.00  0.00    +0.000 C 
BRANCH  33  34
ATOM     34  C   UNK A   1       1.776   2.351  20.171  0.00  0.00    +0.000 C 
ATOM     35  C   UNK A   1       3.177   2.698  20.684  0.00  0.00    +0.000 C 
ATOM     36  C   UNK A   1       0.821   3.495  20.529  0.00  0.00    +0.000 C 
ENDBRANCH  33  34
ENDBRANCH  32  33
ENDBRANCH  31  32
ENDBRANCH  26  31
ENDBRANCH   4  26
TORSDOF 12
ENDMDL
MODEL 3
REMARK VINA RESULT:      -7.4      2.159      3.513
REMARK  Name = 
REMARK  15 active torsions:
REMARK  status: ('A' for Active; 'I' for Inactive)
REMARK    1  A    between atoms: C_1  and  C_2
REMARK    2  A    between atoms: C_2  and  C_3
REMARK    3  A    between atoms: C_3  and  N_4
REMARK    4  A    between atoms: N_7  and  C_8
REMARK    5  A    between atoms: C_8  and  C_9
REMARK    6  A    between atoms: C_8  and  C_15
REMARK    7  A    between atoms: C_9  and  S_10
REMARK    8  A    between atoms: S_10  and  C_11
REMARK    9  A    between atoms: C_11  and  C_12
REMARK   10  A    between atoms: C_12  and  C_13
REMARK   11  A    between atoms: C_12  and  C_14
REMARK   12  A    between atoms: C_15  and  O_17
REMARK   13  A    between atoms: C_18  and  C_20
REMARK   14  A    between atoms: C_24  and  C_25
REMARK   15  A    between atoms: C_26  and  C_27
REMARK                            x       y       z     vdW  Elec       q    Type
REMARK                         _______ _______ _______ _____ _____    ______ ____
ROOT
ATOM      1  N   UNK A   0       1.702   8.429  19.595  0.00  0.00    +0.000 N 
ATOM      2  C   UNK A   0       2.148   7.108  19.419  0.00  0.00    +0.000 C 
ATOM      3  O   UNK A   0       2.237   6.272  20.320  0.00  0.00    +0.000 OA
ATOM      4  N   UNK A   1       2.509   6.734  18.147  0.00  0.00    +0.000 N 
ATOM      5  C   UNK A   0       1.432   9.306  18.502  0.00  0.00    +0.000 C 
ATOM      6  O   UNK A   0       1.806   9.060  17.349  0.00  0.00    +0.000 OA
ATOM      7  H   UNK A   1       2.711   7.500  17.503  0.00  0.00    +0.000 HD
ENDROOT
BRANCH   5   8
ATOM      8  C   UNK A   0       0.810  10.669  18.710  0.00  0.00    +0.000 A 
ATOM      9  C   UNK A   0       1.684  11.760  18.849  0.00  0.00    +0.000 A 
ATOM     10  C   UNK A   0       1.198  13.023  19.204  0.00  0.00    +0.000 A 
ATOM     11  C   UNK A   0      -0.162  13.204  19.453  0.00  0.00    +0.000 A 
ATOM     12  C   UNK A   0      -1.051  12.148  19.262  0.00  0.00    +0.000 A 
ATOM     13  C   UNK A   0      -0.571  10.909  18.811  0.00  0.00    +0.000 A 
BRANCH  12  14
ATOM     14  C   UNK A   0      -2.434  12.297  19.622  0.00  0.00    +0.000 C 
ATOM     15  C   UNK A   0      -3.577  12.495  19.933  0.00  0.00    +0.000 C 
BRANCH  15  16
ATOM     16  C   UNK A   0      -4.932  12.751  20.326  0.00  0.00    +0.000 A 
ATOM     17  C   UNK A   0      -5.908  13.036  19.364  0.00  0.00    +0.000 A 
ATOM     18  C   UNK A   0      -7.220  13.333  19.754  0.00  0.00    +0.000 A 
ATOM     19  C   UNK A   0      -7.566  13.342  21.106  0.00  0.00    +0.000 A 
ATOM     20  C   UNK A   0      -6.604  13.034  22.070  0.00  0.00    +0.000 A 
ATOM     21  C   UNK A   0      -5.299  12.739  21.675  0.00  0.00    +0.000 A 
ATOM     22  F   UNK A   0      -4.395  12.446  22.623  0.00  0.00    +0.000 F 
ENDBRANCH  15  16
ENDBRANCH  12  14
ENDBRANCH   5   8
BRANCH   1  23
ATOM     23  C   UNK A   0       1.302   8.832  20.955  0.00  0.00    +0.000 C 
BRANCH  23  25
ATOM     24  C   UNK A   0      -0.446   9.491  22.690  0.00  0.00    +0.000 C 
ATOM     25  C   UNK A   0      -0.100   8.595  21.518  0.00  0.00    +0.000 C 
ENDBRANCH  23  25
ENDBRANCH   1  23
BRANCH   4  26
ATOM     26  C   UNK A   1       3.146   5.432  17.898  0.00  0.00    +0.000 C 
BRANCH  26  27
ATOM     27  C   UNK A   1       2.073   4.353  18.097  0.00  0.00    +0.000 C 
ATOM     28  O   UNK A   1       1.112   4.177  17.359  0.00  0.00    +0.000 OA
BRANCH  27  29
ATOM     29  O   UNK A   1       2.357   3.503  19.119  0.00  0.00    +0.000 OA
ATOM     30  H   UNK A   1       2.859   2.712  18.821  0.00  0.00    +0.000 HD
ENDBRANCH  27  29
ENDBRANCH  26  27
BRANCH  26  31
ATOM     31  C   UNK A   1       4.363   5.179  18.806  0.00  0.00    +0.000 C 
BRANCH  31  32
ATOM     32  S   UNK A   1       5.846   4.777  17.803  0.00  0.00    +0.000 S 
BRANCH  32  33
ATOM     33  C   UNK A   1       6.270   6.429  17.146  0.00  0.00    +0.000 C 
BRANCH  33  34
ATOM     34  C   UNK A   1       7.668   6.889  17.616  0.00  0.00    +0.000 C 
ATOM     35  C   UNK A   1       7.818   8.413  17.669  0.00  0.00    +0.000 C 
ATOM     36  C   UNK A   1       7.985   6.313  19.001  0.00  0.00    +0.000 C 
ENDBRANCH  33  34
ENDBRANCH  32  33
ENDBRANCH  31  32
ENDBRANCH  26  31
ENDBRANCH   4  26
TORSDOF 12
ENDMDL
MODEL 4
REMARK VINA RESULT:      -7.2      2.040      3.212
REMARK  Name = 
REMARK  15 active torsions:
REMARK  status: ('A' for Active; 'I' for Inactive)
REMARK    1  A    between atoms: C_1  and  C_2
REMARK    2  A    between atoms: C_2  and  C_3
REMARK    3  A    between atoms: C_3  and  N_4
REMARK    4  A    between atoms: N_7  and  C_8
REMARK    5  A    between atoms: C_8  and  C_9
REMARK    6  A    between atoms: C_8  and  C_15
REMARK    7  A    between atoms: C_9  and  S_10
REMARK    8  A    between atoms: S_10  and  C_11
REMARK    9  A    between atoms: C_11  and  C_12
REMARK   10  A    between atoms: C_12  and  C_13
REMARK   11  A    between atoms: C_12  and  C_14
REMARK   12  A    between atoms: C_15  and  O_17
REMARK   13  A    between atoms: C_18  and  C_20
REMARK   14  A    between atoms: C_24  and  C_25
REMARK   15  A    between atoms: C_26  and  C_27
REMARK                            x       y       z     vdW  Elec       q    Type
REMARK                         _______ _______ _______ _____ _____    ______ ____
ROOT
ATOM      1  N   UNK A   0       1.889   7.611  19.373  0.00  0.00    +0.000 N 
ATOM      2  C   UNK A   0       2.356   6.286  19.333  0.00  0.00    +0.000 C 
ATOM      3  O   UNK A   0       2.131   5.437  20.197  0.00  0.00    +0.000 OA
ATOM      4  N   UNK A   1       3.118   5.923  18.249  0.00  0.00    +0.000 N 
ATOM      5  C   UNK A   0       2.009   8.507  18.267  0.00  0.00    +0.000 C 
ATOM      6  O   UNK A   0       2.745   8.269  17.302  0.00  0.00    +0.000 OA
ATOM      7  H   UNK A   1       3.531   6.695  17.722  0.00  0.00    +0.000 HD
ENDROOT
BRANCH   5   8
ATOM      8  C   UNK A   0       1.366   9.875  18.279  0.00  0.00    +0.000 A 
ATOM      9  C   UNK A   0       2.209  10.979  18.490  0.00  0.00    +0.000 A 
ATOM     10  C   UNK A   0       1.675  12.259  18.676  0.00  0.00    +0.000 A 
ATOM     11  C   UNK A   0       0.293  12.446  18.682  0.00  0.00    +0.000 A 
ATOM     12  C   UNK A   0      -0.555  11.373  18.415  0.00  0.00    +0.000 A 
ATOM     13  C   UNK A   0      -0.011  10.111  18.132  0.00  0.00    +0.000 A 
BRANCH  12  14
ATOM     14  C   UNK A   0      -1.979  11.535  18.529  0.00  0.00    +0.000 C 
ATOM     15  C   UNK A   0      -3.163  11.644  18.694  0.00  0.00    +0.000 C 
BRANCH  15  16
ATOM     16  C   UNK A   0      -4.577  11.749  18.907  0.00  0.00    +0.000 A 
ATOM     17  C   UNK A   0      -5.477  11.224  17.973  0.00  0.00    +0.000 A 
ATOM     18  C   UNK A   0      -6.858  11.370  18.160  0.00  0.00    +0.000 A 
ATOM     19  C   UNK A   0      -7.347  12.038  19.283  0.00  0.00    +0.000 A 
ATOM     20  C   UNK A   0      -6.456  12.543  20.233  0.00  0.00    +0.000 A 
ATOM     21  C   UNK A   0      -5.083  12.393  20.041  0.00  0.00    +0.000 A 
ATOM     22  F   UNK A   0      -4.249  12.887  20.970  0.00  0.00    +0.000 F 
ENDBRANCH  15  16
ENDBRANCH  12  14
ENDBRANCH   5   8
BRANCH   1  23
ATOM     23  C   UNK A   0       1.062   8.002  20.527  0.00  0.00    +0.000 C 
BRANCH  23  25
ATOM     24  C   UNK A   0       0.581  10.084  21.919  0.00  0.00    +0.000 C 
ATOM     25  C   UNK A   0       1.549   8.958  21.618  0.00  0.00    +0.000 C 
ENDBRANCH  23  25
ENDBRANCH   1  23
BRANCH   4  26
ATOM     26  C   UNK A   1       3.790   4.615  18.204  0.00  0.00    +0.000 C 
BRANCH  26  27
ATOM     27  C   UNK A   1       5.092   4.743  19.007  0.00  0.00    +0.000 C 
ATOM     28  O   UNK A   1       5.572   5.799  19.397  0.00  0.00    +0.000 OA
BRANCH  27  29
ATOM     29  O   UNK A   1       5.614   3.540  19.367  0.00  0.00    +0.000 OA
ATOM     30  H   UNK A   1       6.158   3.598  20.185  0.00  0.00    +0.000 HD
ENDBRANCH  27  29
ENDBRANCH  26  27
BRANCH  26  31
ATOM     31  C   UNK A   1       4.067   4.135  16.768  0.00  0.00    +0.000 C 
BRANCH  31  32
ATOM     32  S   UNK A   1       5.473   5.060  16.037  0.00  0.00    +0.000 S 
BRANCH  32  33
ATOM     33  C   UNK A   1       6.131   3.812  14.873  0.00  0.00    +0.000 C 
BRANCH  33  34
ATOM     34  C   UNK A   1       6.253   4.377  13.440  0.00  0.00    +0.000 C 
ATOM     35  C   UNK A   1       7.602   5.051  13.168  0.00  0.00    +0.000 C 
ATOM     36  C   UNK A   1       6.038   3.266  12.405  0.00  0.00    +0.000 C 
ENDBRANCH  33  34
ENDBRANCH  32  33
ENDBRANCH  31  32
ENDBRANCH  26  31
ENDBRANCH   4  26
TORSDOF 12
ENDMDL
MODEL 5
REMARK VINA RESULT:      -7.2      1.246      1.640
REMARK  Name = 
REMARK  15 active torsions:
REMARK  status: ('A' for Active; 'I' for Inactive)
REMARK    1  A    between atoms: C_1  and  C_2
REMARK    2  A    between atoms: C_2  and  C_3
REMARK    3  A    between atoms: C_3  and  N_4
REMARK    4  A    between atoms: N_7  and  C_8
REMARK    5  A    between atoms: C_8  and  C_9
REMARK    6  A    between atoms: C_8  and  C_15
REMARK    7  A    between atoms: C_9  and  S_10
REMARK    8  A    between atoms: S_10  and  C_11
REMARK    9  A    between atoms: C_11  and  C_12
REMARK   10  A    between atoms: C_12  and  C_13
REMARK   11  A    between atoms: C_12  and  C_14
REMARK   12  A    between atoms: C_15  and  O_17
REMARK   13  A    between atoms: C_18  and  C_20
REMARK   14  A    between atoms: C_24  and  C_25
REMARK   15  A    between atoms: C_26  and  C_27
REMARK                            x       y       z     vdW  Elec       q    Type
REMARK                         _______ _______ _______ _____ _____    ______ ____
ROOT
ATOM      1  N   UNK A   0       1.641   8.529  19.569  0.00  0.00    +0.000 N 
ATOM      2  C   UNK A   0       2.206   7.244  19.497  0.00  0.00    +0.000 C 
ATOM      3  O   UNK A   0       2.024   6.350  20.326  0.00  0.00    +0.000 OA
ATOM      4  N   UNK A   1       3.020   6.978  18.423  0.00  0.00    +0.000 N 
ATOM      5  C   UNK A   0       1.720   9.469  18.498  0.00  0.00    +0.000 C 
ATOM      6  O   UNK A   0       2.495   9.322  17.545  0.00  0.00    +0.000 OA
ATOM      7  H   UNK A   1       3.387   7.796  17.934  0.00  0.00    +0.000 HD
ENDROOT
BRANCH   5   8
ATOM      8  C   UNK A   0       0.976  10.786  18.538  0.00  0.00    +0.000 A 
ATOM      9  C   UNK A   0       1.748  11.958  18.580  0.00  0.00    +0.000 A 
ATOM     10  C   UNK A   0       1.142  13.204  18.781  0.00  0.00    +0.000 A 
ATOM     11  C   UNK A   0      -0.237  13.288  18.972  0.00  0.00    +0.000 A 
ATOM     12  C   UNK A   0      -1.024  12.142  18.875  0.00  0.00    +0.000 A 
ATOM     13  C   UNK A   0      -0.423  10.911  18.576  0.00  0.00    +0.000 A 
BRANCH  12  14
ATOM     14  C   UNK A   0      -2.427  12.205  19.180  0.00  0.00    +0.000 C 
ATOM     15  C   UNK A   0      -3.612  12.211  19.374  0.00  0.00    +0.000 C 
BRANCH  15  16
ATOM     16  C   UNK A   0      -5.031  12.220  19.577  0.00  0.00    +0.000 A 
ATOM     17  C   UNK A   0      -5.906  12.144  18.487  0.00  0.00    +0.000 A 
ATOM     18  C   UNK A   0      -7.291  12.202  18.686  0.00  0.00    +0.000 A 
ATOM     19  C   UNK A   0      -7.810  12.331  19.975  0.00  0.00    +0.000 A 
ATOM     20  C   UNK A   0      -6.946  12.382  21.070  0.00  0.00    +0.000 A 
ATOM     21  C   UNK A   0      -5.567  12.324  20.865  0.00  0.00    +0.000 A 
ATOM     22  F   UNK A   0      -4.759  12.375  21.935  0.00  0.00    +0.000 F 
ENDBRANCH  15  16
ENDBRANCH  12  14
ENDBRANCH   5   8
BRANCH   1  23
ATOM     23  C   UNK A   0       0.758   8.816  20.713  0.00  0.00    +0.000 C 
BRANCH  23  25
ATOM     24  C   UNK A   0       0.200   9.445  23.121  0.00  0.00    +0.000 C 
ATOM     25  C   UNK A   0       1.275   9.325  22.060  0.00  0.00    +0.000 C 
ENDBRANCH  23  25
ENDBRANCH   1  23
BRANCH   4  26
ATOM     26  C   UNK A   1       3.789   5.726  18.353  0.00  0.00    +0.000 C 
BRANCH  26  27
ATOM     27  C   UNK A   1       5.101   6.036  17.620  0.00  0.00    +0.000 C 
ATOM     28  O   UNK A   1       6.212   5.682  17.994  0.00  0.00    +0.000 OA
BRANCH  27  29
ATOM     29  O   UNK A   1       4.908   6.644  16.419  0.00  0.00    +0.000 OA
ATOM     30  H   UNK A   1       4.303   7.417  16.484  0.00  0.00    +0.000 HD
ENDBRANCH  27  29
ENDBRANCH  26  27
BRANCH  26  31
ATOM     31  C   UNK A   1       3.018   4.590  17.656  0.00  0.00    +0.000 C 
BRANCH  31  32
ATOM     32  S   UNK A   1       3.885   2.988  17.878  0.00  0.00    +0.000 S 
BRANCH  32  33
ATOM     33  C   UNK A   1       2.717   2.121  18.985  0.00  0.00    +0.000 C 
BRANCH  33  34
ATOM     34  C   UNK A   1       2.119   3.074  20.044  0.00  0.00    +0.000 C 
ATOM     35  C   UNK A   1       0.589   3.138  20.005  0.00  0.00    +0.000 C 
ATOM     36  C   UNK A   1       2.560   2.656  21.452  0.00  0.00    +0.000 C 
ENDBRANCH  33  34
ENDBRANCH  32  33
ENDBRANCH  31  32
ENDBRANCH  26  31
ENDBRANCH   4  26
TORSDOF 12
ENDMDL
MODEL 6
REMARK VINA RESULT:      -7.2      1.794      2.971
REMARK  Name = 
REMARK  15 active torsions:
REMARK  status: ('A' for Active; 'I' for Inactive)
REMARK    1  A    between atoms: C_1  and  C_2
REMARK    2  A    between atoms: C_2  and  C_3
REMARK    3  A    between atoms: C_3  and  N_4
REMARK    4  A    between atoms: N_7  and  C_8
REMARK    5  A    between atoms: C_8  and  C_9
REMARK    6  A    between atoms: C_8  and  C_15
REMARK    7  A    between atoms: C_9  and  S_10
REMARK    8  A    between atoms: S_10  and  C_11
REMARK    9  A    between atoms: C_11  and  C_12
REMARK   10  A    between atoms: C_12  and  C_13
REMARK   11  A    between atoms: C_12  and  C_14
REMARK   12  A    between atoms: C_15  and  O_17
REMARK   13  A    between atoms: C_18  and  C_20
REMARK   14  A    between atoms: C_24  and  C_25
REMARK   15  A    between atoms: C_26  and  C_27
REMARK                            x       y       z     vdW  Elec       q    Type
REMARK                         _______ _______ _______ _____ _____    ______ ____
ROOT
ATOM      1  N   UNK A   0       1.848   7.582  19.542  0.00  0.00    +0.000 N 
ATOM      2  C   UNK A   0       2.310   6.255  19.521  0.00  0.00    +0.000 C 
ATOM      3  O   UNK A   0       2.091   5.422  20.403  0.00  0.00    +0.000 OA
ATOM      4  N   UNK A   1       3.060   5.871  18.435  0.00  0.00    +0.000 N 
ATOM      5  C   UNK A   0       1.959   8.458  18.420  0.00  0.00    +0.000 C 
ATOM      6  O   UNK A   0       2.684   8.201  17.451  0.00  0.00    +0.000 OA
ATOM      7  H   UNK A   1       3.469   6.632  17.891  0.00  0.00    +0.000 HD
ENDROOT
BRANCH   5   8
ATOM      8  C   UNK A   0       1.321   9.829  18.414  0.00  0.00    +0.000 A 
ATOM      9  C   UNK A   0       2.160  10.929  18.654  0.00  0.00    +0.000 A 
ATOM     10  C   UNK A   0       1.625  12.211  18.825  0.00  0.00    +0.000 A 
ATOM     11  C   UNK A   0       0.244  12.402  18.789  0.00  0.00    +0.000 A 
ATOM     12  C   UNK A   0      -0.599  11.333  18.494  0.00  0.00    +0.000 A 
ATOM     13  C   UNK A   0      -0.051  10.070  18.226  0.00  0.00    +0.000 A 
BRANCH  12  14
ATOM     14  C   UNK A   0      -2.025  11.499  18.564  0.00  0.00    +0.000 C 
ATOM     15  C   UNK A   0      -3.206  11.676  18.688  0.00  0.00    +0.000 C 
BRANCH  15  16
ATOM     16  C   UNK A   0      -4.614  11.881  18.865  0.00  0.00    +0.000 A 
ATOM     17  C   UNK A   0      -5.109  12.425  20.056  0.00  0.00    +0.000 A 
ATOM     18  C   UNK A   0      -6.488  12.580  20.244  0.00  0.00    +0.000 A 
ATOM     19  C   UNK A   0      -7.381  12.196  19.242  0.00  0.00    +0.000 A 
ATOM     20  C   UNK A   0      -6.894  11.676  18.041  0.00  0.00    +0.000 A 
ATOM     21  C   UNK A   0      -5.519  11.525  17.860  0.00  0.00    +0.000 A 
ATOM     22  F   UNK A   0      -5.079  11.023  16.695  0.00  0.00    +0.000 F 
ENDBRANCH  15  16
ENDBRANCH  12  14
ENDBRANCH   5   8
BRANCH   1  23
ATOM     23  C   UNK A   0       1.034   7.996  20.699  0.00  0.00    +0.000 C 
BRANCH  23  25
ATOM     24  C   UNK A   0       0.457   9.469  22.699  0.00  0.00    +0.000 C 
ATOM     25  C   UNK A   0       1.545   8.948  21.781  0.00  0.00    +0.000 C 
ENDBRANCH  23  25
ENDBRANCH   1  23
BRANCH   4  26
ATOM     26  C   UNK A   1       3.726   4.560  18.407  0.00  0.00    +0.000 C 
BRANCH  26  27
ATOM     27  C   UNK A   1       5.086   4.724  19.100  0.00  0.00    +0.000 C 
ATOM     28  O   UNK A   1       5.595   5.797  19.396  0.00  0.00    +0.000 OA
BRANCH  27  29
ATOM     29  O   UNK A   1       5.633   3.540  19.483  0.00  0.00    +0.000 OA
ATOM     30  H   UNK A   1       6.449   3.660  20.019  0.00  0.00    +0.000 HD
ENDBRANCH  27  29
ENDBRANCH  26  27
BRANCH  26  31
ATOM     31  C   UNK A   1       3.893   4.006  16.981  0.00  0.00    +0.000 C 
BRANCH  31  32
ATOM     32  S   UNK A   1       5.466   4.590  16.239  0.00  0.00    +0.000 S 
BRANCH  32  33
ATOM     33  C   UNK A   1       5.128   4.314  14.464  0.00  0.00    +0.000 C 
BRANCH  33  34
ATOM     34  C   UNK A   1       6.396   3.863  13.704  0.00  0.00    +0.000 C 
ATOM     35  C   UNK A   1       6.102   3.341  12.294  0.00  0.00    +0.000 C 
ATOM     36  C   UNK A   1       7.401   5.017  13.605  0.00  0.00    +0.000 C 
ENDBRANCH  33  34
ENDBRANCH  32  33
ENDBRANCH  31  32
ENDBRANCH  26  31
ENDBRANCH   4  26
TORSDOF 12
ENDMDL
MODEL 7
REMARK VINA RESULT:      -7.1      1.970      3.130
REMARK  Name = 
REMARK  15 active torsions:
REMARK  status: ('A' for Active; 'I' for Inactive)
REMARK    1  A    between atoms: C_1  and  C_2
REMARK    2  A    between atoms: C_2  and  C_3
REMARK    3  A    between atoms: C_3  and  N_4
REMARK    4  A    between atoms: N_7  and  C_8
REMARK    5  A    between atoms: C_8  and  C_9
REMARK    6  A    between atoms: C_8  and  C_15
REMARK    7  A    between atoms: C_9  and  S_10
REMARK    8  A    between atoms: S_10  and  C_11
REMARK    9  A    between atoms: C_11  and  C_12
REMARK   10  A    between atoms: C_12  and  C_13
REMARK   11  A    between atoms: C_12  and  C_14
REMARK   12  A    between atoms: C_15  and  O_17
REMARK   13  A    between atoms: C_18  and  C_20
REMARK   14  A    between atoms: C_24  and  C_25
REMARK   15  A    between atoms: C_26  and  C_27
REMARK                            x       y       z     vdW  Elec       q    Type
REMARK                         _______ _______ _______ _____ _____    ______ ____
ROOT
ATOM      1  N   UNK A   0       1.606   8.563  19.699  0.00  0.00    +0.000 N 
ATOM      2  C   UNK A   0       2.067   7.245  19.544  0.00  0.00    +0.000 C 
ATOM      3  O   UNK A   0       2.162   6.423  20.457  0.00  0.00    +0.000 OA
ATOM      4  N   UNK A   1       2.438   6.856  18.279  0.00  0.00    +0.000 N 
ATOM      5  C   UNK A   0       1.332   9.422  18.591  0.00  0.00    +0.000 C 
ATOM      6  O   UNK A   0       1.714   9.163  17.444  0.00  0.00    +0.000 OA
ATOM      7  H   UNK A   1       2.635   7.615  17.624  0.00  0.00    +0.000 HD
ENDROOT
BRANCH   5   8
ATOM      8  C   UNK A   0       0.695  10.781  18.777  0.00  0.00    +0.000 A 
ATOM      9  C   UNK A   0       1.555  11.888  18.862  0.00  0.00    +0.000 A 
ATOM     10  C   UNK A   0       1.058  13.154  19.193  0.00  0.00    +0.000 A 
ATOM     11  C   UNK A   0      -0.298  13.321  19.473  0.00  0.00    +0.000 A 
ATOM     12  C   UNK A   0      -1.174  12.247  19.336  0.00  0.00    +0.000 A 
ATOM     13  C   UNK A   0      -0.687  11.003  18.908  0.00  0.00    +0.000 A 
BRANCH  12  14
ATOM     14  C   UNK A   0      -2.550  12.385  19.728  0.00  0.00    +0.000 C 
ATOM     15  C   UNK A   0      -3.676  12.538  20.118  0.00  0.00    +0.000 C 
BRANCH  15  16
ATOM     16  C   UNK A   0      -5.011  12.714  20.610  0.00  0.00    +0.000 A 
ATOM     17  C   UNK A   0      -5.282  13.663  21.602  0.00  0.00    +0.000 A 
ATOM     18  C   UNK A   0      -6.578  13.800  22.115  0.00  0.00    +0.000 A 
ATOM     19  C   UNK A   0      -7.611  12.993  21.637  0.00  0.00    +0.000 A 
ATOM     20  C   UNK A   0      -7.354  12.061  20.629  0.00  0.00    +0.000 A 
ATOM     21  C   UNK A   0      -6.061  11.930  20.123  0.00  0.00    +0.000 A 
ATOM     22  F   UNK A   0      -5.842  11.027  19.154  0.00  0.00    +0.000 F 
ENDBRANCH  15  16
ENDBRANCH  12  14
ENDBRANCH   5   8
BRANCH   1  23
ATOM     23  C   UNK A   0       1.197   8.982  21.051  0.00  0.00    +0.000 C 
BRANCH  23  25
ATOM     24  C   UNK A   0      -0.594   9.630  22.747  0.00  0.00    +0.000 C 
ATOM     25  C   UNK A   0      -0.186   8.685  21.634  0.00  0.00    +0.000 C 
ENDBRANCH  23  25
ENDBRANCH   1  23
BRANCH   4  26
ATOM     26  C   UNK A   1       3.090   5.558  18.052  0.00  0.00    +0.000 C 
BRANCH  26  27
ATOM     27  C   UNK A   1       2.021   4.472  18.232  0.00  0.00    +0.000 C 
ATOM     28  O   UNK A   1       1.173   4.180  17.398  0.00  0.00    +0.000 OA
BRANCH  27  29
ATOM     29  O   UNK A   1       2.179   3.755  19.376  0.00  0.00    +0.000 OA
ATOM     30  H   UNK A   1       3.035   3.270  19.399  0.00  0.00    +0.000 HD
ENDBRANCH  27  29
ENDBRANCH  26  27
BRANCH  26  31
ATOM     31  C   UNK A   1       4.288   5.319  18.988  0.00  0.00    +0.000 C 
BRANCH  31  32
ATOM     32  S   UNK A   1       5.553   4.274  18.167  0.00  0.00    +0.000 S 
BRANCH  32  33
ATOM     33  C   UNK A   1       4.936   4.284  16.446  0.00  0.00    +0.000 C 
BRANCH  33  34
ATOM     34  C   UNK A   1       6.072   4.024  15.430  0.00  0.00    +0.000 C 
ATOM     35  C   UNK A   1       5.606   4.089  13.972  0.00  0.00    +0.000 C 
ATOM     36  C   UNK A   1       7.212   5.030  15.630  0.00  0.00    +0.000 C 
ENDBRANCH  33  34
ENDBRANCH  32  33
ENDBRANCH  31  32
ENDBRANCH  26  31
ENDBRANCH   4  26
TORSDOF 12
ENDMDL
MODEL 8
REMARK VINA RESULT:      -7.1      5.207     10.258
REMARK  Name = 
REMARK  15 active torsions:
REMARK  status: ('A' for Active; 'I' for Inactive)
REMARK    1  A    between atoms: C_1  and  C_2
REMARK    2  A    between atoms: C_2  and  C_3
REMARK    3  A    between atoms: C_3  and  N_4
REMARK    4  A    between atoms: N_7  and  C_8
REMARK    5  A    between atoms: C_8  and  C_9
REMARK    6  A    between atoms: C_8  and  C_15
REMARK    7  A    between atoms: C_9  and  S_10
REMARK    8  A    between atoms: S_10  and  C_11
REMARK    9  A    between atoms: C_11  and  C_12
REMARK   10  A    between atoms: C_12  and  C_13
REMARK   11  A    between atoms: C_12  and  C_14
REMARK   12  A    between atoms: C_15  and  O_17
REMARK   13  A    between atoms: C_18  and  C_20
REMARK   14  A    between atoms: C_24  and  C_25
REMARK   15  A    between atoms: C_26  and  C_27
REMARK                            x       y       z     vdW  Elec       q    Type
REMARK                         _______ _______ _______ _____ _____    ______ ____
ROOT
ATOM      1  N   UNK A   0      -3.111  11.352  18.286  0.00  0.00    +0.000 N 
ATOM      2  C   UNK A   0      -4.494  11.410  18.529  0.00  0.00    +0.000 C 
ATOM      3  O   UNK A   0      -5.348  10.826  17.859  0.00  0.00    +0.000 OA
ATOM      4  N   UNK A   1      -4.912  12.176  19.590  0.00  0.00    +0.000 N 
ATOM      5  C   UNK A   0      -2.144  11.884  19.192  0.00  0.00    +0.000 C 
ATOM      6  O   UNK A   0      -2.453  12.646  20.116  0.00  0.00    +0.000 OA
ATOM      7  H   UNK A   1      -4.239  12.867  19.927  0.00  0.00    +0.000 HD
ENDROOT
BRANCH   5   8
ATOM      8  C   UNK A   0      -0.660  11.678  18.984  0.00  0.00    +0.000 A 
ATOM      9  C   UNK A   0       0.116  12.817  18.714  0.00  0.00    +0.000 A 
ATOM     10  C   UNK A   0       1.462  12.694  18.351  0.00  0.00    +0.000 A 
ATOM     11  C   UNK A   0       2.039  11.431  18.225  0.00  0.00    +0.000 A 
ATOM     12  C   UNK A   0       1.301  10.294  18.545  0.00  0.00    +0.000 A 
ATOM     13  C   UNK A   0      -0.018  10.428  19.004  0.00  0.00    +0.000 A 
BRANCH  12  14
ATOM     14  C   UNK A   0       1.854   8.987  18.313  0.00  0.00    +0.000 C 
ATOM     15  C   UNK A   0       2.244   7.868  18.118  0.00  0.00    +0.000 C 
BRANCH  15  16
ATOM     16  C   UNK A   0       2.690   6.523  17.904  0.00  0.00    +0.000 A 
ATOM     17  C   UNK A   0       1.810   5.448  18.073  0.00  0.00    +0.000 A 
ATOM     18  C   UNK A   0       2.262   4.132  17.909  0.00  0.00    +0.000 A 
ATOM     19  C   UNK A   0       3.593   3.883  17.574  0.00  0.00    +0.000 A 
ATOM     20  C   UNK A   0       4.471   4.951  17.380  0.00  0.00    +0.000 A 
ATOM     21  C   UNK A   0       4.015   6.259  17.543  0.00  0.00    +0.000 A 
ATOM     22  F   UNK A   0       4.881   7.266  17.350  0.00  0.00    +0.000 F 
ENDBRANCH  15  16
ENDBRANCH  12  14
ENDBRANCH   5   8
BRANCH   1  23
ATOM     23  C   UNK A   0      -2.656  10.523  17.156  0.00  0.00    +0.000 C 
BRANCH  23  25
ATOM     24  C   UNK A   0      -3.226  10.006  14.724  0.00  0.00    +0.000 C 
ATOM     25  C   UNK A   0      -2.660  11.012  15.706  0.00  0.00    +0.000 C 
ENDBRANCH  23  25
ENDBRANCH   1  23
BRANCH   4  26
ATOM     26  C   UNK A   1      -6.342  12.432  19.817  0.00  0.00    +0.000 C 
BRANCH  26  27
ATOM     27  C   UNK A   1      -6.615  13.887  19.411  0.00  0.00    +0.000 C 
ATOM     28  O   UNK A   1      -7.728  14.381  19.288  0.00  0.00    +0.000 OA
BRANCH  27  29
ATOM     29  O   UNK A   1      -5.483  14.635  19.320  0.00  0.00    +0.000 OA
ATOM     30  H   UNK A   1      -4.669  14.083  19.322  0.00  0.00    +0.000 HD
ENDBRANCH  27  29
ENDBRANCH  26  27
BRANCH  26  31
ATOM     31  C   UNK A   1      -6.772  12.171  21.271  0.00  0.00    +0.000 C 
BRANCH  31  32
ATOM     32  S   UNK A   1      -6.647  13.706  22.268  0.00  0.00    +0.000 S 
BRANCH  32  33
ATOM     33  C   UNK A   1      -5.772  13.080  23.747  0.00  0.00    +0.000 C 
BRANCH  33  34
ATOM     34  C   UNK A   1      -4.278  13.476  23.736  0.00  0.00    +0.000 C 
ATOM     35  C   UNK A   1      -3.337  12.282  23.547  0.00  0.00    +0.000 C 
ATOM     36  C   UNK A   1      -4.002  14.502  22.630  0.00  0.00    +0.000 C 
ENDBRANCH  33  34
ENDBRANCH  32  33
ENDBRANCH  31  32
ENDBRANCH  26  31
ENDBRANCH   4  26
TORSDOF 12
ENDMDL
MODEL 9
REMARK VINA RESULT:      -7.0      3.300      5.451
REMARK  Name = 
REMARK  15 active torsions:
REMARK  status: ('A' for Active; 'I' for Inactive)
REMARK    1  A    between atoms: C_1  and  C_2
REMARK    2  A    between atoms: C_2  and  C_3
REMARK    3  A    between atoms: C_3  and  N_4
REMARK    4  A    between atoms: N_7  and  C_8
REMARK    5  A    between atoms: C_8  and  C_9
REMARK    6  A    between atoms: C_8  and  C_15
REMARK    7  A    between atoms: C_9  and  S_10
REMARK    8  A    between atoms: S_10  and  C_11
REMARK    9  A    between atoms: C_11  and  C_12
REMARK   10  A    between atoms: C_12  and  C_13
REMARK   11  A    between atoms: C_12  and  C_14
REMARK   12  A    between atoms: C_15  and  O_17
REMARK   13  A    between atoms: C_18  and  C_20
REMARK   14  A    between atoms: C_24  and  C_25
REMARK   15  A    between atoms: C_26  and  C_27
REMARK                            x       y       z     vdW  Elec       q    Type
REMARK                         _______ _______ _______ _____ _____    ______ ____
ROOT
ATOM      1  N   UNK A   0       1.503   8.619  19.507  0.00  0.00    +0.000 N 
ATOM      2  C   UNK A   0       2.213   7.502  19.034  0.00  0.00    +0.000 C 
ATOM      3  O   UNK A   0       2.542   7.327  17.859  0.00  0.00    +0.000 OA
ATOM      4  N   UNK A   1       2.557   6.542  19.955  0.00  0.00    +0.000 N 
ATOM      5  C   UNK A   0       1.307   8.878  20.897  0.00  0.00    +0.000 C 
ATOM      6  O   UNK A   0       1.522   8.023  21.765  0.00  0.00    +0.000 OA
ATOM      7  H   UNK A   1       2.028   6.560  20.829  0.00  0.00    +0.000 HD
ENDROOT
BRANCH   5   8
ATOM      8  C   UNK A   0       0.673  10.161  21.386  0.00  0.00    +0.000 A 
ATOM      9  C   UNK A   0      -0.211  10.067  22.473  0.00  0.00    +0.000 A 
ATOM     10  C   UNK A   0      -0.960  11.177  22.882  0.00  0.00    +0.000 A 
ATOM     11  C   UNK A   0      -0.857  12.383  22.189  0.00  0.00    +0.000 A 
ATOM     12  C   UNK A   0       0.057  12.510  21.145  0.00  0.00    +0.000 A 
ATOM     13  C   UNK A   0       0.877  11.424  20.804  0.00  0.00    +0.000 A 
BRANCH  12  14
ATOM     14  C   UNK A   0       0.089  13.712  20.358  0.00  0.00    +0.000 C 
ATOM     15  C   UNK A   0       0.162  14.747  19.754  0.00  0.00    +0.000 C 
BRANCH  15  16
ATOM     16  C   UNK A   0       0.247  15.998  19.058  0.00  0.00    +0.000 A 
ATOM     17  C   UNK A   0      -0.891  16.794  18.886  0.00  0.00    +0.000 A 
ATOM     18  C   UNK A   0      -0.814  17.992  18.164  0.00  0.00    +0.000 A 
ATOM     19  C   UNK A   0       0.400  18.403  17.613  0.00  0.00    +0.000 A 
ATOM     20  C   UNK A   0       1.545  17.626  17.801  0.00  0.00    +0.000 A 
ATOM     21  C   UNK A   0       1.462  16.435  18.521  0.00  0.00    +0.000 A 
ATOM     22  F   UNK A   0       2.579  15.709  18.688  0.00  0.00    +0.000 F 
ENDBRANCH  15  16
ENDBRANCH  12  14
ENDBRANCH   5   8
BRANCH   1  23
ATOM     23  C   UNK A   0       1.141   9.656  18.525  0.00  0.00    +0.000 C 
BRANCH  23  25
ATOM     24  C   UNK A   0      -1.296  10.374  18.300  0.00  0.00    +0.000 C 
ATOM     25  C   UNK A   0      -0.141   9.605  17.691  0.00  0.00    +0.000 C 
ENDBRANCH  23  25
ENDBRANCH   1  23
BRANCH   4  26
ATOM     26  C   UNK A   1       3.148   5.265  19.527  0.00  0.00    +0.000 C 
BRANCH  26  27
ATOM     27  C   UNK A   1       2.583   4.171  20.444  0.00  0.00    +0.000 C 
ATOM     28  O   UNK A   1       2.274   4.333  21.618  0.00  0.00    +0.000 OA
BRANCH  27  29
ATOM     29  O   UNK A   1       2.330   3.007  19.789  0.00  0.00    +0.000 OA
ATOM     30  H   UNK A   1       2.655   3.021  18.861  0.00  0.00    +0.000 HD
ENDBRANCH  27  29
ENDBRANCH  26  27
BRANCH  26  31
ATOM     31  C   UNK A   1       4.686   5.278  19.559  0.00  0.00    +0.000 C 
BRANCH  31  32
ATOM     32  S   UNK A   1       5.371   4.322  18.151  0.00  0.00    +0.000 S 
BRANCH  32  33
ATOM     33  C   UNK A   1       7.046   5.045  18.032  0.00  0.00    +0.000 C 
BRANCH  33  34
ATOM     34  C   UNK A   1       7.108   6.172  16.976  0.00  0.00    +0.000 C 
ATOM     35  C   UNK A   1       5.765   6.425  16.283  0.00  0.00    +0.000 C 
ATOM     36  C   UNK A   1       7.588   7.481  17.615  0.00  0.00    +0.000 C 
ENDBRANCH  33  34
ENDBRANCH  32  33
ENDBRANCH  31  32
ENDBRANCH  26  31
ENDBRANCH   4  26
TORSDOF 12
ENDMDL
