MODEL 1
REMARK VINA RESULT:      -6.3      0.000      0.000
REMARK  Name = 
REMARK  18 active torsions:
REMARK  status: ('A' for Active; 'I' for Inactive)
REMARK    1  A    between atoms: C_1  and  C_2
REMARK    2  A    between atoms: C_2  and  C_3
REMARK    3  A    between atoms: C_3  and  C_4
REMARK    4  A    between atoms: C_4  and  C_5
REMARK    5  A    between atoms: C_5  and  C_6
REMARK    6  A    between atoms: C_7  and  C_8
REMARK    7  A    between atoms: C_8  and  C_9
REMARK    8  A    between atoms: C_10  and  C_11
REMARK    9  A    between atoms: C_11  and  C_12
REMARK   10  A    between atoms: C_13  and  C_14
REMARK   11  A    between atoms: C_14  and  C_15
REMARK   12  A    between atoms: C_16  and  C_17
REMARK   13  A    between atoms: C_17  and  C_18
REMARK   14  A    between atoms: C_18  and  C_19
REMARK   15  A    between atoms: C_19  and  N_20
REMARK   16  A    between atoms: C_21  and  C_23
REMARK   17  A    between atoms: C_23  and  C_24
REMARK   18  A    between atoms: C_24  and  O_25
REMARK                            x       y       z     vdW  Elec       q    Type
REMARK                         _______ _______ _______ _____ _____    ______ ____
ROOT
ATOM      1  C   UNL     1       1.810   2.035  19.775  0.00  0.00    +0.000 C 
ENDROOT
BRANCH   1   3
ATOM      2  C   UNL     1       2.067   3.605  21.714  0.00  0.00    +0.000 C 
ATOM      3  C   UNL     1       1.750   2.391  21.228  0.00  0.00    +0.000 C 
BRANCH   2   4
ATOM      4  C   UNL     1       2.475   4.846  20.948  0.00  0.00    +0.000 C 
BRANCH   4   6
ATOM      5  C   UNL     1       1.562   7.125  20.225  0.00  0.00    +0.000 C 
ATOM      6  C   UNL     1       1.486   5.987  20.939  0.00  0.00    +0.000 C 
BRANCH   5   7
ATOM      7  C   UNL     1       2.679   7.503  19.295  0.00  0.00    +0.000 C 
BRANCH   7   9
ATOM      8  C   UNL     1       1.579   9.196  17.787  0.00  0.00    +0.000 C 
ATOM      9  C   UNL     1       2.171   8.004  17.975  0.00  0.00    +0.000 C 
BRANCH   8  10
ATOM     10  C   UNL     1       1.290  10.190  18.877  0.00  0.00    +0.000 C 
BRANCH  10  11
ATOM     11  C   UNL     1      -0.102  10.803  18.755  0.00  0.00    +0.000 C 
BRANCH  11  12
ATOM     12  C   UNL     1      -0.983   9.930  17.859  0.00  0.00    +0.000 C 
BRANCH  12  14
ATOM     13  C   UNL     1      -2.636  10.564  16.079  0.00  0.00    +0.000 C 
ATOM     14  C   UNL     1      -2.317  10.606  17.563  0.00  0.00    +0.000 C 
ENDBRANCH  12  14
ENDBRANCH  11  12
ENDBRANCH  10  11
ENDBRANCH   8  10
ENDBRANCH   7   9
ENDBRANCH   5   7
ENDBRANCH   4   6
ENDBRANCH   2   4
ENDBRANCH   1   3
BRANCH   1  15
ATOM     15  C   UNL     1       1.119   3.012  18.874  0.00  0.00    +0.000 C 
ATOM     16  C   UNL     1       1.662   3.552  17.768  0.00  0.00    +0.000 C 
BRANCH  16  17
ATOM     17  C   UNL     1       3.084   3.345  17.317  0.00  0.00    +0.000 C 
BRANCH  17  18
ATOM     18  C   UNL     1       3.951   4.588  17.523  0.00  0.00    +0.000 C 
BRANCH  18  19
ATOM     19  C   UNL     1       5.088   4.266  18.490  0.00  0.00    +0.000 C 
BRANCH  19  20
ATOM     20  N   UNL     1       5.938   5.421  18.711  0.00  0.00    +0.000 N 
ATOM     21  C   UNL     1       7.274   5.379  18.403  0.00  0.00    +0.000 C 
ATOM     22  O   UNL     1       7.841   4.374  17.981  0.00  0.00    +0.000 OA
ATOM     23  H   UNL     1       5.498   6.307  18.924  0.00  0.00    +0.000 HD
BRANCH  21  24
ATOM     24  C   UNL     1       7.981   6.699  18.602  0.00  0.00    +0.000 C 
BRANCH  24  25
ATOM     25  C   UNL     1       7.727   7.631  17.430  0.00  0.00    +0.000 C 
BRANCH  25  26
ATOM     26  O   UNL     1       7.762   8.992  17.850  0.00  0.00    +0.000 OA
ATOM     27  H   UNL     1       8.595   9.359  17.497  0.00  0.00    +0.000 HD
ENDBRANCH  25  26
ENDBRANCH  24  25
ENDBRANCH  21  24
ENDBRANCH  19  20
ENDBRANCH  18  19
ENDBRANCH  17  18
ENDBRANCH  16  17
ENDBRANCH   1  15
TORSDOF 17
ENDMDL
MODEL 2
REMARK VINA RESULT:      -6.2      3.682      7.142
REMARK  Name = 
REMARK  18 active torsions:
REMARK  status: ('A' for Active; 'I' for Inactive)
REMARK    1  A    between atoms: C_1  and  C_2
REMARK    2  A    between atoms: C_2  and  C_3
REMARK    3  A    between atoms: C_3  and  C_4
REMARK    4  A    between atoms: C_4  and  C_5
REMARK    5  A    between atoms: C_5  and  C_6
REMARK    6  A    between atoms: C_7  and  C_8
REMARK    7  A    between atoms: C_8  and  C_9
REMARK    8  A    between atoms: C_10  and  C_11
REMARK    9  A    between atoms: C_11  and  C_12
REMARK   10  A    between atoms: C_13  and  C_14
REMARK   11  A    between atoms: C_14  and  C_15
REMARK   12  A    between atoms: C_16  and  C_17
REMARK   13  A    between atoms: C_17  and  C_18
REMARK   14  A    between atoms: C_18  and  C_19
REMARK   15  A    between atoms: C_19  and  N_20
REMARK   16  A    between atoms: C_21  and  C_23
REMARK   17  A    between atoms: C_23  and  C_24
REMARK   18  A    between atoms: C_24  and  O_25
REMARK                            x       y       z     vdW  Elec       q    Type
REMARK                         _______ _______ _______ _____ _____    ______ ____
ROOT
ATOM      1  C   UNL     1       1.791   5.224  19.345  0.00  0.00    +0.000 C 
ENDROOT
BRANCH   1   3
ATOM      2  C   UNL     1       1.589   2.822  20.037  0.00  0.00    +0.000 C 
ATOM      3  C   UNL     1       1.102   4.077  20.016  0.00  0.00    +0.000 C 
BRANCH   2   4
ATOM      4  C   UNL     1       2.901   2.314  19.477  0.00  0.00    +0.000 C 
BRANCH   4   6
ATOM      5  C   UNL     1       3.780   2.953  17.159  0.00  0.00    +0.000 C 
ATOM      6  C   UNL     1       2.999   2.218  17.973  0.00  0.00    +0.000 C 
BRANCH   5   7
ATOM      7  C   UNL     1       4.710   4.049  17.592  0.00  0.00    +0.000 C 
BRANCH   7   9
ATOM      8  C   UNL     1       5.407   5.770  15.889  0.00  0.00    +0.000 C 
ATOM      9  C   UNL     1       4.523   5.300  16.786  0.00  0.00    +0.000 C 
BRANCH   8  10
ATOM     10  C   UNL     1       6.740   5.143  15.592  0.00  0.00    +0.000 C 
BRANCH  10  11
ATOM     11  C   UNL     1       6.885   4.746  14.125  0.00  0.00    +0.000 C 
BRANCH  11  12
ATOM     12  C   UNL     1       5.777   3.766  13.735  0.00  0.00    +0.000 C 
BRANCH  12  14
ATOM     13  C   UNL     1       4.547   3.289  11.598  0.00  0.00    +0.000 C 
ATOM     14  C   UNL     1       5.905   3.335  12.278  0.00  0.00    +0.000 C 
ENDBRANCH  12  14
ENDBRANCH  11  12
ENDBRANCH  10  11
ENDBRANCH   8  10
ENDBRANCH   7   9
ENDBRANCH   5   7
ENDBRANCH   4   6
ENDBRANCH   2   4
ENDBRANCH   1   3
BRANCH   1  15
ATOM     15  C   UNL     1       1.938   6.441  20.207  0.00  0.00    +0.000 C 
ATOM     16  C   UNL     1       2.145   7.688  19.745  0.00  0.00    +0.000 C 
BRANCH  16  17
ATOM     17  C   UNL     1       2.366   8.044  18.299  0.00  0.00    +0.000 C 
BRANCH  17  18
ATOM     18  C   UNL     1       1.422   9.146  17.816  0.00  0.00    +0.000 C 
BRANCH  18  19
ATOM     19  C   UNL     1       1.439  10.308  18.807  0.00  0.00    +0.000 C 
BRANCH  19  20
ATOM     20  N   UNL     1       1.783  11.557  18.153  0.00  0.00    +0.000 N 
ATOM     21  C   UNL     1       1.870  12.724  18.870  0.00  0.00    +0.000 C 
ATOM     22  O   UNL     1       1.617  12.803  20.069  0.00  0.00    +0.000 OA
ATOM     23  H   UNL     1       2.132  11.522  17.205  0.00  0.00    +0.000 HD
BRANCH  21  24
ATOM     24  C   UNL     1       2.337  13.903  18.048  0.00  0.00    +0.000 C 
BRANCH  24  25
ATOM     25  C   UNL     1       3.792  14.224  18.342  0.00  0.00    +0.000 C 
BRANCH  25  26
ATOM     26  O   UNL     1       4.354  15.019  17.302  0.00  0.00    +0.000 OA
ATOM     27  H   UNL     1       5.323  14.927  17.389  0.00  0.00    +0.000 HD
ENDBRANCH  25  26
ENDBRANCH  24  25
ENDBRANCH  21  24
ENDBRANCH  19  20
ENDBRANCH  18  19
ENDBRANCH  17  18
ENDBRANCH  16  17
ENDBRANCH   1  15
TORSDOF 17
ENDMDL
MODEL 3
REMARK VINA RESULT:      -6.2      1.527      2.286
REMARK  Name = 
REMARK  18 active torsions:
REMARK  status: ('A' for Active; 'I' for Inactive)
REMARK    1  A    between atoms: C_1  and  C_2
REMARK    2  A    between atoms: C_2  and  C_3
REMARK    3  A    between atoms: C_3  and  C_4
REMARK    4  A    between atoms: C_4  and  C_5
REMARK    5  A    between atoms: C_5  and  C_6
REMARK    6  A    between atoms: C_7  and  C_8
REMARK    7  A    between atoms: C_8  and  C_9
REMARK    8  A    between atoms: C_10  and  C_11
REMARK    9  A    between atoms: C_11  and  C_12
REMARK   10  A    between atoms: C_13  and  C_14
REMARK   11  A    between atoms: C_14  and  C_15
REMARK   12  A    between atoms: C_16  and  C_17
REMARK   13  A    between atoms: C_17  and  C_18
REMARK   14  A    between atoms: C_18  and  C_19
REMARK   15  A    between atoms: C_19  and  N_20
REMARK   16  A    between atoms: C_21  and  C_23
REMARK   17  A    between atoms: C_23  and  C_24
REMARK   18  A    between atoms: C_24  and  O_25
REMARK                            x       y       z     vdW  Elec       q    Type
REMARK                         _______ _______ _______ _____ _____    ______ ____
ROOT
ATOM      1  C   UNL     1       2.015   3.286  17.707  0.00  0.00    +0.000 C 
ENDROOT
BRANCH   1   3
ATOM      2  C   UNL     1       0.681   3.055  19.819  0.00  0.00    +0.000 C 
ATOM      3  C   UNL     1       1.055   2.582  18.615  0.00  0.00    +0.000 C 
BRANCH   2   4
ATOM      4  C   UNL     1       1.068   4.363  20.476  0.00  0.00    +0.000 C 
BRANCH   4   6
ATOM      5  C   UNL     1       3.175   5.791  20.207  0.00  0.00    +0.000 C 
ATOM      6  C   UNL     1       2.546   4.657  20.570  0.00  0.00    +0.000 C 
BRANCH   5   7
ATOM      7  C   UNL     1       2.522   7.001  19.605  0.00  0.00    +0.000 C 
BRANCH   7   9
ATOM      8  C   UNL     1       2.599   8.211  17.396  0.00  0.00    +0.000 C 
ATOM      9  C   UNL     1       2.756   7.094  18.127  0.00  0.00    +0.000 C 
BRANCH   8  10
ATOM     10  C   UNL     1       2.115   9.527  17.939  0.00  0.00    +0.000 C 
BRANCH  10  11
ATOM     11  C   UNL     1       0.672   9.462  18.431  0.00  0.00    +0.000 C 
BRANCH  11  12
ATOM     12  C   UNL     1       0.171  10.866  18.774  0.00  0.00    +0.000 C 
BRANCH  12  14
ATOM     13  C   UNL     1      -0.131   9.741  20.998  0.00  0.00    +0.000 C 
ATOM     14  C   UNL     1       0.066  11.066  20.281  0.00  0.00    +0.000 C 
ENDBRANCH  12  14
ENDBRANCH  11  12
ENDBRANCH  10  11
ENDBRANCH   8  10
ENDBRANCH   7   9
ENDBRANCH   5   7
ENDBRANCH   4   6
ENDBRANCH   2   4
ENDBRANCH   1   3
BRANCH   1  15
ATOM     15  C   UNL     1       3.429   2.805  17.815  0.00  0.00    +0.000 C 
ATOM     16  C   UNL     1       4.476   3.349  17.169  0.00  0.00    +0.000 C 
BRANCH  16  17
ATOM     17  C   UNL     1       4.380   4.460  16.156  0.00  0.00    +0.000 C 
BRANCH  17  18
ATOM     18  C   UNL     1       5.659   4.612  15.330  0.00  0.00    +0.000 C 
BRANCH  18  19
ATOM     19  C   UNL     1       6.873   4.304  16.203  0.00  0.00    +0.000 C 
BRANCH  19  20
ATOM     20  N   UNL     1       7.401   5.507  16.820  0.00  0.00    +0.000 N 
ATOM     21  C   UNL     1       7.393   5.659  18.183  0.00  0.00    +0.000 C 
ATOM     22  O   UNL     1       6.903   4.837  18.954  0.00  0.00    +0.000 OA
ATOM     23  H   UNL     1       7.936   6.145  16.245  0.00  0.00    +0.000 HD
BRANCH  21  24
ATOM     24  C   UNL     1       8.073   6.924  18.653  0.00  0.00    +0.000 C 
BRANCH  24  25
ATOM     25  C   UNL     1       7.913   8.036  17.631  0.00  0.00    +0.000 C 
BRANCH  25  26
ATOM     26  O   UNL     1       6.550   8.164  17.233  0.00  0.00    +0.000 OA
ATOM     27  H   UNL     1       6.020   7.854  17.993  0.00  0.00    +0.000 HD
ENDBRANCH  25  26
ENDBRANCH  24  25
ENDBRANCH  21  24
ENDBRANCH  19  20
ENDBRANCH  18  19
ENDBRANCH  17  18
ENDBRANCH  16  17
ENDBRANCH   1  15
TORSDOF 17
ENDMDL
MODEL 4
REMARK VINA RESULT:      -6.1      1.746      3.044
REMARK  Name = 
REMARK  18 active torsions:
REMARK  status: ('A' for Active; 'I' for Inactive)
REMARK    1  A    between atoms: C_1  and  C_2
REMARK    2  A    between atoms: C_2  and  C_3
REMARK    3  A    between atoms: C_3  and  C_4
REMARK    4  A    between atoms: C_4  and  C_5
REMARK    5  A    between atoms: C_5  and  C_6
REMARK    6  A    between atoms: C_7  and  C_8
REMARK    7  A    between atoms: C_8  and  C_9
REMARK    8  A    between atoms: C_10  and  C_11
REMARK    9  A    between atoms: C_11  and  C_12
REMARK   10  A    between atoms: C_13  and  C_14
REMARK   11  A    between atoms: C_14  and  C_15
REMARK   12  A    between atoms: C_16  and  C_17
REMARK   13  A    between atoms: C_17  and  C_18
REMARK   14  A    between atoms: C_18  and  C_19
REMARK   15  A    between atoms: C_19  and  N_20
REMARK   16  A    between atoms: C_21  and  C_23
REMARK   17  A    between atoms: C_23  and  C_24
REMARK   18  A    between atoms: C_24  and  O_25
REMARK                            x       y       z     vdW  Elec       q    Type
REMARK                         _______ _______ _______ _____ _____    ______ ____
ROOT
ATOM      1  C   UNL     1       1.076   4.558  20.150  0.00  0.00    +0.000 C 
ENDROOT
BRANCH   1   3
ATOM      2  C   UNL     1       2.336   6.716  19.936  0.00  0.00    +0.000 C 
ATOM      3  C   UNL     1       1.760   5.770  20.701  0.00  0.00    +0.000 C 
BRANCH   2   4
ATOM      4  C   UNL     1       2.372   6.809  18.425  0.00  0.00    +0.000 C 
BRANCH   4   6
ATOM      5  C   UNL     1       2.110   9.304  17.918  0.00  0.00    +0.000 C 
ATOM      6  C   UNL     1       2.782   8.140  17.841  0.00  0.00    +0.000 C 
BRANCH   5   7
ATOM      7  C   UNL     1       0.783   9.507  18.591  0.00  0.00    +0.000 C 
BRANCH   7   9
ATOM      8  C   UNL     1       0.377  11.683  19.795  0.00  0.00    +0.000 C 
ATOM      9  C   UNL     1       0.881  10.437  19.764  0.00  0.00    +0.000 C 
BRANCH   8  10
ATOM     10  C   UNL     1      -0.319  12.354  18.643  0.00  0.00    +0.000 C 
BRANCH  10  11
ATOM     11  C   UNL     1      -1.796  11.979  18.554  0.00  0.00    +0.000 C 
BRANCH  11  12
ATOM     12  C   UNL     1      -2.147  11.566  17.123  0.00  0.00    +0.000 C 
BRANCH  12  14
ATOM     13  C   UNL     1      -3.389   9.468  17.726  0.00  0.00    +0.000 C 
ATOM     14  C   UNL     1      -2.199  10.049  16.981  0.00  0.00    +0.000 C 
ENDBRANCH  12  14
ENDBRANCH  11  12
ENDBRANCH  10  11
ENDBRANCH   8  10
ENDBRANCH   7   9
ENDBRANCH   5   7
ENDBRANCH   4   6
ENDBRANCH   2   4
ENDBRANCH   1   3
BRANCH   1  15
ATOM     15  C   UNL     1       1.358   3.296  20.906  0.00  0.00    +0.000 C 
ATOM     16  C   UNL     1       2.263   2.369  20.542  0.00  0.00    +0.000 C 
BRANCH  16  17
ATOM     17  C   UNL     1       3.060   2.399  19.265  0.00  0.00    +0.000 C 
BRANCH  17  18
ATOM     18  C   UNL     1       4.546   2.668  19.507  0.00  0.00    +0.000 C 
BRANCH  18  19
ATOM     19  C   UNL     1       4.855   4.134  19.216  0.00  0.00    +0.000 C 
BRANCH  19  20
ATOM     20  N   UNL     1       5.333   4.316  17.858  0.00  0.00    +0.000 N 
ATOM     21  C   UNL     1       6.669   4.493  17.601  0.00  0.00    +0.000 C 
ATOM     22  O   UNL     1       7.525   4.563  18.479  0.00  0.00    +0.000 OA
ATOM     23  H   UNL     1       4.694   4.130  17.096  0.00  0.00    +0.000 HD
BRANCH  21  24
ATOM     24  C   UNL     1       6.995   4.564  16.127  0.00  0.00    +0.000 C 
BRANCH  24  25
ATOM     25  C   UNL     1       5.863   3.987  15.294  0.00  0.00    +0.000 C 
BRANCH  25  26
ATOM     26  O   UNL     1       6.362   3.421  14.086  0.00  0.00    +0.000 OA
ATOM     27  H   UNL     1       7.031   4.050  13.753  0.00  0.00    +0.000 HD
ENDBRANCH  25  26
ENDBRANCH  24  25
ENDBRANCH  21  24
ENDBRANCH  19  20
ENDBRANCH  18  19
ENDBRANCH  17  18
ENDBRANCH  16  17
ENDBRANCH   1  15
TORSDOF 17
ENDMDL
MODEL 5
REMARK VINA RESULT:      -6.1      3.364      7.441
REMARK  Name = 
REMARK  18 active torsions:
REMARK  status: ('A' for Active; 'I' for Inactive)
REMARK    1  A    between atoms: C_1  and  C_2
REMARK    2  A    between atoms: C_2  and  C_3
REMARK    3  A    between atoms: C_3  and  C_4
REMARK    4  A    between atoms: C_4  and  C_5
REMARK    5  A    between atoms: C_5  and  C_6
REMARK    6  A    between atoms: C_7  and  C_8
REMARK    7  A    between atoms: C_8  and  C_9
REMARK    8  A    between atoms: C_10  and  C_11
REMARK    9  A    between atoms: C_11  and  C_12
REMARK   10  A    between atoms: C_13  and  C_14
REMARK   11  A    between atoms: C_14  and  C_15
REMARK   12  A    between atoms: C_16  and  C_17
REMARK   13  A    between atoms: C_17  and  C_18
REMARK   14  A    between atoms: C_18  and  C_19
REMARK   15  A    between atoms: C_19  and  N_20
REMARK   16  A    between atoms: C_21  and  C_23
REMARK   17  A    between atoms: C_23  and  C_24
REMARK   18  A    between atoms: C_24  and  O_25
REMARK                            x       y       z     vdW  Elec       q    Type
REMARK                         _______ _______ _______ _____ _____    ______ ____
ROOT
ATOM      1  C   UNL     1       2.299   6.928  18.588  0.00  0.00    +0.000 C 
ENDROOT
BRANCH   1   3
ATOM      2  C   UNL     1       1.842   5.956  20.854  0.00  0.00    +0.000 C 
ATOM      3  C   UNL     1       1.943   7.022  20.039  0.00  0.00    +0.000 C 
BRANCH   2   4
ATOM      4  C   UNL     1       2.111   4.500  20.536  0.00  0.00    +0.000 C 
BRANCH   4   6
ATOM      5  C   UNL     1       1.122   2.868  18.830  0.00  0.00    +0.000 C 
ATOM      6  C   UNL     1       1.001   3.748  19.841  0.00  0.00    +0.000 C 
BRANCH   5   7
ATOM      7  C   UNL     1       2.408   2.472  18.163  0.00  0.00    +0.000 C 
BRANCH   7   9
ATOM      8  C   UNL     1       4.066   4.155  17.290  0.00  0.00    +0.000 C 
ATOM      9  C   UNL     1       2.889   3.514  17.197  0.00  0.00    +0.000 C 
BRANCH   8  10
ATOM     10  C   UNL     1       5.060   3.964  18.402  0.00  0.00    +0.000 C 
BRANCH  10  11
ATOM     11  C   UNL     1       5.403   5.272  19.110  0.00  0.00    +0.000 C 
BRANCH  11  12
ATOM     12  C   UNL     1       6.914   5.514  19.062  0.00  0.00    +0.000 C 
BRANCH  12  14
ATOM     13  C   UNL     1       7.556   7.456  17.605  0.00  0.00    +0.000 C 
ATOM     14  C   UNL     1       7.361   5.950  17.672  0.00  0.00    +0.000 C 
ENDBRANCH  12  14
ENDBRANCH  11  12
ENDBRANCH  10  11
ENDBRANCH   8  10
ENDBRANCH   7   9
ENDBRANCH   5   7
ENDBRANCH   4   6
ENDBRANCH   2   4
ENDBRANCH   1   3
BRANCH   1  15
ATOM     15  C   UNL     1       2.795   8.210  17.992  0.00  0.00    +0.000 C 
ATOM     16  C   UNL     1       2.034   9.296  17.766  0.00  0.00    +0.000 C 
BRANCH  16  17
ATOM     17  C   UNL     1       0.544   9.362  17.976  0.00  0.00    +0.000 C 
BRANCH  17  18
ATOM     18  C   UNL     1       0.115  10.617  18.737  0.00  0.00    +0.000 C 
BRANCH  18  19
ATOM     19  C   UNL     1       0.815  10.660  20.092  0.00  0.00    +0.000 C 
BRANCH  19  20
ATOM     20  N   UNL     1       1.293  11.995  20.401  0.00  0.00    +0.000 N 
ATOM     21  C   UNL     1       0.529  12.861  21.143  0.00  0.00    +0.000 C 
ATOM     22  O   UNL     1      -0.602  12.595  21.541  0.00  0.00    +0.000 OA
ATOM     23  H   UNL     1       2.264  12.211  20.218  0.00  0.00    +0.000 HD
BRANCH  21  24
ATOM     24  C   UNL     1       1.225  14.165  21.452  0.00  0.00    +0.000 C 
BRANCH  24  25
ATOM     25  C   UNL     1       2.614  14.196  20.838  0.00  0.00    +0.000 C 
BRANCH  25  26
ATOM     26  O   UNL     1       3.571  13.621  21.723  0.00  0.00    +0.000 OA
ATOM     27  H   UNL     1       3.133  13.572  22.595  0.00  0.00    +0.000 HD
ENDBRANCH  25  26
ENDBRANCH  24  25
ENDBRANCH  21  24
ENDBRANCH  19  20
ENDBRANCH  18  19
ENDBRANCH  17  18
ENDBRANCH  16  17
ENDBRANCH   1  15
TORSDOF 17
ENDMDL
MODEL 6
REMARK VINA RESULT:      -6.1      3.176      7.376
REMARK  Name = 
REMARK  18 active torsions:
REMARK  status: ('A' for Active; 'I' for Inactive)
REMARK    1  A    between atoms: C_1  and  C_2
REMARK    2  A    between atoms: C_2  and  C_3
REMARK    3  A    between atoms: C_3  and  C_4
REMARK    4  A    between atoms: C_4  and  C_5
REMARK    5  A    between atoms: C_5  and  C_6
REMARK    6  A    between atoms: C_7  and  C_8
REMARK    7  A    between atoms: C_8  and  C_9
REMARK    8  A    between atoms: C_10  and  C_11
REMARK    9  A    between atoms: C_11  and  C_12
REMARK   10  A    between atoms: C_13  and  C_14
REMARK   11  A    between atoms: C_14  and  C_15
REMARK   12  A    between atoms: C_16  and  C_17
REMARK   13  A    between atoms: C_17  and  C_18
REMARK   14  A    between atoms: C_18  and  C_19
REMARK   15  A    between atoms: C_19  and  N_20
REMARK   16  A    between atoms: C_21  and  C_23
REMARK   17  A    between atoms: C_23  and  C_24
REMARK   18  A    between atoms: C_24  and  O_25
REMARK                            x       y       z     vdW  Elec       q    Type
REMARK                         _______ _______ _______ _____ _____    ______ ____
ROOT
ATOM      1  C   UNL     1       4.940   5.816  15.908  0.00  0.00    +0.000 C 
ENDROOT
BRANCH   1   3
ATOM      2  C   UNL     1       7.173   4.680  15.805  0.00  0.00    +0.000 C 
ATOM      3  C   UNL     1       6.179   5.360  15.204  0.00  0.00    +0.000 C 
BRANCH   2   4
ATOM      4  C   UNL     1       7.242   4.187  17.235  0.00  0.00    +0.000 C 
BRANCH   4   6
ATOM      5  C   UNL     1       6.460   5.589  19.228  0.00  0.00    +0.000 C 
ATOM      6  C   UNL     1       7.377   5.243  18.306  0.00  0.00    +0.000 C 
BRANCH   5   7
ATOM      7  C   UNL     1       5.086   4.999  19.362  0.00  0.00    +0.000 C 
BRANCH   7   9
ATOM      8  C   UNL     1       3.989   2.998  18.294  0.00  0.00    +0.000 C 
ATOM      9  C   UNL     1       5.038   3.569  18.910  0.00  0.00    +0.000 C 
BRANCH   8  10
ATOM     10  C   UNL     1       2.684   3.688  18.008  0.00  0.00    +0.000 C 
BRANCH  10  11
ATOM     11  C   UNL     1       1.609   3.354  19.039  0.00  0.00    +0.000 C 
BRANCH  11  12
ATOM     12  C   UNL     1       1.462   4.506  20.035  0.00  0.00    +0.000 C 
BRANCH  12  14
ATOM     13  C   UNL     1       2.201   2.636  21.538  0.00  0.00    +0.000 C 
ATOM     14  C   UNL     1       2.042   4.140  21.396  0.00  0.00    +0.000 C 
ENDBRANCH  12  14
ENDBRANCH  11  12
ENDBRANCH  10  11
ENDBRANCH   8  10
ENDBRANCH   7   9
ENDBRANCH   5   7
ENDBRANCH   4   6
ENDBRANCH   2   4
ENDBRANCH   1   3
BRANCH   1  15
ATOM     15  C   UNL     1       4.955   7.261  16.307  0.00  0.00    +0.000 C 
ATOM     16  C   UNL     1       4.110   7.821  17.191  0.00  0.00    +0.000 C 
BRANCH  16  17
ATOM     17  C   UNL     1       2.949   7.115  17.840  0.00  0.00    +0.000 C 
BRANCH  17  18
ATOM     18  C   UNL     1       2.135   8.037  18.747  0.00  0.00    +0.000 C 
BRANCH  18  19
ATOM     19  C   UNL     1       1.894   9.369  18.041  0.00  0.00    +0.000 C 
BRANCH  19  20
ATOM     20  N   UNL     1       0.492   9.549  17.712  0.00  0.00    +0.000 N 
ATOM     21  C   UNL     1      -0.368  10.143  18.602  0.00  0.00    +0.000 C 
ATOM     22  O   UNL     1      -0.035  10.504  19.727  0.00  0.00    +0.000 OA
ATOM     23  H   UNL     1       0.200   9.397  16.756  0.00  0.00    +0.000 HD
BRANCH  21  24
ATOM     24  C   UNL     1      -1.762  10.339  18.053  0.00  0.00    +0.000 C 
BRANCH  24  25
ATOM     25  C   UNL     1      -1.969  11.775  17.602  0.00  0.00    +0.000 C 
BRANCH  25  26
ATOM     26  O   UNL     1      -0.731  12.482  17.583  0.00  0.00    +0.000 OA
ATOM     27  H   UNL     1      -0.827  13.170  16.897  0.00  0.00    +0.000 HD
ENDBRANCH  25  26
ENDBRANCH  24  25
ENDBRANCH  21  24
ENDBRANCH  19  20
ENDBRANCH  18  19
ENDBRANCH  17  18
ENDBRANCH  16  17
ENDBRANCH   1  15
TORSDOF 17
ENDMDL
MODEL 7
REMARK VINA RESULT:      -6.1      3.595      7.015
REMARK  Name = 
REMARK  18 active torsions:
REMARK  status: ('A' for Active; 'I' for Inactive)
REMARK    1  A    between atoms: C_1  and  C_2
REMARK    2  A    between atoms: C_2  and  C_3
REMARK    3  A    between atoms: C_3  and  C_4
REMARK    4  A    between atoms: C_4  and  C_5
REMARK    5  A    between atoms: C_5  and  C_6
REMARK    6  A    between atoms: C_7  and  C_8
REMARK    7  A    between atoms: C_8  and  C_9
REMARK    8  A    between atoms: C_10  and  C_11
REMARK    9  A    between atoms: C_11  and  C_12
REMARK   10  A    between atoms: C_13  and  C_14
REMARK   11  A    between atoms: C_14  and  C_15
REMARK   12  A    between atoms: C_16  and  C_17
REMARK   13  A    between atoms: C_17  and  C_18
REMARK   14  A    between atoms: C_18  and  C_19
REMARK   15  A    between atoms: C_19  and  N_20
REMARK   16  A    between atoms: C_21  and  C_23
REMARK   17  A    between atoms: C_23  and  C_24
REMARK   18  A    between atoms: C_24  and  O_25
REMARK                            x       y       z     vdW  Elec       q    Type
REMARK                         _______ _______ _______ _____ _____    ______ ____
ROOT
ATOM      1  C   UNL     1       2.359   4.892  20.628  0.00  0.00    +0.000 C 
ENDROOT
BRANCH   1   3
ATOM      2  C   UNL     1       1.352   2.631  20.222  0.00  0.00    +0.000 C 
ATOM      3  C   UNL     1       1.395   3.784  20.916  0.00  0.00    +0.000 C 
BRANCH   2   4
ATOM      4  C   UNL     1       2.256   2.180  19.094  0.00  0.00    +0.000 C 
BRANCH   4   6
ATOM      5  C   UNL     1       3.009   3.575  17.085  0.00  0.00    +0.000 C 
ATOM      6  C   UNL     1       2.080   2.881  17.769  0.00  0.00    +0.000 C 
BRANCH   5   7
ATOM      7  C   UNL     1       4.425   3.813  17.525  0.00  0.00    +0.000 C 
BRANCH   7   9
ATOM      8  C   UNL     1       5.757   5.409  16.101  0.00  0.00    +0.000 C 
ATOM      9  C   UNL     1       4.920   5.172  17.125  0.00  0.00    +0.000 C 
BRANCH   8  10
ATOM     10  C   UNL     1       6.365   4.346  15.229  0.00  0.00    +0.000 C 
BRANCH  10  11
ATOM     11  C   UNL     1       5.499   4.021  14.015  0.00  0.00    +0.000 C 
BRANCH  11  12
ATOM     12  C   UNL     1       6.357   3.400  12.910  0.00  0.00    +0.000 C 
BRANCH  12  14
ATOM     13  C   UNL     1       4.206   3.271  11.621  0.00  0.00    +0.000 C 
ATOM     14  C   UNL     1       5.698   3.551  11.544  0.00  0.00    +0.000 C 
ENDBRANCH  12  14
ENDBRANCH  11  12
ENDBRANCH  10  11
ENDBRANCH   8  10
ENDBRANCH   7   9
ENDBRANCH   5   7
ENDBRANCH   4   6
ENDBRANCH   2   4
ENDBRANCH   1   3
BRANCH   1  15
ATOM     15  C   UNL     1       1.754   6.262  20.676  0.00  0.00    +0.000 C 
ATOM     16  C   UNL     1       1.924   7.210  19.737  0.00  0.00    +0.000 C 
BRANCH  16  17
ATOM     17  C   UNL     1       2.832   7.084  18.542  0.00  0.00    +0.000 C 
BRANCH  17  18
ATOM     18  C   UNL     1       2.806   8.327  17.652  0.00  0.00    +0.000 C 
BRANCH  18  19
ATOM     19  C   UNL     1       1.469   9.046  17.813  0.00  0.00    +0.000 C 
BRANCH  19  20
ATOM     20  N   UNL     1       1.652  10.475  17.985  0.00  0.00    +0.000 N 
ATOM     21  C   UNL     1       1.356  11.082  19.180  0.00  0.00    +0.000 C 
ATOM     22  O   UNL     1       0.879  10.487  20.142  0.00  0.00    +0.000 OA
ATOM     23  H   UNL     1       2.167  10.981  17.278  0.00  0.00    +0.000 HD
BRANCH  21  24
ATOM     24  C   UNL     1       1.703  12.552  19.211  0.00  0.00    +0.000 C 
BRANCH  24  25
ATOM     25  C   UNL     1       1.111  13.222  20.439  0.00  0.00    +0.000 C 
BRANCH  25  26
ATOM     26  O   UNL     1       2.133  13.564  21.371  0.00  0.00    +0.000 OA
ATOM     27  H   UNL     1       2.655  14.272  20.946  0.00  0.00    +0.000 HD
ENDBRANCH  25  26
ENDBRANCH  24  25
ENDBRANCH  21  24
ENDBRANCH  19  20
ENDBRANCH  18  19
ENDBRANCH  17  18
ENDBRANCH  16  17
ENDBRANCH   1  15
TORSDOF 17
ENDMDL
MODEL 8
REMARK VINA RESULT:      -6.1      3.945      7.339
REMARK  Name = 
REMARK  18 active torsions:
REMARK  status: ('A' for Active; 'I' for Inactive)
REMARK    1  A    between atoms: C_1  and  C_2
REMARK    2  A    between atoms: C_2  and  C_3
REMARK    3  A    between atoms: C_3  and  C_4
REMARK    4  A    between atoms: C_4  and  C_5
REMARK    5  A    between atoms: C_5  and  C_6
REMARK    6  A    between atoms: C_7  and  C_8
REMARK    7  A    between atoms: C_8  and  C_9
REMARK    8  A    between atoms: C_10  and  C_11
REMARK    9  A    between atoms: C_11  and  C_12
REMARK   10  A    between atoms: C_13  and  C_14
REMARK   11  A    between atoms: C_14  and  C_15
REMARK   12  A    between atoms: C_16  and  C_17
REMARK   13  A    between atoms: C_17  and  C_18
REMARK   14  A    between atoms: C_18  and  C_19
REMARK   15  A    between atoms: C_19  and  N_20
REMARK   16  A    between atoms: C_21  and  C_23
REMARK   17  A    between atoms: C_23  and  C_24
REMARK   18  A    between atoms: C_24  and  O_25
REMARK                            x       y       z     vdW  Elec       q    Type
REMARK                         _______ _______ _______ _____ _____    ______ ____
ROOT
ATOM      1  C   UNL     1       6.411   6.655  16.993  0.00  0.00    +0.000 C 
ENDROOT
BRANCH   1   3
ATOM      2  C   UNL     1       5.939   4.500  15.800  0.00  0.00    +0.000 C 
ATOM      3  C   UNL     1       6.528   5.710  15.839  0.00  0.00    +0.000 C 
BRANCH   2   4
ATOM      4  C   UNL     1       5.020   3.869  16.825  0.00  0.00    +0.000 C 
BRANCH   4   6
ATOM      5  C   UNL     1       2.966   5.100  17.727  0.00  0.00    +0.000 C 
ATOM      6  C   UNL     1       3.582   4.329  16.813  0.00  0.00    +0.000 C 
BRANCH   5   7
ATOM      7  C   UNL     1       3.592   5.648  18.977  0.00  0.00    +0.000 C 
BRANCH   7   9
ATOM      8  C   UNL     1       1.615   5.958  20.509  0.00  0.00    +0.000 C 
ATOM      9  C   UNL     1       2.626   6.465  19.783  0.00  0.00    +0.000 C 
BRANCH   8  10
ATOM     10  C   UNL     1       1.266   4.497  20.586  0.00  0.00    +0.000 C 
BRANCH  10  11
ATOM     11  C   UNL     1       2.089   3.754  21.635  0.00  0.00    +0.000 C 
BRANCH  11  12
ATOM     12  C   UNL     1       2.462   2.363  21.121  0.00  0.00    +0.000 C 
BRANCH  12  14
ATOM     13  C   UNL     1       3.085   1.548  18.829  0.00  0.00    +0.000 C 
ATOM     14  C   UNL     1       1.988   2.155  19.687  0.00  0.00    +0.000 C 
ENDBRANCH  12  14
ENDBRANCH  11  12
ENDBRANCH  10  11
ENDBRANCH   8  10
ENDBRANCH   7   9
ENDBRANCH   5   7
ENDBRANCH   4   6
ENDBRANCH   2   4
ENDBRANCH   1   3
BRANCH   1  15
ATOM     15  C   UNL     1       7.476   6.490  18.034  0.00  0.00    +0.000 C 
ATOM     16  C   UNL     1       8.255   7.483  18.499  0.00  0.00    +0.000 C 
BRANCH  16  17
ATOM     17  C   UNL     1       8.255   8.895  17.974  0.00  0.00    +0.000 C 
BRANCH  17  18
ATOM     18  C   UNL     1       8.948   9.873  18.923  0.00  0.00    +0.000 C 
BRANCH  18  19
ATOM     19  C   UNL     1       9.465  11.074  18.135  0.00  0.00    +0.000 C 
BRANCH  19  20
ATOM     20  N   UNL     1      10.366  11.884  18.933  0.00  0.00    +0.000 N 
ATOM     21  C   UNL     1       9.982  13.120  19.390  0.00  0.00    +0.000 C 
ATOM     22  O   UNL     1       8.901  13.636  19.119  0.00  0.00    +0.000 OA
ATOM     23  H   UNL     1      11.205  11.452  19.297  0.00  0.00    +0.000 HD
BRANCH  21  24
ATOM     24  C   UNL     1      11.005  13.776  20.288  0.00  0.00    +0.000 C 
BRANCH  24  25
ATOM     25  C   UNL     1      11.857  14.761  19.506  0.00  0.00    +0.000 C 
BRANCH  25  26
ATOM     26  O   UNL     1      11.038  15.693  18.806  0.00  0.00    +0.000 OA
ATOM     27  H   UNL     1      10.116  15.446  19.013  0.00  0.00    +0.000 HD
ENDBRANCH  25  26
ENDBRANCH  24  25
ENDBRANCH  21  24
ENDBRANCH  19  20
ENDBRANCH  18  19
ENDBRANCH  17  18
ENDBRANCH  16  17
ENDBRANCH   1  15
TORSDOF 17
ENDMDL
MODEL 9
REMARK VINA RESULT:      -6.0      2.850      6.028
REMARK  Name = 
REMARK  18 active torsions:
REMARK  status: ('A' for Active; 'I' for Inactive)
REMARK    1  A    between atoms: C_1  and  C_2
REMARK    2  A    between atoms: C_2  and  C_3
REMARK    3  A    between atoms: C_3  and  C_4
REMARK    4  A    between atoms: C_4  and  C_5
REMARK    5  A    between atoms: C_5  and  C_6
REMARK    6  A    between atoms: C_7  and  C_8
REMARK    7  A    between atoms: C_8  and  C_9
REMARK    8  A    between atoms: C_10  and  C_11
REMARK    9  A    between atoms: C_11  and  C_12
REMARK   10  A    between atoms: C_13  and  C_14
REMARK   11  A    between atoms: C_14  and  C_15
REMARK   12  A    between atoms: C_16  and  C_17
REMARK   13  A    between atoms: C_17  and  C_18
REMARK   14  A    between atoms: C_18  and  C_19
REMARK   15  A    between atoms: C_19  and  N_20
REMARK   16  A    between atoms: C_21  and  C_23
REMARK   17  A    between atoms: C_23  and  C_24
REMARK   18  A    between atoms: C_24  and  O_25
REMARK                            x       y       z     vdW  Elec       q    Type
REMARK                         _______ _______ _______ _____ _____    ______ ____
ROOT
ATOM      1  C   UNL     1       2.438   5.214  20.513  0.00  0.00    +0.000 C 
ENDROOT
BRANCH   1   3
ATOM      2  C   UNL     1       2.643   2.762  21.000  0.00  0.00    +0.000 C 
ATOM      3  C   UNL     1       2.172   3.982  21.320  0.00  0.00    +0.000 C 
BRANCH   2   4
ATOM      4  C   UNL     1       3.553   2.379  19.853  0.00  0.00    +0.000 C 
BRANCH   4   6
ATOM      5  C   UNL     1       2.933   2.172  17.378  0.00  0.00    +0.000 C 
ATOM      6  C   UNL     1       2.892   1.743  18.653  0.00  0.00    +0.000 C 
BRANCH   5   7
ATOM      7  C   UNL     1       3.640   3.404  16.890  0.00  0.00    +0.000 C 
BRANCH   7   9
ATOM      8  C   UNL     1       5.979   3.604  15.975  0.00  0.00    +0.000 C 
ATOM      9  C   UNL     1       5.132   3.267  16.962  0.00  0.00    +0.000 C 
BRANCH   8  10
ATOM     10  C   UNL     1       5.559   4.125  14.628  0.00  0.00    +0.000 C 
BRANCH  10  11
ATOM     11  C   UNL     1       6.734   4.663  13.817  0.00  0.00    +0.000 C 
BRANCH  11  12
ATOM     12  C   UNL     1       6.732   4.048  12.416  0.00  0.00    +0.000 C 
BRANCH  12  14
ATOM     13  C   UNL     1       5.787   1.930  11.454  0.00  0.00    +0.000 C 
ATOM     14  C   UNL     1       5.468   3.231  12.172  0.00  0.00    +0.000 C 
ENDBRANCH  12  14
ENDBRANCH  11  12
ENDBRANCH  10  11
ENDBRANCH   8  10
ENDBRANCH   7   9
ENDBRANCH   5   7
ENDBRANCH   4   6
ENDBRANCH   2   4
ENDBRANCH   1   3
BRANCH   1  15
ATOM     15  C   UNL     1       1.811   5.205  19.152  0.00  0.00    +0.000 C 
ATOM     16  C   UNL     1       1.874   6.219  18.271  0.00  0.00    +0.000 C 
BRANCH  16  17
ATOM     17  C   UNL     1       2.493   7.564  18.550  0.00  0.00    +0.000 C 
BRANCH  17  18
ATOM     18  C   UNL     1       3.444   8.013  17.440  0.00  0.00    +0.000 C 
BRANCH  18  19
ATOM     19  C   UNL     1       4.256   6.819  16.945  0.00  0.00    +0.000 C 
BRANCH  19  20
ATOM     20  N   UNL     1       5.660   6.956  17.282  0.00  0.00    +0.000 N 
ATOM     21  C   UNL     1       6.187   6.313  18.373  0.00  0.00    +0.000 C 
ATOM     22  O   UNL     1       5.517   5.640  19.152  0.00  0.00    +0.000 OA
ATOM     23  H   UNL     1       6.277   7.381  16.602  0.00  0.00    +0.000 HD
BRANCH  21  24
ATOM     24  C   UNL     1       7.682   6.487  18.512  0.00  0.00    +0.000 C 
BRANCH  24  25
ATOM     25  C   UNL     1       8.293   5.323  19.275  0.00  0.00    +0.000 C 
BRANCH  25  26
ATOM     26  O   UNL     1       8.056   5.456  20.674  0.00  0.00    +0.000 OA
ATOM     27  H   UNL     1       8.878   5.825  21.050  0.00  0.00    +0.000 HD
ENDBRANCH  25  26
ENDBRANCH  24  25
ENDBRANCH  21  24
ENDBRANCH  19  20
ENDBRANCH  18  19
ENDBRANCH  17  18
ENDBRANCH  16  17
ENDBRANCH   1  15
TORSDOF 17
ENDMDL
