MODEL 1
REMARK VINA RESULT:      -6.9      0.000      0.000
REMARK  Name = 
REMARK  12 active torsions:
REMARK  status: ('A' for Active; 'I' for Inactive)
REMARK    1  A    between atoms: C_1  and  C_2
REMARK    2  A    between atoms: C_2  and  O_3
REMARK    3  A    between atoms: O_3  and  C_4
REMARK    4  A    between atoms: C_4  and  C_5
REMARK    5  A    between atoms: C_5  and  N_6
REMARK    6  A    between atoms: N_6  and  C_7
REMARK    7  A    between atoms: N_6  and  C_23
REMARK    8  A    between atoms: C_7  and  C_8
REMARK    9  A    between atoms: C_8  and  C_9
REMARK   10  A    between atoms: C_8  and  N_10
REMARK   11  A    between atoms: C_13  and  C_14
REMARK   12  A    between atoms: C_14  and  C_15
REMARK                            x       y       z     vdW  Elec       q    Type
REMARK                         _______ _______ _______ _____ _____    ______ ____
ROOT
ATOM      1  C   UNL     1       3.105   6.440  18.362  0.00  0.00    +0.000 C 
ATOM      2  C   UNL     1       1.870   5.648  17.887  0.00  0.00    +0.000 C 
ENDROOT
BRANCH   1   3
ATOM      3  N   UNL     1       2.686   7.833  18.768  0.00  0.00    +0.000 NA
ATOM      4  C   UNL     1       2.433   8.701  17.602  0.00  0.00    +0.000 C 
ATOM      5  C   UNL     1       2.004  10.116  18.014  0.00  0.00    +0.000 C 
ATOM      6  C   UNL     1       0.757  10.119  18.907  0.00  0.00    +0.000 C 
ATOM      7  C   UNL     1       1.052   9.217  20.107  0.00  0.00    +0.000 C 
ATOM      8  C   UNL     1       1.527   7.824  19.686  0.00  0.00    +0.000 C 
BRANCH   6   9
ATOM      9  C   UNL     1      -0.533   9.659  18.194  0.00  0.00    +0.000 C 
BRANCH   9  10
ATOM     10  C   UNL     1      -1.744  10.521  18.449  0.00  0.00    +0.000 A 
ATOM     11  C   UNL     1      -2.926  10.308  17.725  0.00  0.00    +0.000 A 
ATOM     12  C   UNL     1      -4.059  11.083  17.973  0.00  0.00    +0.000 A 
ATOM     13  C   UNL     1      -4.024  12.075  18.950  0.00  0.00    +0.000 A 
ATOM     14  C   UNL     1      -2.855  12.294  19.677  0.00  0.00    +0.000 A 
ATOM     15  C   UNL     1      -1.721  11.521  19.430  0.00  0.00    +0.000 A 
ENDBRANCH   9  10
ENDBRANCH   6   9
ENDBRANCH   1   3
BRANCH   1  16
ATOM     16  C   UNL     1       3.891   5.663  19.489  0.00  0.00    +0.000 C 
BRANCH  16  17
ATOM     17  N   UNL     1       4.744   4.554  18.988  0.00  0.00    +0.000 N 
BRANCH  17  18
ATOM     18  C   UNL     1       5.411   4.656  17.746  0.00  0.00    +0.000 A 
ATOM     19  C   UNL     1       5.006   3.919  16.613  0.00  0.00    +0.000 A 
ATOM     20  C   UNL     1       5.712   3.946  15.401  0.00  0.00    +0.000 A 
ATOM     21  C   UNL     1       6.861   4.709  15.280  0.00  0.00    +0.000 A 
ATOM     22  C   UNL     1       7.289   5.461  16.365  0.00  0.00    +0.000 A 
ATOM     23  C   UNL     1       6.562   5.440  17.565  0.00  0.00    +0.000 A 
ENDBRANCH  17  18
BRANCH  17  24
ATOM     24  C   UNL     1       4.704   3.213  19.628  0.00  0.00    +0.000 C 
BRANCH  24  25
ATOM     25  C   UNL     1       3.351   2.542  19.907  0.00  0.00    +0.000 C 
BRANCH  25  26
ATOM     26  O   UNL     1       3.067   2.406  21.305  0.00  0.00    +0.000 OA
BRANCH  26  28
ATOM     27  C   UNL     1       0.992   3.419  20.606  0.00  0.00    +0.000 C 
ATOM     28  C   UNL     1       2.035   3.312  21.701  0.00  0.00    +0.000 C 
ENDBRANCH  26  28
ENDBRANCH  25  26
ENDBRANCH  24  25
ENDBRANCH  17  24
ENDBRANCH  16  17
ENDBRANCH   1  16
TORSDOF 10
ENDMDL
MODEL 2
REMARK VINA RESULT:      -6.7      1.113      1.349
REMARK  Name = 
REMARK  12 active torsions:
REMARK  status: ('A' for Active; 'I' for Inactive)
REMARK    1  A    between atoms: C_1  and  C_2
REMARK    2  A    between atoms: C_2  and  O_3
REMARK    3  A    between atoms: O_3  and  C_4
REMARK    4  A    between atoms: C_4  and  C_5
REMARK    5  A    between atoms: C_5  and  N_6
REMARK    6  A    between atoms: N_6  and  C_7
REMARK    7  A    between atoms: N_6  and  C_23
REMARK    8  A    between atoms: C_7  and  C_8
REMARK    9  A    between atoms: C_8  and  C_9
REMARK   10  A    between atoms: C_8  and  N_10
REMARK   11  A    between atoms: C_13  and  C_14
REMARK   12  A    between atoms: C_14  and  C_15
REMARK                            x       y       z     vdW  Elec       q    Type
REMARK                         _______ _______ _______ _____ _____    ______ ____
ROOT
ATOM      1  C   UNL     1       2.192   6.442  19.558  0.00  0.00    +0.000 C 
ATOM      2  C   UNL     1       1.693   6.011  20.953  0.00  0.00    +0.000 C 
ENDROOT
BRANCH   1   3
ATOM      3  N   UNL     1       2.095   7.944  19.428  0.00  0.00    +0.000 NA
ATOM      4  C   UNL     1       1.990   8.376  18.022  0.00  0.00    +0.000 C 
ATOM      5  C   UNL     1       1.887   9.902  17.890  0.00  0.00    +0.000 C 
ATOM      6  C   UNL     1       0.704  10.485  18.671  0.00  0.00    +0.000 C 
ATOM      7  C   UNL     1       0.843  10.024  20.123  0.00  0.00    +0.000 C 
ATOM      8  C   UNL     1       0.995   8.505  20.241  0.00  0.00    +0.000 C 
BRANCH   6   9
ATOM      9  C   UNL     1      -0.680  10.087  18.113  0.00  0.00    +0.000 C 
BRANCH   9  10
ATOM     10  C   UNL     1      -1.827  10.948  18.579  0.00  0.00    +0.000 A 
ATOM     11  C   UNL     1      -3.093  10.815  17.990  0.00  0.00    +0.000 A 
ATOM     12  C   UNL     1      -4.166  11.589  18.433  0.00  0.00    +0.000 A 
ATOM     13  C   UNL     1      -3.986  12.499  19.473  0.00  0.00    +0.000 A 
ATOM     14  C   UNL     1      -2.732  12.637  20.067  0.00  0.00    +0.000 A 
ATOM     15  C   UNL     1      -1.659  11.865  19.624  0.00  0.00    +0.000 A 
ENDBRANCH   9  10
ENDBRANCH   6   9
ENDBRANCH   1   3
BRANCH   1  16
ATOM     16  C   UNL     1       3.634   5.873  19.259  0.00  0.00    +0.000 C 
BRANCH  16  17
ATOM     17  N   UNL     1       3.693   4.918  18.123  0.00  0.00    +0.000 N 
BRANCH  17  18
ATOM     18  C   UNL     1       4.875   4.769  17.361  0.00  0.00    +0.000 A 
ATOM     19  C   UNL     1       4.850   4.373  16.007  0.00  0.00    +0.000 A 
ATOM     20  C   UNL     1       6.019   4.139  15.266  0.00  0.00    +0.000 A 
ATOM     21  C   UNL     1       7.260   4.283  15.859  0.00  0.00    +0.000 A 
ATOM     22  C   UNL     1       7.333   4.685  17.186  0.00  0.00    +0.000 A 
ATOM     23  C   UNL     1       6.157   4.935  17.909  0.00  0.00    +0.000 A 
ENDBRANCH  17  18
BRANCH  17  24
ATOM     24  C   UNL     1       2.454   4.302  17.580  0.00  0.00    +0.000 C 
BRANCH  24  25
ATOM     25  C   UNL     1       2.039   2.896  18.038  0.00  0.00    +0.000 C 
BRANCH  25  26
ATOM     26  O   UNL     1       1.386   2.889  19.314  0.00  0.00    +0.000 OA
BRANCH  26  28
ATOM     27  C   UNL     1       1.604   2.533  21.690  0.00  0.00    +0.000 C 
ATOM     28  C   UNL     1       2.279   2.440  20.335  0.00  0.00    +0.000 C 
ENDBRANCH  26  28
ENDBRANCH  25  26
ENDBRANCH  24  25
ENDBRANCH  17  24
ENDBRANCH  16  17
ENDBRANCH   1  16
TORSDOF 10
ENDMDL
MODEL 3
REMARK VINA RESULT:      -6.7      0.948      1.670
REMARK  Name = 
REMARK  12 active torsions:
REMARK  status: ('A' for Active; 'I' for Inactive)
REMARK    1  A    between atoms: C_1  and  C_2
REMARK    2  A    between atoms: C_2  and  O_3
REMARK    3  A    between atoms: O_3  and  C_4
REMARK    4  A    between atoms: C_4  and  C_5
REMARK    5  A    between atoms: C_5  and  N_6
REMARK    6  A    between atoms: N_6  and  C_7
REMARK    7  A    between atoms: N_6  and  C_23
REMARK    8  A    between atoms: C_7  and  C_8
REMARK    9  A    between atoms: C_8  and  C_9
REMARK   10  A    between atoms: C_8  and  N_10
REMARK   11  A    between atoms: C_13  and  C_14
REMARK   12  A    between atoms: C_14  and  C_15
REMARK                            x       y       z     vdW  Elec       q    Type
REMARK                         _______ _______ _______ _____ _____    ______ ____
ROOT
ATOM      1  C   UNL     1       2.291   6.351  19.497  0.00  0.00    +0.000 C 
ATOM      2  C   UNL     1       1.715   5.895  20.853  0.00  0.00    +0.000 C 
ENDROOT
BRANCH   1   3
ATOM      3  N   UNL     1       2.185   7.853  19.383  0.00  0.00    +0.000 NA
ATOM      4  C   UNL     1       2.087   8.300  17.980  0.00  0.00    +0.000 C 
ATOM      5  C   UNL     1       1.976   9.827  17.864  0.00  0.00    +0.000 C 
ATOM      6  C   UNL     1       0.783  10.393  18.644  0.00  0.00    +0.000 C 
ATOM      7  C   UNL     1       0.915   9.918  20.092  0.00  0.00    +0.000 C 
ATOM      8  C   UNL     1       1.076   8.398  20.193  0.00  0.00    +0.000 C 
BRANCH   6   9
ATOM      9  C   UNL     1      -0.595   9.993  18.071  0.00  0.00    +0.000 C 
BRANCH   9  10
ATOM     10  C   UNL     1      -1.753  10.830  18.554  0.00  0.00    +0.000 A 
ATOM     11  C   UNL     1      -1.561  11.780  19.567  0.00  0.00    +0.000 A 
ATOM     12  C   UNL     1      -2.621  12.577  20.001  0.00  0.00    +0.000 A 
ATOM     13  C   UNL     1      -3.881  12.435  19.424  0.00  0.00    +0.000 A 
ATOM     14  C   UNL     1      -4.082  11.494  18.414  0.00  0.00    +0.000 A 
ATOM     15  C   UNL     1      -3.024  10.697  17.980  0.00  0.00    +0.000 A 
ENDBRANCH   9  10
ENDBRANCH   6   9
ENDBRANCH   1   3
BRANCH   1  16
ATOM     16  C   UNL     1       3.754   5.802  19.275  0.00  0.00    +0.000 C 
BRANCH  16  17
ATOM     17  N   UNL     1       3.865   4.756  18.227  0.00  0.00    +0.000 N 
BRANCH  17  18
ATOM     18  C   UNL     1       4.928   4.772  17.295  0.00  0.00    +0.000 A 
ATOM     19  C   UNL     1       6.039   5.630  17.437  0.00  0.00    +0.000 A 
ATOM     20  C   UNL     1       7.057   5.716  16.475  0.00  0.00    +0.000 A 
ATOM     21  C   UNL     1       6.995   4.949  15.325  0.00  0.00    +0.000 A 
ATOM     22  C   UNL     1       5.927   4.080  15.149  0.00  0.00    +0.000 A 
ATOM     23  C   UNL     1       4.927   3.990  16.128  0.00  0.00    +0.000 A 
ENDBRANCH  17  18
BRANCH  17  24
ATOM     24  C   UNL     1       2.733   3.834  17.947  0.00  0.00    +0.000 C 
BRANCH  24  25
ATOM     25  C   UNL     1       2.518   2.601  18.836  0.00  0.00    +0.000 C 
BRANCH  25  26
ATOM     26  O   UNL     1       3.577   2.393  19.779  0.00  0.00    +0.000 OA
BRANCH  26  28
ATOM     27  C   UNL     1       1.591   2.464  21.148  0.00  0.00    +0.000 C 
ATOM     28  C   UNL     1       3.104   2.566  21.117  0.00  0.00    +0.000 C 
ENDBRANCH  26  28
ENDBRANCH  25  26
ENDBRANCH  24  25
ENDBRANCH  17  24
ENDBRANCH  16  17
ENDBRANCH   1  16
TORSDOF 10
ENDMDL
MODEL 4
REMARK VINA RESULT:      -6.7      1.290      2.056
REMARK  Name = 
REMARK  12 active torsions:
REMARK  status: ('A' for Active; 'I' for Inactive)
REMARK    1  A    between atoms: C_1  and  C_2
REMARK    2  A    between atoms: C_2  and  O_3
REMARK    3  A    between atoms: O_3  and  C_4
REMARK    4  A    between atoms: C_4  and  C_5
REMARK    5  A    between atoms: C_5  and  N_6
REMARK    6  A    between atoms: N_6  and  C_7
REMARK    7  A    between atoms: N_6  and  C_23
REMARK    8  A    between atoms: C_7  and  C_8
REMARK    9  A    between atoms: C_8  and  C_9
REMARK   10  A    between atoms: C_8  and  N_10
REMARK   11  A    between atoms: C_13  and  C_14
REMARK   12  A    between atoms: C_14  and  C_15
REMARK                            x       y       z     vdW  Elec       q    Type
REMARK                         _______ _______ _______ _____ _____    ______ ____
ROOT
ATOM      1  C   UNL     1       2.230   6.696  19.402  0.00  0.00    +0.000 C 
ATOM      2  C   UNL     1       1.928   6.221  20.838  0.00  0.00    +0.000 C 
ENDROOT
BRANCH   1   3
ATOM      3  N   UNL     1       1.934   8.172  19.285  0.00  0.00    +0.000 NA
ATOM      4  C   UNL     1       1.231   8.502  18.031  0.00  0.00    +0.000 C 
ATOM      5  C   UNL     1       0.927  10.002  17.914  0.00  0.00    +0.000 C 
ATOM      6  C   UNL     1       0.102  10.532  19.093  0.00  0.00    +0.000 C 
ATOM      7  C   UNL     1       0.858  10.180  20.375  0.00  0.00    +0.000 C 
ATOM      8  C   UNL     1       1.201   8.690  20.459  0.00  0.00    +0.000 C 
BRANCH   6   9
ATOM      9  C   UNL     1      -1.341   9.984  19.153  0.00  0.00    +0.000 C 
BRANCH   9  10
ATOM     10  C   UNL     1      -2.202  10.325  17.963  0.00  0.00    +0.000 A 
ATOM     11  C   UNL     1      -3.230  11.271  18.085  0.00  0.00    +0.000 A 
ATOM     12  C   UNL     1      -4.015  11.612  16.982  0.00  0.00    +0.000 A 
ATOM     13  C   UNL     1      -3.776  11.014  15.747  0.00  0.00    +0.000 A 
ATOM     14  C   UNL     1      -2.754  10.075  15.614  0.00  0.00    +0.000 A 
ATOM     15  C   UNL     1      -1.970   9.732  16.715  0.00  0.00    +0.000 A 
ENDBRANCH   9  10
ENDBRANCH   6   9
ENDBRANCH   1   3
BRANCH   1  16
ATOM     16  C   UNL     1       3.695   6.307  18.961  0.00  0.00    +0.000 C 
BRANCH  16  17
ATOM     17  N   UNL     1       3.770   5.143  18.041  0.00  0.00    +0.000 N 
BRANCH  17  18
ATOM     18  C   UNL     1       4.877   4.970  17.179  0.00  0.00    +0.000 A 
ATOM     19  C   UNL     1       6.081   5.687  17.348  0.00  0.00    +0.000 A 
ATOM     20  C   UNL     1       7.154   5.587  16.449  0.00  0.00    +0.000 A 
ATOM     21  C   UNL     1       7.057   4.769  15.337  0.00  0.00    +0.000 A 
ATOM     22  C   UNL     1       5.897   4.033  15.139  0.00  0.00    +0.000 A 
ATOM     23  C   UNL     1       4.840   4.128  16.056  0.00  0.00    +0.000 A 
ENDBRANCH  17  18
BRANCH  17  24
ATOM     24  C   UNL     1       2.581   4.287  17.796  0.00  0.00    +0.000 C 
BRANCH  24  25
ATOM     25  C   UNL     1       2.326   3.064  18.689  0.00  0.00    +0.000 C 
BRANCH  25  26
ATOM     26  O   UNL     1       1.089   3.139  19.409  0.00  0.00    +0.000 OA
BRANCH  26  28
ATOM     27  C   UNL     1       2.751   2.626  21.081  0.00  0.00    +0.000 C 
ATOM     28  C   UNL     1       1.272   2.739  20.769  0.00  0.00    +0.000 C 
ENDBRANCH  26  28
ENDBRANCH  25  26
ENDBRANCH  24  25
ENDBRANCH  17  24
ENDBRANCH  16  17
ENDBRANCH   1  16
TORSDOF 10
ENDMDL
MODEL 5
REMARK VINA RESULT:      -6.6      1.175      1.279
REMARK  Name = 
REMARK  12 active torsions:
REMARK  status: ('A' for Active; 'I' for Inactive)
REMARK    1  A    between atoms: C_1  and  C_2
REMARK    2  A    between atoms: C_2  and  O_3
REMARK    3  A    between atoms: O_3  and  C_4
REMARK    4  A    between atoms: C_4  and  C_5
REMARK    5  A    between atoms: C_5  and  N_6
REMARK    6  A    between atoms: N_6  and  C_7
REMARK    7  A    between atoms: N_6  and  C_23
REMARK    8  A    between atoms: C_7  and  C_8
REMARK    9  A    between atoms: C_8  and  C_9
REMARK   10  A    between atoms: C_8  and  N_10
REMARK   11  A    between atoms: C_13  and  C_14
REMARK   12  A    between atoms: C_14  and  C_15
REMARK                            x       y       z     vdW  Elec       q    Type
REMARK                         _______ _______ _______ _____ _____    ______ ____
ROOT
ATOM      1  C   UNL     1       2.665   6.193  19.437  0.00  0.00    +0.000 C 
ATOM      2  C   UNL     1       1.912   5.603  20.646  0.00  0.00    +0.000 C 
ENDROOT
BRANCH   1   3
ATOM      3  N   UNL     1       2.398   7.677  19.350  0.00  0.00    +0.000 NA
ATOM      4  C   UNL     1       2.352   8.154  17.955  0.00  0.00    +0.000 C 
ATOM      5  C   UNL     1       2.076   9.662  17.866  0.00  0.00    +0.000 C 
ATOM      6  C   UNL     1       0.773  10.066  18.565  0.00  0.00    +0.000 C 
ATOM      7  C   UNL     1       0.852   9.563  20.007  0.00  0.00    +0.000 C 
ATOM      8  C   UNL     1       1.177   8.069  20.086  0.00  0.00    +0.000 C 
BRANCH   6   9
ATOM      9  C   UNL     1      -0.505   9.533  17.880  0.00  0.00    +0.000 C 
BRANCH   9  10
ATOM     10  C   UNL     1      -1.754  10.334  18.147  0.00  0.00    +0.000 A 
ATOM     11  C   UNL     1      -2.974   9.952  17.570  0.00  0.00    +0.000 A 
ATOM     12  C   UNL     1      -4.139  10.672  17.833  0.00  0.00    +0.000 A 
ATOM     13  C   UNL     1      -4.098  11.778  18.679  0.00  0.00    +0.000 A 
ATOM     14  C   UNL     1      -2.891  12.165  19.260  0.00  0.00    +0.000 A 
ATOM     15  C   UNL     1      -1.725  11.447  18.997  0.00  0.00    +0.000 A 
ENDBRANCH   9  10
ENDBRANCH   6   9
ENDBRANCH   1   3
BRANCH   1  16
ATOM     16  C   UNL     1       4.201   5.829  19.479  0.00  0.00    +0.000 C 
BRANCH  16  17
ATOM     17  N   UNL     1       4.577   4.659  18.645  0.00  0.00    +0.000 N 
BRANCH  17  18
ATOM     18  C   UNL     1       5.002   4.828  17.307  0.00  0.00    +0.000 A 
ATOM     19  C   UNL     1       5.756   3.847  16.629  0.00  0.00    +0.000 A 
ATOM     20  C   UNL     1       6.257   4.039  15.332  0.00  0.00    +0.000 A 
ATOM     21  C   UNL     1       6.026   5.230  14.666  0.00  0.00    +0.000 A 
ATOM     22  C   UNL     1       5.276   6.218  15.289  0.00  0.00    +0.000 A 
ATOM     23  C   UNL     1       4.766   6.005  16.578  0.00  0.00    +0.000 A 
ENDBRANCH  17  18
BRANCH  17  24
ATOM     24  C   UNL     1       4.260   3.276  19.086  0.00  0.00    +0.000 C 
BRANCH  24  25
ATOM     25  C   UNL     1       3.569   2.307  18.115  0.00  0.00    +0.000 C 
BRANCH  25  26
ATOM     26  O   UNL     1       2.615   1.451  18.756  0.00  0.00    +0.000 OA
BRANCH  26  28
ATOM     27  C   UNL     1       0.510   2.621  18.917  0.00  0.00    +0.000 C 
ATOM     28  C   UNL     1       1.777   2.201  19.638  0.00  0.00    +0.000 C 
ENDBRANCH  26  28
ENDBRANCH  25  26
ENDBRANCH  24  25
ENDBRANCH  17  24
ENDBRANCH  16  17
ENDBRANCH   1  16
TORSDOF 10
ENDMDL
MODEL 6
REMARK VINA RESULT:      -6.5      1.559      2.120
REMARK  Name = 
REMARK  12 active torsions:
REMARK  status: ('A' for Active; 'I' for Inactive)
REMARK    1  A    between atoms: C_1  and  C_2
REMARK    2  A    between atoms: C_2  and  O_3
REMARK    3  A    between atoms: O_3  and  C_4
REMARK    4  A    between atoms: C_4  and  C_5
REMARK    5  A    between atoms: C_5  and  N_6
REMARK    6  A    between atoms: N_6  and  C_7
REMARK    7  A    between atoms: N_6  and  C_23
REMARK    8  A    between atoms: C_7  and  C_8
REMARK    9  A    between atoms: C_8  and  C_9
REMARK   10  A    between atoms: C_8  and  N_10
REMARK   11  A    between atoms: C_13  and  C_14
REMARK   12  A    between atoms: C_14  and  C_15
REMARK                            x       y       z     vdW  Elec       q    Type
REMARK                         _______ _______ _______ _____ _____    ______ ____
ROOT
ATOM      1  C   UNL     1       2.251   5.872  19.591  0.00  0.00    +0.000 C 
ATOM      2  C   UNL     1       1.303   5.427  20.723  0.00  0.00    +0.000 C 
ENDROOT
BRANCH   1   3
ATOM      3  N   UNL     1       2.234   7.377  19.479  0.00  0.00    +0.000 NA
ATOM      4  C   UNL     1       2.293   7.833  18.077  0.00  0.00    +0.000 C 
ATOM      5  C   UNL     1       2.272   9.363  17.962  0.00  0.00    +0.000 C 
ATOM      6  C   UNL     1       1.041   9.989  18.629  0.00  0.00    +0.000 C 
ATOM      7  C   UNL     1       1.011   9.503  20.080  0.00  0.00    +0.000 C 
ATOM      8  C   UNL     1       1.083   7.977  20.185  0.00  0.00    +0.000 C 
BRANCH   6   9
ATOM      9  C   UNL     1      -0.295   9.662  17.926  0.00  0.00    +0.000 C 
BRANCH   9  10
ATOM     10  C   UNL     1      -1.456  10.537  18.326  0.00  0.00    +0.000 A 
ATOM     11  C   UNL     1      -2.737  10.284  17.814  0.00  0.00    +0.000 A 
ATOM     12  C   UNL     1      -3.823  11.071  18.200  0.00  0.00    +0.000 A 
ATOM     13  C   UNL     1      -3.640  12.115  19.104  0.00  0.00    +0.000 A 
ATOM     14  C   UNL     1      -2.371  12.373  19.621  0.00  0.00    +0.000 A 
ATOM     15  C   UNL     1      -1.285  11.588  19.236  0.00  0.00    +0.000 A 
ENDBRANCH   9  10
ENDBRANCH   6   9
ENDBRANCH   1   3
BRANCH   1  16
ATOM     16  C   UNL     1       3.698   5.267  19.778  0.00  0.00    +0.000 C 
BRANCH  16  17
ATOM     17  N   UNL     1       4.504   5.209  18.533  0.00  0.00    +0.000 N 
BRANCH  17  18
ATOM     18  C   UNL     1       5.709   5.939  18.412  0.00  0.00    +0.000 A 
ATOM     19  C   UNL     1       5.863   6.983  17.476  0.00  0.00    +0.000 A 
ATOM     20  C   UNL     1       7.080   7.658  17.289  0.00  0.00    +0.000 A 
ATOM     21  C   UNL     1       8.194   7.303  18.029  0.00  0.00    +0.000 A 
ATOM     22  C   UNL     1       8.084   6.291  18.973  0.00  0.00    +0.000 A 
ATOM     23  C   UNL     1       6.857   5.639  19.163  0.00  0.00    +0.000 A 
ENDBRANCH  17  18
BRANCH  17  24
ATOM     24  C   UNL     1       3.945   4.615  17.290  0.00  0.00    +0.000 C 
BRANCH  24  25
ATOM     25  C   UNL     1       4.247   3.151  16.942  0.00  0.00    +0.000 C 
BRANCH  25  26
ATOM     26  O   UNL     1       3.742   2.225  17.913  0.00  0.00    +0.000 OA
BRANCH  26  28
ATOM     27  C   UNL     1       1.742   2.065  19.252  0.00  0.00    +0.000 C 
ATOM     28  C   UNL     1       2.316   2.157  17.852  0.00  0.00    +0.000 C 
ENDBRANCH  26  28
ENDBRANCH  25  26
ENDBRANCH  24  25
ENDBRANCH  17  24
ENDBRANCH  16  17
ENDBRANCH   1  16
TORSDOF 10
ENDMDL
MODEL 7
REMARK VINA RESULT:      -6.5      1.978      3.841
REMARK  Name = 
REMARK  12 active torsions:
REMARK  status: ('A' for Active; 'I' for Inactive)
REMARK    1  A    between atoms: C_1  and  C_2
REMARK    2  A    between atoms: C_2  and  O_3
REMARK    3  A    between atoms: O_3  and  C_4
REMARK    4  A    between atoms: C_4  and  C_5
REMARK    5  A    between atoms: C_5  and  N_6
REMARK    6  A    between atoms: N_6  and  C_7
REMARK    7  A    between atoms: N_6  and  C_23
REMARK    8  A    between atoms: C_7  and  C_8
REMARK    9  A    between atoms: C_8  and  C_9
REMARK   10  A    between atoms: C_8  and  N_10
REMARK   11  A    between atoms: C_13  and  C_14
REMARK   12  A    between atoms: C_14  and  C_15
REMARK                            x       y       z     vdW  Elec       q    Type
REMARK                         _______ _______ _______ _____ _____    ______ ____
ROOT
ATOM      1  C   UNL     1       2.542   6.706  19.246  0.00  0.00    +0.000 C 
ATOM      2  C   UNL     1       1.828   5.997  20.416  0.00  0.00    +0.000 C 
ENDROOT
BRANCH   1   3
ATOM      3  N   UNL     1       2.123   8.156  19.202  0.00  0.00    +0.000 NA
ATOM      4  C   UNL     1       1.454   8.504  17.935  0.00  0.00    +0.000 C 
ATOM      5  C   UNL     1       1.024   9.977  17.891  0.00  0.00    +0.000 C 
ATOM      6  C   UNL     1       0.100  10.358  19.054  0.00  0.00    +0.000 C 
ATOM      7  C   UNL     1       0.823   9.990  20.351  0.00  0.00    +0.000 C 
ATOM      8  C   UNL     1       1.291   8.533  20.364  0.00  0.00    +0.000 C 
BRANCH   6   9
ATOM      9  C   UNL     1      -1.290   9.686  19.004  0.00  0.00    +0.000 C 
BRANCH   9  10
ATOM     10  C   UNL     1      -2.187  10.160  17.889  0.00  0.00    +0.000 A 
ATOM     11  C   UNL     1      -3.220  11.072  18.154  0.00  0.00    +0.000 A 
ATOM     12  C   UNL     1      -4.038  11.536  17.124  0.00  0.00    +0.000 A 
ATOM     13  C   UNL     1      -3.829  11.097  15.818  0.00  0.00    +0.000 A 
ATOM     14  C   UNL     1      -2.803  10.193  15.543  0.00  0.00    +0.000 A 
ATOM     15  C   UNL     1      -1.986   9.728  16.572  0.00  0.00    +0.000 A 
ENDBRANCH   9  10
ENDBRANCH   6   9
ENDBRANCH   1   3
BRANCH   1  16
ATOM     16  C   UNL     1       4.106   6.501  19.315  0.00  0.00    +0.000 C 
BRANCH  16  17
ATOM     17  N   UNL     1       4.632   5.479  18.374  0.00  0.00    +0.000 N 
BRANCH  17  18
ATOM     18  C   UNL     1       4.135   4.155  18.387  0.00  0.00    +0.000 A 
ATOM     19  C   UNL     1       4.489   3.230  19.391  0.00  0.00    +0.000 A 
ATOM     20  C   UNL     1       4.071   1.890  19.367  0.00  0.00    +0.000 A 
ATOM     21  C   UNL     1       3.286   1.424  18.326  0.00  0.00    +0.000 A 
ATOM     22  C   UNL     1       2.900   2.304  17.324  0.00  0.00    +0.000 A 
ATOM     23  C   UNL     1       3.310   3.645  17.372  0.00  0.00    +0.000 A 
ENDBRANCH  17  18
BRANCH  17  24
ATOM     24  C   UNL     1       5.872   5.729  17.593  0.00  0.00    +0.000 C 
BRANCH  24  25
ATOM     25  C   UNL     1       5.838   6.696  16.401  0.00  0.00    +0.000 C 
BRANCH  25  26
ATOM     26  O   UNL     1       5.563   6.044  15.154  0.00  0.00    +0.000 OA
BRANCH  26  28
ATOM     27  C   UNL     1       6.063   3.794  14.441  0.00  0.00    +0.000 C 
ATOM     28  C   UNL     1       6.625   5.155  14.804  0.00  0.00    +0.000 C 
ENDBRANCH  26  28
ENDBRANCH  25  26
ENDBRANCH  24  25
ENDBRANCH  17  24
ENDBRANCH  16  17
ENDBRANCH   1  16
TORSDOF 10
ENDMDL
MODEL 8
REMARK VINA RESULT:      -6.5      1.324      1.980
REMARK  Name = 
REMARK  12 active torsions:
REMARK  status: ('A' for Active; 'I' for Inactive)
REMARK    1  A    between atoms: C_1  and  C_2
REMARK    2  A    between atoms: C_2  and  O_3
REMARK    3  A    between atoms: O_3  and  C_4
REMARK    4  A    between atoms: C_4  and  C_5
REMARK    5  A    between atoms: C_5  and  N_6
REMARK    6  A    between atoms: N_6  and  C_7
REMARK    7  A    between atoms: N_6  and  C_23
REMARK    8  A    between atoms: C_7  and  C_8
REMARK    9  A    between atoms: C_8  and  C_9
REMARK   10  A    between atoms: C_8  and  N_10
REMARK   11  A    between atoms: C_13  and  C_14
REMARK   12  A    between atoms: C_14  and  C_15
REMARK                            x       y       z     vdW  Elec       q    Type
REMARK                         _______ _______ _______ _____ _____    ______ ____
ROOT
ATOM      1  C   UNL     1       2.236   7.063  19.280  0.00  0.00    +0.000 C 
ATOM      2  C   UNL     1       2.155   6.551  20.732  0.00  0.00    +0.000 C 
ENDROOT
BRANCH   1   3
ATOM      3  N   UNL     1       1.865   8.526  19.238  0.00  0.00    +0.000 NA
ATOM      4  C   UNL     1       1.147   8.884  18.001  0.00  0.00    +0.000 C 
ATOM      5  C   UNL     1       0.767  10.371  17.960  0.00  0.00    +0.000 C 
ATOM      6  C   UNL     1      -0.085  10.797  19.162  0.00  0.00    +0.000 C 
ATOM      7  C   UNL     1       0.688  10.418  20.426  0.00  0.00    +0.000 C 
ATOM      8  C   UNL     1       1.106   8.945  20.435  0.00  0.00    +0.000 C 
BRANCH   6   9
ATOM      9  C   UNL     1      -1.498  10.174  19.189  0.00  0.00    +0.000 C 
BRANCH   9  10
ATOM     10  C   UNL     1      -2.335  10.440  17.963  0.00  0.00    +0.000 A 
ATOM     11  C   UNL     1      -2.118   9.704  16.789  0.00  0.00    +0.000 A 
ATOM     12  C   UNL     1      -2.906   9.925  15.659  0.00  0.00    +0.000 A 
ATOM     13  C   UNL     1      -3.921  10.878  15.692  0.00  0.00    +0.000 A 
ATOM     14  C   UNL     1      -4.146  11.613  16.856  0.00  0.00    +0.000 A 
ATOM     15  C   UNL     1      -3.360  11.395  17.986  0.00  0.00    +0.000 A 
ENDBRANCH   9  10
ENDBRANCH   6   9
ENDBRANCH   1   3
BRANCH   1  16
ATOM     16  C   UNL     1       3.640   6.747  18.633  0.00  0.00    +0.000 C 
BRANCH  16  17
ATOM     17  N   UNL     1       3.722   5.426  17.958  0.00  0.00    +0.000 N 
BRANCH  17  18
ATOM     18  C   UNL     1       4.876   5.052  17.231  0.00  0.00    +0.000 A 
ATOM     19  C   UNL     1       6.092   4.729  17.867  0.00  0.00    +0.000 A 
ATOM     20  C   UNL     1       7.266   4.440  17.154  0.00  0.00    +0.000 A 
ATOM     21  C   UNL     1       7.267   4.475  15.770  0.00  0.00    +0.000 A 
ATOM     22  C   UNL     1       6.088   4.774  15.102  0.00  0.00    +0.000 A 
ATOM     23  C   UNL     1       4.918   5.041  15.827  0.00  0.00    +0.000 A 
ENDBRANCH  17  18
BRANCH  17  24
ATOM     24  C   UNL     1       2.512   4.580  17.790  0.00  0.00    +0.000 C 
BRANCH  24  25
ATOM     25  C   UNL     1       2.635   3.051  17.866  0.00  0.00    +0.000 C 
BRANCH  25  26
ATOM     26  O   UNL     1       2.577   2.547  19.206  0.00  0.00    +0.000 OA
BRANCH  26  28
ATOM     27  C   UNL     1       1.483   2.864  21.333  0.00  0.00    +0.000 C 
ATOM     28  C   UNL     1       1.337   2.894  19.824  0.00  0.00    +0.000 C 
ENDBRANCH  26  28
ENDBRANCH  25  26
ENDBRANCH  24  25
ENDBRANCH  17  24
ENDBRANCH  16  17
ENDBRANCH   1  16
TORSDOF 10
ENDMDL
MODEL 9
REMARK VINA RESULT:      -6.5      1.752      2.405
REMARK  Name = 
REMARK  12 active torsions:
REMARK  status: ('A' for Active; 'I' for Inactive)
REMARK    1  A    between atoms: C_1  and  C_2
REMARK    2  A    between atoms: C_2  and  O_3
REMARK    3  A    between atoms: O_3  and  C_4
REMARK    4  A    between atoms: C_4  and  C_5
REMARK    5  A    between atoms: C_5  and  N_6
REMARK    6  A    between atoms: N_6  and  C_7
REMARK    7  A    between atoms: N_6  and  C_23
REMARK    8  A    between atoms: C_7  and  C_8
REMARK    9  A    between atoms: C_8  and  C_9
REMARK   10  A    between atoms: C_8  and  N_10
REMARK   11  A    between atoms: C_13  and  C_14
REMARK   12  A    between atoms: C_14  and  C_15
REMARK                            x       y       z     vdW  Elec       q    Type
REMARK                         _______ _______ _______ _____ _____    ______ ____
ROOT
ATOM      1  C   UNL     1       2.371   5.877  19.209  0.00  0.00    +0.000 C 
ATOM      2  C   UNL     1       3.166   5.035  20.228  0.00  0.00    +0.000 C 
ENDROOT
BRANCH   1   3
ATOM      3  N   UNL     1       2.309   7.311  19.678  0.00  0.00    +0.000 NA
ATOM      4  C   UNL     1       1.787   8.216  18.636  0.00  0.00    +0.000 C 
ATOM      5  C   UNL     1       1.720   9.673  19.114  0.00  0.00    +0.000 C 
ATOM      6  C   UNL     1       0.871   9.842  20.380  0.00  0.00    +0.000 C 
ATOM      7  C   UNL     1       1.439   8.897  21.440  0.00  0.00    +0.000 C 
ATOM      8  C   UNL     1       1.549   7.455  20.937  0.00  0.00    +0.000 C 
BRANCH   6   9
ATOM      9  C   UNL     1      -0.635   9.573  20.173  0.00  0.00    +0.000 C 
BRANCH   9  10
ATOM     10  C   UNL     1      -1.252  10.278  18.991  0.00  0.00    +0.000 A 
ATOM     11  C   UNL     1      -1.088  11.662  18.833  0.00  0.00    +0.000 A 
ATOM     12  C   UNL     1      -1.632  12.319  17.729  0.00  0.00    +0.000 A 
ATOM     13  C   UNL     1      -2.342  11.599  16.770  0.00  0.00    +0.000 A 
ATOM     14  C   UNL     1      -2.509  10.222  16.917  0.00  0.00    +0.000 A 
ATOM     15  C   UNL     1      -1.966   9.565  18.020  0.00  0.00    +0.000 A 
ENDBRANCH   9  10
ENDBRANCH   6   9
ENDBRANCH   1   3
BRANCH   1  16
ATOM     16  C   UNL     1       2.948   5.713  17.749  0.00  0.00    +0.000 C 
BRANCH  16  17
ATOM     17  N   UNL     1       4.252   5.006  17.680  0.00  0.00    +0.000 N 
BRANCH  17  18
ATOM     18  C   UNL     1       5.462   5.689  17.942  0.00  0.00    +0.000 A 
ATOM     19  C   UNL     1       5.848   6.838  17.219  0.00  0.00    +0.000 A 
ATOM     20  C   UNL     1       7.085   7.472  17.412  0.00  0.00    +0.000 A 
ATOM     21  C   UNL     1       7.989   6.972  18.332  0.00  0.00    +0.000 A 
ATOM     22  C   UNL     1       7.645   5.852  19.076  0.00  0.00    +0.000 A 
ATOM     23  C   UNL     1       6.398   5.239  18.888  0.00  0.00    +0.000 A 
ENDBRANCH  17  18
BRANCH  17  24
ATOM     24  C   UNL     1       4.355   3.654  17.072  0.00  0.00    +0.000 C 
BRANCH  24  25
ATOM     25  C   UNL     1       3.920   2.421  17.877  0.00  0.00    +0.000 C 
BRANCH  25  26
ATOM     26  O   UNL     1       2.541   2.082  17.688  0.00  0.00    +0.000 OA
BRANCH  26  28
ATOM     27  C   UNL     1       0.547   2.633  18.931  0.00  0.00    +0.000 C 
ATOM     28  C   UNL     1       1.884   1.917  18.946  0.00  0.00    +0.000 C 
ENDBRANCH  26  28
ENDBRANCH  25  26
ENDBRANCH  24  25
ENDBRANCH  17  24
ENDBRANCH  16  17
ENDBRANCH   1  16
TORSDOF 10
ENDMDL
