MODEL 1
REMARK VINA RESULT:      -8.0      0.000      0.000
REMARK  Name = 
REMARK  3 active torsions:
REMARK  status: ('A' for Active; 'I' for Inactive)
REMARK    1  A    between atoms: C_8  and  O_9
REMARK    2  A    between atoms: O_9  and  C_10
REMARK    3  A    between atoms: C_15  and  O_16
REMARK                            x       y       z     vdW  Elec       q    Type
REMARK                         _______ _______ _______ _____ _____    ______ ____
ROOT
ATOM      1  C   UNL     1       0.931   9.948  18.596  0.00  0.00    +0.000 A 
ATOM      2  C   UNL     1      -0.046   9.566  17.762  0.00  0.00    +0.000 A 
ATOM      3  C   UNL     1      -1.320  10.265  17.741  0.00  0.00    +0.000 A 
ATOM      4  C   UNL     1      -2.348   9.929  16.856  0.00  0.00    +0.000 A 
ATOM      5  C   UNL     1      -3.584  10.583  16.936  0.00  0.00    +0.000 A 
ATOM      6  C   UNL     1      -3.788  11.557  17.913  0.00  0.00    +0.000 A 
ATOM      7  C   UNL     1      -2.774  11.907  18.792  0.00  0.00    +0.000 A 
ATOM      8  C   UNL     1      -1.545  11.264  18.683  0.00  0.00    +0.000 A 
ATOM      9  O   UNL     1      -0.518  11.691  19.539  0.00  0.00    +0.000 OA
ATOM     10  C   UNL     1       0.778  11.205  19.399  0.00  0.00    +0.000 A 
ATOM     11  O   UNL     1       1.722  11.772  19.937  0.00  0.00    +0.000 OA
ENDROOT
BRANCH   6  12
ATOM     12  O   UNL     1      -4.981  12.203  18.036  0.00  0.00    +0.000 OA
ATOM     13  H   UNL     1      -4.836  13.159  17.950  0.00  0.00    +0.000 HD
ENDBRANCH   6  12
BRANCH   1  14
ATOM     14  O   UNL     1       2.111   9.201  18.627  0.00  0.00    +0.000 OA
BRANCH  14  22
ATOM     15  O   UNL     1       2.255   2.205  17.355  0.00  0.00    +0.000 OA
ATOM     16  C   UNL     1       2.190   3.137  18.148  0.00  0.00    +0.000 A 
ATOM     17  C   UNL     1       1.892   2.893  19.572  0.00  0.00    +0.000 A 
ATOM     18  C   UNL     1       1.754   3.886  20.457  0.00  0.00    +0.000 A 
ATOM     19  C   UNL     1       1.886   5.263  20.011  0.00  0.00    +0.000 A 
ATOM     20  C   UNL     1       1.671   6.347  20.864  0.00  0.00    +0.000 A 
ATOM     21  C   UNL     1       1.763   7.654  20.370  0.00  0.00    +0.000 A 
ATOM     22  C   UNL     1       2.081   7.883  19.025  0.00  0.00    +0.000 A 
ATOM     23  C   UNL     1       2.373   6.804  18.190  0.00  0.00    +0.000 A 
ATOM     24  C   UNL     1       2.234   5.511  18.686  0.00  0.00    +0.000 A 
ATOM     25  O   UNL     1       2.415   4.453  17.772  0.00  0.00    +0.000 OA
ENDBRANCH  14  22
ENDBRANCH   1  14
TORSDOF 3
ENDMDL
MODEL 2
REMARK VINA RESULT:      -7.9      1.563      1.994
REMARK  Name = 
REMARK  3 active torsions:
REMARK  status: ('A' for Active; 'I' for Inactive)
REMARK    1  A    between atoms: C_8  and  O_9
REMARK    2  A    between atoms: O_9  and  C_10
REMARK    3  A    between atoms: C_15  and  O_16
REMARK                            x       y       z     vdW  Elec       q    Type
REMARK                         _______ _______ _______ _____ _____    ______ ____
ROOT
ATOM      1  C   UNL     1       0.219  10.349  19.230  0.00  0.00    +0.000 A 
ATOM      2  C   UNL     1      -0.314   9.924  18.076  0.00  0.00    +0.000 A 
ATOM      3  C   UNL     1      -1.642  10.352  17.670  0.00  0.00    +0.000 A 
ATOM      4  C   UNL     1      -2.216   9.972  16.454  0.00  0.00    +0.000 A 
ATOM      5  C   UNL     1      -3.532  10.347  16.153  0.00  0.00    +0.000 A 
ATOM      6  C   UNL     1      -4.269  11.087  17.076  0.00  0.00    +0.000 A 
ATOM      7  C   UNL     1      -3.709  11.480  18.283  0.00  0.00    +0.000 A 
ATOM      8  C   UNL     1      -2.393  11.119  18.557  0.00  0.00    +0.000 A 
ATOM      9  O   UNL     1      -1.832  11.592  19.753  0.00  0.00    +0.000 OA
ATOM     10  C   UNL     1      -0.484  11.401  20.035  0.00  0.00    +0.000 A 
ATOM     11  O   UNL     1       0.070  12.046  20.918  0.00  0.00    +0.000 OA
ENDROOT
BRANCH   6  12
ATOM     12  O   UNL     1      -5.557  11.455  16.829  0.00  0.00    +0.000 OA
ATOM     13  H   UNL     1      -6.084  10.661  16.641  0.00  0.00    +0.000 HD
ENDBRANCH   6  12
BRANCH   1  14
ATOM     14  O   UNL     1       1.470   9.854  19.608  0.00  0.00    +0.000 OA
BRANCH  14  22
ATOM     15  O   UNL     1       2.217   3.220  22.060  0.00  0.00    +0.000 OA
ATOM     16  C   UNL     1       2.251   4.016  21.128  0.00  0.00    +0.000 A 
ATOM     17  C   UNL     1       2.780   3.612  19.813  0.00  0.00    +0.000 A 
ATOM     18  C   UNL     1       2.890   4.465  18.790  0.00  0.00    +0.000 A 
ATOM     19  C   UNL     1       2.488   5.851  18.969  0.00  0.00    +0.000 A 
ATOM     20  C   UNL     1       2.653   6.811  17.970  0.00  0.00    +0.000 A 
ATOM     21  C   UNL     1       2.293   8.143  18.214  0.00  0.00    +0.000 A 
ATOM     22  C   UNL     1       1.757   8.516  19.453  0.00  0.00    +0.000 A 
ATOM     23  C   UNL     1       1.518   7.545  20.425  0.00  0.00    +0.000 A 
ATOM     24  C   UNL     1       1.921   6.235  20.182  0.00  0.00    +0.000 A 
ATOM     25  O   UNL     1       1.776   5.315  21.240  0.00  0.00    +0.000 OA
ENDBRANCH  14  22
ENDBRANCH   1  14
TORSDOF 3
ENDMDL
MODEL 3
REMARK VINA RESULT:      -7.9      1.430      7.459
REMARK  Name = 
REMARK  3 active torsions:
REMARK  status: ('A' for Active; 'I' for Inactive)
REMARK    1  A    between atoms: C_8  and  O_9
REMARK    2  A    between atoms: O_9  and  C_10
REMARK    3  A    between atoms: C_15  and  O_16
REMARK                            x       y       z     vdW  Elec       q    Type
REMARK                         _______ _______ _______ _____ _____    ______ ____
ROOT
ATOM      1  C   UNL     1       2.120   7.576  19.438  0.00  0.00    +0.000 A 
ATOM      2  C   UNL     1       1.744   6.654  20.335  0.00  0.00    +0.000 A 
ATOM      3  C   UNL     1       1.850   5.237  20.031  0.00  0.00    +0.000 A 
ATOM      4  C   UNL     1       1.513   4.243  20.953  0.00  0.00    +0.000 A 
ATOM      5  C   UNL     1       1.556   2.894  20.577  0.00  0.00    +0.000 A 
ATOM      6  C   UNL     1       1.921   2.551  19.275  0.00  0.00    +0.000 A 
ATOM      7  C   UNL     1       2.267   3.527  18.353  0.00  0.00    +0.000 A 
ATOM      8  C   UNL     1       2.241   4.860  18.750  0.00  0.00    +0.000 A 
ATOM      9  O   UNL     1       2.665   5.818  17.815  0.00  0.00    +0.000 OA
ATOM     10  C   UNL     1       2.809   7.153  18.175  0.00  0.00    +0.000 A 
ATOM     11  O   UNL     1       3.441   7.929  17.468  0.00  0.00    +0.000 OA
ENDROOT
BRANCH   6  12
ATOM     12  O   UNL     1       1.957   1.253  18.865  0.00  0.00    +0.000 OA
ATOM     13  H   UNL     1       2.865   0.918  18.950  0.00  0.00    +0.000 HD
ENDBRANCH   6  12
BRANCH   1  14
ATOM     14  O   UNL     1       1.935   8.926  19.752  0.00  0.00    +0.000 OA
BRANCH  14  22
ATOM     15  O   UNL     1      -3.195  10.907  15.242  0.00  0.00    +0.000 OA
ATOM     16  C   UNL     1      -2.737  10.875  16.379  0.00  0.00    +0.000 A 
ATOM     17  C   UNL     1      -3.355  11.662  17.461  0.00  0.00    +0.000 A 
ATOM     18  C   UNL     1      -2.851  11.702  18.699  0.00  0.00    +0.000 A 
ATOM     19  C   UNL     1      -1.640  10.957  19.001  0.00  0.00    +0.000 A 
ATOM     20  C   UNL     1      -1.016  11.022  20.247  0.00  0.00    +0.000 A 
ATOM     21  C   UNL     1       0.177  10.321  20.469  0.00  0.00    +0.000 A 
ATOM     22  C   UNL     1       0.743   9.545  19.449  0.00  0.00    +0.000 A 
ATOM     23  C   UNL     1       0.080   9.416  18.228  0.00  0.00    +0.000 A 
ATOM     24  C   UNL     1      -1.080  10.153  18.010  0.00  0.00    +0.000 A 
ATOM     25  O   UNL     1      -1.645  10.090  16.721  0.00  0.00    +0.000 OA
ENDBRANCH  14  22
ENDBRANCH   1  14
TORSDOF 3
ENDMDL
MODEL 4
REMARK VINA RESULT:      -7.9      2.754      7.609
REMARK  Name = 
REMARK  3 active torsions:
REMARK  status: ('A' for Active; 'I' for Inactive)
REMARK    1  A    between atoms: C_8  and  O_9
REMARK    2  A    between atoms: O_9  and  C_10
REMARK    3  A    between atoms: C_15  and  O_16
REMARK                            x       y       z     vdW  Elec       q    Type
REMARK                         _______ _______ _______ _____ _____    ______ ____
ROOT
ATOM      1  C   UNL     1       2.963   6.898  17.655  0.00  0.00    +0.000 A 
ATOM      2  C   UNL     1       2.094   5.974  18.088  0.00  0.00    +0.000 A 
ATOM      3  C   UNL     1       2.510   4.595  18.278  0.00  0.00    +0.000 A 
ATOM      4  C   UNL     1       1.650   3.611  18.773  0.00  0.00    +0.000 A 
ATOM      5  C   UNL     1       2.081   2.282  18.857  0.00  0.00    +0.000 A 
ATOM      6  C   UNL     1       3.366   1.943  18.431  0.00  0.00    +0.000 A 
ATOM      7  C   UNL     1       4.233   2.911  17.948  0.00  0.00    +0.000 A 
ATOM      8  C   UNL     1       3.797   4.231  17.893  0.00  0.00    +0.000 A 
ATOM      9  O   UNL     1       4.722   5.197  17.466  0.00  0.00    +0.000 OA
ATOM     10  C   UNL     1       4.415   6.552  17.519  0.00  0.00    +0.000 A 
ATOM     11  O   UNL     1       5.297   7.398  17.427  0.00  0.00    +0.000 OA
ENDROOT
BRANCH   6  12
ATOM     12  O   UNL     1       3.817   0.658  18.480  0.00  0.00    +0.000 OA
ATOM     13  H   UNL     1       3.914   0.321  17.574  0.00  0.00    +0.000 HD
ENDBRANCH   6  12
BRANCH   1  14
ATOM     14  O   UNL     1       2.496   8.195  17.422  0.00  0.00    +0.000 OA
BRANCH  14  22
ATOM     15  O   UNL     1       0.472   9.429  24.128  0.00  0.00    +0.000 OA
ATOM     16  C   UNL     1       0.370   9.665  22.929  0.00  0.00    +0.000 A 
ATOM     17  C   UNL     1      -0.717  10.521  22.421  0.00  0.00    +0.000 A 
ATOM     18  C   UNL     1      -0.898  10.754  21.117  0.00  0.00    +0.000 A 
ATOM     19  C   UNL     1      -0.005  10.137  20.150  0.00  0.00    +0.000 A 
ATOM     20  C   UNL     1      -0.189  10.271  18.773  0.00  0.00    +0.000 A 
ATOM     21  C   UNL     1       0.674   9.614  17.886  0.00  0.00    +0.000 A 
ATOM     22  C   UNL     1       1.728   8.830  18.372  0.00  0.00    +0.000 A 
ATOM     23  C   UNL     1       1.961   8.758  19.746  0.00  0.00    +0.000 A 
ATOM     24  C   UNL     1       1.069   9.381  20.614  0.00  0.00    +0.000 A 
ATOM     25  O   UNL     1       1.271   9.176  21.994  0.00  0.00    +0.000 OA
ENDBRANCH  14  22
ENDBRANCH   1  14
TORSDOF 3
ENDMDL
MODEL 5
REMARK VINA RESULT:      -7.8      1.019      1.092
REMARK  Name = 
REMARK  3 active torsions:
REMARK  status: ('A' for Active; 'I' for Inactive)
REMARK    1  A    between atoms: C_8  and  O_9
REMARK    2  A    between atoms: O_9  and  C_10
REMARK    3  A    between atoms: C_15  and  O_16
REMARK                            x       y       z     vdW  Elec       q    Type
REMARK                         _______ _______ _______ _____ _____    ______ ____
ROOT
ATOM      1  C   UNL     1       0.233  10.476  18.930  0.00  0.00    +0.000 A 
ATOM      2  C   UNL     1      -0.375  10.052  17.813  0.00  0.00    +0.000 A 
ATOM      3  C   UNL     1      -1.742  10.446  17.518  0.00  0.00    +0.000 A 
ATOM      4  C   UNL     1      -2.397  10.066  16.343  0.00  0.00    +0.000 A 
ATOM      5  C   UNL     1      -3.742  10.406  16.149  0.00  0.00    +0.000 A 
ATOM      6  C   UNL     1      -4.427  11.110  17.139  0.00  0.00    +0.000 A 
ATOM      7  C   UNL     1      -3.786  11.502  18.305  0.00  0.00    +0.000 A 
ATOM      8  C   UNL     1      -2.444  11.177  18.472  0.00  0.00    +0.000 A 
ATOM      9  O   UNL     1      -1.806  11.650  19.629  0.00  0.00    +0.000 OA
ATOM     10  C   UNL     1      -0.435  11.495  19.804  0.00  0.00    +0.000 A 
ATOM     11  O   UNL     1       0.166  12.144  20.652  0.00  0.00    +0.000 OA
ENDROOT
BRANCH   6  12
ATOM     12  O   UNL     1      -5.740  11.443  16.997  0.00  0.00    +0.000 OA
ATOM     13  H   UNL     1      -6.233  11.129  17.773  0.00  0.00    +0.000 HD
ENDBRANCH   6  12
BRANCH   1  14
ATOM     14  O   UNL     1       1.524  10.014  19.202  0.00  0.00    +0.000 OA
BRANCH  14  22
ATOM     15  O   UNL     1       3.354   3.480  17.072  0.00  0.00    +0.000 OA
ATOM     16  C   UNL     1       2.997   4.243  17.962  0.00  0.00    +0.000 A 
ATOM     17  C   UNL     1       2.604   3.725  19.285  0.00  0.00    +0.000 A 
ATOM     18  C   UNL     1       2.152   4.518  20.262  0.00  0.00    +0.000 A 
ATOM     19  C   UNL     1       2.024   5.946  20.021  0.00  0.00    +0.000 A 
ATOM     20  C   UNL     1       1.481   6.816  20.967  0.00  0.00    +0.000 A 
ATOM     21  C   UNL     1       1.336   8.176  20.664  0.00  0.00    +0.000 A 
ATOM     22  C   UNL     1       1.743   8.672  19.419  0.00  0.00    +0.000 A 
ATOM     23  C   UNL     1       2.357   7.819  18.501  0.00  0.00    +0.000 A 
ATOM     24  C   UNL     1       2.454   6.463  18.801  0.00  0.00    +0.000 A 
ATOM     25  O   UNL     1       2.966   5.620  17.794  0.00  0.00    +0.000 OA
ENDBRANCH  14  22
ENDBRANCH   1  14
TORSDOF 3
ENDMDL
MODEL 6
REMARK VINA RESULT:      -7.8      1.983      7.428
REMARK  Name = 
REMARK  3 active torsions:
REMARK  status: ('A' for Active; 'I' for Inactive)
REMARK    1  A    between atoms: C_8  and  O_9
REMARK    2  A    between atoms: O_9  and  C_10
REMARK    3  A    between atoms: C_15  and  O_16
REMARK                            x       y       z     vdW  Elec       q    Type
REMARK                         _______ _______ _______ _____ _____    ______ ____
ROOT
ATOM      1  C   UNL     1       1.508   8.745  19.565  0.00  0.00    +0.000 A 
ATOM      2  C   UNL     1       2.209   8.196  18.563  0.00  0.00    +0.000 A 
ATOM      3  C   UNL     1       2.701   6.832  18.661  0.00  0.00    +0.000 A 
ATOM      4  C   UNL     1       3.394   6.206  17.622  0.00  0.00    +0.000 A 
ATOM      5  C   UNL     1       3.916   4.919  17.804  0.00  0.00    +0.000 A 
ATOM      6  C   UNL     1       3.754   4.274  19.030  0.00  0.00    +0.000 A 
ATOM      7  C   UNL     1       3.060   4.880  20.066  0.00  0.00    +0.000 A 
ATOM      8  C   UNL     1       2.527   6.149  19.861  0.00  0.00    +0.000 A 
ATOM      9  O   UNL     1       1.769   6.704  20.903  0.00  0.00    +0.000 OA
ATOM     10  C   UNL     1       1.083   7.901  20.729  0.00  0.00    +0.000 A 
ATOM     11  O   UNL     1       0.204   8.241  21.513  0.00  0.00    +0.000 OA
ENDROOT
BRANCH   6  12
ATOM     12  O   UNL     1       4.263   3.030  19.253  0.00  0.00    +0.000 OA
ATOM     13  H   UNL     1       5.153   2.977  18.868  0.00  0.00    +0.000 HD
ENDBRANCH   6  12
BRANCH   1  14
ATOM     14  O   UNL     1       1.117  10.082  19.450  0.00  0.00    +0.000 OA
BRANCH  14  22
ATOM     15  O   UNL     1      -3.865  10.055  14.374  0.00  0.00    +0.000 OA
ATOM     16  C   UNL     1      -3.506  10.361  15.506  0.00  0.00    +0.000 A 
ATOM     17  C   UNL     1      -4.335  11.245  16.345  0.00  0.00    +0.000 A 
ATOM     18  C   UNL     1      -3.951  11.650  17.560  0.00  0.00    +0.000 A 
ATOM     19  C   UNL     1      -2.665  11.220  18.083  0.00  0.00    +0.000 A 
ATOM     20  C   UNL     1      -2.168  11.672  19.306  0.00  0.00    +0.000 A 
ATOM     21  C   UNL     1      -0.900  11.264  19.739  0.00  0.00    +0.000 A 
ATOM     22  C   UNL     1      -0.130  10.395  18.956  0.00  0.00    +0.000 A 
ATOM     23  C   UNL     1      -0.656   9.880  17.771  0.00  0.00    +0.000 A 
ATOM     24  C   UNL     1      -1.898  10.330  17.334  0.00  0.00    +0.000 A 
ATOM     25  O   UNL     1      -2.333   9.880  16.071  0.00  0.00    +0.000 OA
ENDBRANCH  14  22
ENDBRANCH   1  14
TORSDOF 3
ENDMDL
MODEL 7
REMARK VINA RESULT:      -7.7      2.671      3.646
REMARK  Name = 
REMARK  3 active torsions:
REMARK  status: ('A' for Active; 'I' for Inactive)
REMARK    1  A    between atoms: C_8  and  O_9
REMARK    2  A    between atoms: O_9  and  C_10
REMARK    3  A    between atoms: C_15  and  O_16
REMARK                            x       y       z     vdW  Elec       q    Type
REMARK                         _______ _______ _______ _____ _____    ______ ____
ROOT
ATOM      1  C   UNL     1       1.898   8.573  19.279  0.00  0.00    +0.000 A 
ATOM      2  C   UNL     1       1.652   8.369  20.580  0.00  0.00    +0.000 A 
ATOM      3  C   UNL     1       0.675   9.179  21.287  0.00  0.00    +0.000 A 
ATOM      4  C   UNL     1       0.355   8.969  22.631  0.00  0.00    +0.000 A 
ATOM      5  C   UNL     1      -0.533   9.833  23.283  0.00  0.00    +0.000 A 
ATOM      6  C   UNL     1      -1.083  10.912  22.590  0.00  0.00    +0.000 A 
ATOM      7  C   UNL     1      -0.782  11.126  21.254  0.00  0.00    +0.000 A 
ATOM      8  C   UNL     1       0.085  10.245  20.615  0.00  0.00    +0.000 A 
ATOM      9  O   UNL     1       0.313  10.447  19.245  0.00  0.00    +0.000 OA
ATOM     10  C   UNL     1       1.048   9.531  18.499  0.00  0.00    +0.000 A 
ATOM     11  O   UNL     1       1.009   9.545  17.274  0.00  0.00    +0.000 OA
ENDROOT
BRANCH   6  12
ATOM     12  O   UNL     1      -1.936  11.785  23.194  0.00  0.00    +0.000 OA
ATOM     13  H   UNL     1      -2.790  11.346  23.341  0.00  0.00    +0.000 HD
ENDBRANCH   6  12
BRANCH   1  14
ATOM     14  O   UNL     1       2.896   7.814  18.662  0.00  0.00    +0.000 OA
BRANCH  14  22
ATOM     15  O   UNL     1       5.247   1.319  20.357  0.00  0.00    +0.000 OA
ATOM     16  C   UNL     1       4.411   2.037  19.820  0.00  0.00    +0.000 A 
ATOM     17  C   UNL     1       3.352   1.456  18.974  0.00  0.00    +0.000 A 
ATOM     18  C   UNL     1       2.459   2.208  18.324  0.00  0.00    +0.000 A 
ATOM     19  C   UNL     1       2.529   3.656  18.433  0.00  0.00    +0.000 A 
ATOM     20  C   UNL     1       1.682   4.501  17.715  0.00  0.00    +0.000 A 
ATOM     21  C   UNL     1       1.826   5.891  17.822  0.00  0.00    +0.000 A 
ATOM     22  C   UNL     1       2.809   6.440  18.654  0.00  0.00    +0.000 A 
ATOM     23  C   UNL     1       3.606   5.599  19.432  0.00  0.00    +0.000 A 
ATOM     24  C   UNL     1       3.479   4.221  19.282  0.00  0.00    +0.000 A 
ATOM     25  O   UNL     1       4.390   3.414  19.993  0.00  0.00    +0.000 OA
ENDBRANCH  14  22
ENDBRANCH   1  14
TORSDOF 3
ENDMDL
MODEL 8
REMARK VINA RESULT:      -7.7      5.283      8.274
REMARK  Name = 
REMARK  3 active torsions:
REMARK  status: ('A' for Active; 'I' for Inactive)
REMARK    1  A    between atoms: C_8  and  O_9
REMARK    2  A    between atoms: O_9  and  C_10
REMARK    3  A    between atoms: C_15  and  O_16
REMARK                            x       y       z     vdW  Elec       q    Type
REMARK                         _______ _______ _______ _____ _____    ______ ____
ROOT
ATOM      1  C   UNL     1       5.670   6.001  16.491  0.00  0.00    +0.000 A 
ATOM      2  C   UNL     1       4.968   5.266  15.617  0.00  0.00    +0.000 A 
ATOM      3  C   UNL     1       5.621   4.642  14.479  0.00  0.00    +0.000 A 
ATOM      4  C   UNL     1       4.937   3.830  13.571  0.00  0.00    +0.000 A 
ATOM      5  C   UNL     1       5.599   3.322  12.447  0.00  0.00    +0.000 A 
ATOM      6  C   UNL     1       6.939   3.644  12.229  0.00  0.00    +0.000 A 
ATOM      7  C   UNL     1       7.633   4.442  13.127  0.00  0.00    +0.000 A 
ATOM      8  C   UNL     1       6.966   4.918  14.251  0.00  0.00    +0.000 A 
ATOM      9  O   UNL     1       7.715   5.662  15.176  0.00  0.00    +0.000 OA
ATOM     10  C   UNL     1       7.166   6.051  16.393  0.00  0.00    +0.000 A 
ATOM     11  O   UNL     1       7.881   6.439  17.309  0.00  0.00    +0.000 OA
ENDROOT
BRANCH   6  12
ATOM     12  O   UNL     1       7.613   3.187  11.138  0.00  0.00    +0.000 OA
ATOM     13  H   UNL     1       7.159   2.402  10.790  0.00  0.00    +0.000 HD
ENDBRANCH   6  12
BRANCH   1  14
ATOM     14  O   UNL     1       4.984   6.636  17.530  0.00  0.00    +0.000 OA
BRANCH  14  22
ATOM     15  O   UNL     1       2.795   1.851  22.314  0.00  0.00    +0.000 OA
ATOM     16  C   UNL     1       2.536   2.713  21.482  0.00  0.00    +0.000 A 
ATOM     17  C   UNL     1       1.147   2.947  21.049  0.00  0.00    +0.000 A 
ATOM     18  C   UNL     1       0.829   3.836  20.102  0.00  0.00    +0.000 A 
ATOM     19  C   UNL     1       1.885   4.600  19.457  0.00  0.00    +0.000 A 
ATOM     20  C   UNL     1       1.631   5.482  18.405  0.00  0.00    +0.000 A 
ATOM     21  C   UNL     1       2.693   6.155  17.787  0.00  0.00    +0.000 A 
ATOM     22  C   UNL     1       4.008   5.959  18.225  0.00  0.00    +0.000 A 
ATOM     23  C   UNL     1       4.256   5.138  19.326  0.00  0.00    +0.000 A 
ATOM     24  C   UNL     1       3.196   4.443  19.900  0.00  0.00    +0.000 A 
ATOM     25  O   UNL     1       3.511   3.530  20.927  0.00  0.00    +0.000 OA
ENDBRANCH  14  22
ENDBRANCH   1  14
TORSDOF 3
ENDMDL
MODEL 9
REMARK VINA RESULT:      -7.6      4.152      8.541
REMARK  Name = 
REMARK  3 active torsions:
REMARK  status: ('A' for Active; 'I' for Inactive)
REMARK    1  A    between atoms: C_8  and  O_9
REMARK    2  A    between atoms: O_9  and  C_10
REMARK    3  A    between atoms: C_15  and  O_16
REMARK                            x       y       z     vdW  Elec       q    Type
REMARK                         _______ _______ _______ _____ _____    ______ ____
ROOT
ATOM      1  C   UNL     1       5.460   4.245  17.561  0.00  0.00    +0.000 A 
ATOM      2  C   UNL     1       4.911   3.843  16.406  0.00  0.00    +0.000 A 
ATOM      3  C   UNL     1       5.626   3.999  15.151  0.00  0.00    +0.000 A 
ATOM      4  C   UNL     1       5.111   3.551  13.931  0.00  0.00    +0.000 A 
ATOM      5  C   UNL     1       5.806   3.802  12.742  0.00  0.00    +0.000 A 
ATOM      6  C   UNL     1       7.006   4.513  12.779  0.00  0.00    +0.000 A 
ATOM      7  C   UNL     1       7.534   4.954  13.983  0.00  0.00    +0.000 A 
ATOM      8  C   UNL     1       6.841   4.677  15.158  0.00  0.00    +0.000 A 
ATOM      9  O   UNL     1       7.437   5.074  16.365  0.00  0.00    +0.000 OA
ATOM     10  C   UNL     1       6.886   4.709  17.588  0.00  0.00    +0.000 A 
ATOM     11  O   UNL     1       7.539   4.799  18.622  0.00  0.00    +0.000 OA
ENDROOT
BRANCH   6  12
ATOM     12  O   UNL     1       7.703   4.793  11.643  0.00  0.00    +0.000 OA
ATOM     13  H   UNL     1       7.089   4.814  10.890  0.00  0.00    +0.000 HD
ENDBRANCH   6  12
BRANCH   1  14
ATOM     14  O   UNL     1       4.705   4.137  18.731  0.00  0.00    +0.000 OA
BRANCH  14  22
ATOM     15  O   UNL     1       1.871  10.618  17.993  0.00  0.00    +0.000 OA
ATOM     16  C   UNL     1       1.886   9.524  18.547  0.00  0.00    +0.000 A 
ATOM     17  C   UNL     1       1.052   9.272  19.735  0.00  0.00    +0.000 A 
ATOM     18  C   UNL     1       1.084   8.114  20.403  0.00  0.00    +0.000 A 
ATOM     19  C   UNL     1       1.981   7.059  19.960  0.00  0.00    +0.000 A 
ATOM     20  C   UNL     1       2.125   5.860  20.660  0.00  0.00    +0.000 A 
ATOM     21  C   UNL     1       3.041   4.897  20.215  0.00  0.00    +0.000 A 
ATOM     22  C   UNL     1       3.807   5.125  19.065  0.00  0.00    +0.000 A 
ATOM     23  C   UNL     1       3.609   6.289  18.321  0.00  0.00    +0.000 A 
ATOM     24  C   UNL     1       2.727   7.253  18.800  0.00  0.00    +0.000 A 
ATOM     25  O   UNL     1       2.653   8.465  18.084  0.00  0.00    +0.000 OA
ENDBRANCH  14  22
ENDBRANCH   1  14
TORSDOF 3
ENDMDL
