MODEL 1
REMARK VINA RESULT:      -6.8      0.000      0.000
REMARK  Name = 
REMARK  9 active torsions:
REMARK  status: ('A' for Active; 'I' for Inactive)
REMARK    1  A    between atoms: C_1  and  N_2
REMARK    2  A    between atoms: N_2  and  C_3
REMARK    3  A    between atoms: N_2  and  C_4
REMARK    4  A    between atoms: C_5  and  C_6
REMARK    5  A    between atoms: C_18  and  C_19
REMARK    6  A    between atoms: C_30  and  N_31
REMARK    7  A    between atoms: N_31  and  C_32
REMARK    8  A    between atoms: N_31  and  C_33
REMARK    9  A    between atoms: C_34  and  C_35
REMARK                            x       y       z     vdW  Elec       q    Type
REMARK                         _______ _______ _______ _____ _____    ______ ____
ROOT
ATOM      1  C   UNL     1      -0.447  14.259  21.587  0.00  0.00    +0.000 A 
ATOM      2  C   UNL     1      -0.967  12.985  21.259  0.00  0.00    +0.000 A 
ATOM      3  C   UNL     1      -2.171  12.549  21.834  0.00  0.00    +0.000 A 
ATOM      4  C   UNL     1      -2.901  13.314  22.768  0.00  0.00    +0.000 A 
ATOM      5  C   UNL     1      -2.413  14.564  23.234  0.00  0.00    +0.000 A 
ATOM      6  C   UNL     1      -1.236  15.035  22.529  0.00  0.00    +0.000 A 
ENDROOT
BRANCH   2   7
ATOM      7  C   UNL     1      -0.382  12.028  20.298  0.00  0.00    +0.000 C 
ATOM      8  C   UNL     1       0.188  10.857  20.621  0.00  0.00    +0.000 C 
ATOM      9  C   UNL     1       0.348  10.308  22.020  0.00  0.00    +0.000 C 
ATOM     10  O   UNL     1      -0.024  10.769  23.073  0.00  0.00    +0.000 OA
ATOM     11  N   UNL     1       1.024   9.108  21.844  0.00  0.00    +0.000 N 
ATOM     12  C   UNL     1       1.280   8.848  20.503  0.00  0.00    +0.000 A 
ATOM     13  C   UNL     1       1.907   7.729  19.994  0.00  0.00    +0.000 A 
ATOM     14  C   UNL     1       2.053   7.652  18.609  0.00  0.00    +0.000 A 
ATOM     15  C   UNL     1       1.585   8.688  17.780  0.00  0.00    +0.000 A 
ATOM     16  C   UNL     1       0.954   9.821  18.323  0.00  0.00    +0.000 A 
ATOM     17  C   UNL     1       0.798   9.885  19.698  0.00  0.00    +0.000 A 
ATOM     18  H   UNL     1       1.262   8.511  22.620  0.00  0.00    +0.000 HD
ENDBRANCH   2   7
BRANCH   4  19
ATOM     19  C   UNL     1      -4.204  12.708  23.090  0.00  0.00    +0.000 C 
ATOM     20  C   UNL     1      -5.364  13.011  22.482  0.00  0.00    +0.000 C 
ATOM     21  C   UNL     1      -6.655  12.488  23.056  0.00  0.00    +0.000 C 
ATOM     22  O   UNL     1      -6.794  11.659  23.934  0.00  0.00    +0.000 OA
ATOM     23  N   UNL     1      -7.649  13.207  22.414  0.00  0.00    +0.000 N 
ATOM     24  C   UNL     1      -7.117  14.082  21.472  0.00  0.00    +0.000 A 
ATOM     25  C   UNL     1      -7.823  14.965  20.681  0.00  0.00    +0.000 A 
ATOM     26  C   UNL     1      -7.092  15.763  19.799  0.00  0.00    +0.000 A 
ATOM     27  C   UNL     1      -5.694  15.636  19.712  0.00  0.00    +0.000 A 
ATOM     28  C   UNL     1      -4.998  14.732  20.525  0.00  0.00    +0.000 A 
ATOM     29  C   UNL     1      -5.719  13.974  21.430  0.00  0.00    +0.000 A 
ATOM     30  H   UNL     1      -8.628  13.101  22.634  0.00  0.00    +0.000 HD
ENDBRANCH   4  19
BRANCH   1  32
ATOM     31  C   UNL     1       0.779  15.300  19.646  0.00  0.00    +0.000 C 
ATOM     32  N   UNL     1       0.728  14.774  21.004  0.00  0.00    +0.000 N 
ATOM     33  C   UNL     1       2.034  14.554  21.633  0.00  0.00    +0.000 C 
ENDBRANCH   1  32
BRANCH   5  34
ATOM     34  N   UNL     1      -3.052  15.362  24.219  0.00  0.00    +0.000 N 
ATOM     35  C   UNL     1      -2.921  15.020  25.652  0.00  0.00    +0.000 C 
ATOM     36  C   UNL     1      -4.335  16.041  23.993  0.00  0.00    +0.000 C 
ENDBRANCH   5  34
BRANCH   6  37
ATOM     37  C   UNL     1      -0.991  16.456  22.556  0.00  0.00    +0.000 C 
ATOM     38  N   UNL     1      -0.787  17.599  22.577  0.00  0.00    +0.000 NA
ENDBRANCH   6  37
TORSDOF 5
ENDMDL
MODEL 2
REMARK VINA RESULT:      -6.8      2.159      2.552
REMARK  Name = 
REMARK  9 active torsions:
REMARK  status: ('A' for Active; 'I' for Inactive)
REMARK    1  A    between atoms: C_1  and  N_2
REMARK    2  A    between atoms: N_2  and  C_3
REMARK    3  A    between atoms: N_2  and  C_4
REMARK    4  A    between atoms: C_5  and  C_6
REMARK    5  A    between atoms: C_18  and  C_19
REMARK    6  A    between atoms: C_30  and  N_31
REMARK    7  A    between atoms: N_31  and  C_32
REMARK    8  A    between atoms: N_31  and  C_33
REMARK    9  A    between atoms: C_34  and  C_35
REMARK                            x       y       z     vdW  Elec       q    Type
REMARK                         _______ _______ _______ _____ _____    ______ ____
ROOT
ATOM      1  C   UNL     1      -0.715  14.037  21.214  0.00  0.00    +0.000 A 
ATOM      2  C   UNL     1      -1.162  12.713  21.428  0.00  0.00    +0.000 A 
ATOM      3  C   UNL     1      -2.494  12.473  21.801  0.00  0.00    +0.000 A 
ATOM      4  C   UNL     1      -3.434  13.505  22.009  0.00  0.00    +0.000 A 
ATOM      5  C   UNL     1      -3.057  14.871  21.912  0.00  0.00    +0.000 A 
ATOM      6  C   UNL     1      -1.713  15.075  21.407  0.00  0.00    +0.000 A 
ENDROOT
BRANCH   2   7
ATOM      7  C   UNL     1      -0.361  11.483  21.253  0.00  0.00    +0.000 C 
ATOM      8  C   UNL     1      -0.028  10.938  20.074  0.00  0.00    +0.000 C 
ATOM      9  C   UNL     1      -0.418  11.467  18.713  0.00  0.00    +0.000 C 
ATOM     10  O   UNL     1      -1.040  12.463  18.426  0.00  0.00    +0.000 OA
ATOM     11  N   UNL     1       0.119  10.551  17.819  0.00  0.00    +0.000 N 
ATOM     12  C   UNL     1       0.806   9.533  18.470  0.00  0.00    +0.000 A 
ATOM     13  C   UNL     1       1.476   8.486  17.869  0.00  0.00    +0.000 A 
ATOM     14  C   UNL     1       2.120   7.574  18.705  0.00  0.00    +0.000 A 
ATOM     15  C   UNL     1       2.069   7.724  20.103  0.00  0.00    +0.000 A 
ATOM     16  C   UNL     1       1.376   8.795  20.692  0.00  0.00    +0.000 A 
ATOM     17  C   UNL     1       0.750   9.707  19.857  0.00  0.00    +0.000 A 
ATOM     18  H   UNL     1       0.021  10.657  16.822  0.00  0.00    +0.000 HD
ENDBRANCH   2   7
BRANCH   4  19
ATOM     19  C   UNL     1      -4.794  12.986  22.229  0.00  0.00    +0.000 C 
ATOM     20  C   UNL     1      -5.553  12.394  21.289  0.00  0.00    +0.000 C 
ATOM     21  C   UNL     1      -7.004  12.114  21.584  0.00  0.00    +0.000 C 
ATOM     22  O   UNL     1      -7.573  12.199  22.654  0.00  0.00    +0.000 OA
ATOM     23  N   UNL     1      -7.564  11.804  20.356  0.00  0.00    +0.000 N 
ATOM     24  C   UNL     1      -6.610  11.816  19.344  0.00  0.00    +0.000 A 
ATOM     25  C   UNL     1      -6.834  11.582  18.002  0.00  0.00    +0.000 A 
ATOM     26  C   UNL     1      -5.733  11.647  17.146  0.00  0.00    +0.000 A 
ATOM     27  C   UNL     1      -4.447  11.909  17.655  0.00  0.00    +0.000 A 
ATOM     28  C   UNL     1      -4.244  12.143  19.021  0.00  0.00    +0.000 A 
ATOM     29  C   UNL     1      -5.343  12.123  19.861  0.00  0.00    +0.000 A 
ATOM     30  H   UNL     1      -8.548  11.615  20.237  0.00  0.00    +0.000 HD
ENDBRANCH   4  19
BRANCH   1  32
ATOM     31  C   UNL     1       1.684  14.633  21.709  0.00  0.00    +0.000 C 
ATOM     32  N   UNL     1       0.594  14.337  20.787  0.00  0.00    +0.000 N 
ATOM     33  C   UNL     1       0.872  14.642  19.380  0.00  0.00    +0.000 C 
ENDBRANCH   1  32
BRANCH   5  34
ATOM     34  N   UNL     1      -3.923  15.966  22.170  0.00  0.00    +0.000 N 
ATOM     35  C   UNL     1      -4.200  16.382  23.563  0.00  0.00    +0.000 C 
ATOM     36  C   UNL     1      -5.077  16.294  21.323  0.00  0.00    +0.000 C 
ENDBRANCH   5  34
BRANCH   6  37
ATOM     37  C   UNL     1      -1.437  16.353  20.798  0.00  0.00    +0.000 C 
ATOM     38  N   UNL     1      -1.213  17.379  20.302  0.00  0.00    +0.000 NA
ENDBRANCH   6  37
TORSDOF 5
ENDMDL
MODEL 3
REMARK VINA RESULT:      -6.8      3.081      6.539
REMARK  Name = 
REMARK  9 active torsions:
REMARK  status: ('A' for Active; 'I' for Inactive)
REMARK    1  A    between atoms: C_1  and  N_2
REMARK    2  A    between atoms: N_2  and  C_3
REMARK    3  A    between atoms: N_2  and  C_4
REMARK    4  A    between atoms: C_5  and  C_6
REMARK    5  A    between atoms: C_18  and  C_19
REMARK    6  A    between atoms: C_30  and  N_31
REMARK    7  A    between atoms: N_31  and  C_32
REMARK    8  A    between atoms: N_31  and  C_33
REMARK    9  A    between atoms: C_34  and  C_35
REMARK                            x       y       z     vdW  Elec       q    Type
REMARK                         _______ _______ _______ _____ _____    ______ ____
ROOT
ATOM      1  C   UNL     1      -0.953  11.631  18.897  0.00  0.00    +0.000 A 
ATOM      2  C   UNL     1       0.432  11.435  19.102  0.00  0.00    +0.000 A 
ATOM      3  C   UNL     1       1.152  12.318  19.923  0.00  0.00    +0.000 A 
ATOM      4  C   UNL     1       0.566  13.437  20.551  0.00  0.00    +0.000 A 
ATOM      5  C   UNL     1      -0.796  13.773  20.330  0.00  0.00    +0.000 A 
ATOM      6  C   UNL     1      -1.533  12.774  19.580  0.00  0.00    +0.000 A 
ENDROOT
BRANCH   2   7
ATOM      7  C   UNL     1       1.245  10.327  18.560  0.00  0.00    +0.000 C 
ATOM      8  C   UNL     1       1.497   9.171  19.193  0.00  0.00    +0.000 C 
ATOM      9  C   UNL     1       1.011   8.794  20.573  0.00  0.00    +0.000 C 
ATOM     10  O   UNL     1       0.298   9.409  21.330  0.00  0.00    +0.000 OA
ATOM     11  N   UNL     1       1.559   7.539  20.801  0.00  0.00    +0.000 N 
ATOM     12  C   UNL     1       2.308   7.095  19.718  0.00  0.00    +0.000 A 
ATOM     13  C   UNL     1       2.957   5.881  19.616  0.00  0.00    +0.000 A 
ATOM     14  C   UNL     1       3.644   5.619  18.431  0.00  0.00    +0.000 A 
ATOM     15  C   UNL     1       3.674   6.571  17.395  0.00  0.00    +0.000 A 
ATOM     16  C   UNL     1       3.010   7.803  17.524  0.00  0.00    +0.000 A 
ATOM     17  C   UNL     1       2.316   8.052  18.697  0.00  0.00    +0.000 A 
ATOM     18  H   UNL     1       1.392   7.030  21.655  0.00  0.00    +0.000 HD
ENDBRANCH   2   7
BRANCH   4  19
ATOM     19  C   UNL     1       1.491  14.102  21.484  0.00  0.00    +0.000 C 
ATOM     20  C   UNL     1       2.444  14.982  21.126  0.00  0.00    +0.000 C 
ATOM     21  C   UNL     1       3.465  15.416  22.145  0.00  0.00    +0.000 C 
ATOM     22  O   UNL     1       3.456  15.203  23.342  0.00  0.00    +0.000 OA
ATOM     23  N   UNL     1       4.453  16.052  21.412  0.00  0.00    +0.000 N 
ATOM     24  C   UNL     1       4.131  16.101  20.060  0.00  0.00    +0.000 A 
ATOM     25  C   UNL     1       4.906  16.635  19.050  0.00  0.00    +0.000 A 
ATOM     26  C   UNL     1       4.397  16.578  17.751  0.00  0.00    +0.000 A 
ATOM     27  C   UNL     1       3.128  16.023  17.505  0.00  0.00    +0.000 A 
ATOM     28  C   UNL     1       2.359  15.487  18.546  0.00  0.00    +0.000 A 
ATOM     29  C   UNL     1       2.883  15.504  19.826  0.00  0.00    +0.000 A 
ATOM     30  H   UNL     1       5.298  16.410  21.831  0.00  0.00    +0.000 HD
ENDBRANCH   4  19
BRANCH   1  32
ATOM     31  C   UNL     1      -2.267  11.094  16.813  0.00  0.00    +0.000 C 
ATOM     32  N   UNL     1      -1.739  10.750  18.128  0.00  0.00    +0.000 N 
ATOM     33  C   UNL     1      -2.305   9.536  18.724  0.00  0.00    +0.000 C 
ENDBRANCH   1  32
BRANCH   5  34
ATOM     34  N   UNL     1      -1.441  14.916  20.871  0.00  0.00    +0.000 N 
ATOM     35  C   UNL     1      -1.195  16.254  20.288  0.00  0.00    +0.000 C 
ATOM     36  C   UNL     1      -1.767  15.056  22.296  0.00  0.00    +0.000 C 
ENDBRANCH   5  34
BRANCH   6  37
ATOM     37  C   UNL     1      -2.965  12.762  19.753  0.00  0.00    +0.000 C 
ATOM     38  N   UNL     1      -4.119  12.752  19.885  0.00  0.00    +0.000 NA
ENDBRANCH   6  37
TORSDOF 5
ENDMDL
MODEL 4
REMARK VINA RESULT:      -6.7      0.894      1.063
REMARK  Name = 
REMARK  9 active torsions:
REMARK  status: ('A' for Active; 'I' for Inactive)
REMARK    1  A    between atoms: C_1  and  N_2
REMARK    2  A    between atoms: N_2  and  C_3
REMARK    3  A    between atoms: N_2  and  C_4
REMARK    4  A    between atoms: C_5  and  C_6
REMARK    5  A    between atoms: C_18  and  C_19
REMARK    6  A    between atoms: C_30  and  N_31
REMARK    7  A    between atoms: N_31  and  C_32
REMARK    8  A    between atoms: N_31  and  C_33
REMARK    9  A    between atoms: C_34  and  C_35
REMARK                            x       y       z     vdW  Elec       q    Type
REMARK                         _______ _______ _______ _____ _____    ______ ____
ROOT
ATOM      1  C   UNL     1       0.347  14.066  21.764  0.00  0.00    +0.000 A 
ATOM      2  C   UNL     1      -0.269  12.837  21.433  0.00  0.00    +0.000 A 
ATOM      3  C   UNL     1      -1.461  12.455  22.068  0.00  0.00    +0.000 A 
ATOM      4  C   UNL     1      -2.085  13.232  23.066  0.00  0.00    +0.000 A 
ATOM      5  C   UNL     1      -1.494  14.436  23.536  0.00  0.00    +0.000 A 
ATOM      6  C   UNL     1      -0.335  14.858  22.774  0.00  0.00    +0.000 A 
ENDROOT
BRANCH   2   7
ATOM      7  C   UNL     1       0.198  11.877  20.411  0.00  0.00    +0.000 C 
ATOM      8  C   UNL     1       0.641  10.636  20.660  0.00  0.00    +0.000 C 
ATOM      9  C   UNL     1       0.758   9.995  22.024  0.00  0.00    +0.000 C 
ATOM     10  O   UNL     1       0.451  10.435  23.107  0.00  0.00    +0.000 OA
ATOM     11  N   UNL     1       1.298   8.742  21.772  0.00  0.00    +0.000 N 
ATOM     12  C   UNL     1       1.509   8.531  20.415  0.00  0.00    +0.000 A 
ATOM     13  C   UNL     1       2.005   7.381  19.834  0.00  0.00    +0.000 A 
ATOM     14  C   UNL     1       2.125   7.366  18.444  0.00  0.00    +0.000 A 
ATOM     15  C   UNL     1       1.761   8.491  17.682  0.00  0.00    +0.000 A 
ATOM     16  C   UNL     1       1.263   9.653  18.296  0.00  0.00    +0.000 A 
ATOM     17  C   UNL     1       1.132   9.657  19.675  0.00  0.00    +0.000 A 
ATOM     18  H   UNL     1       1.480   8.081  22.510  0.00  0.00    +0.000 HD
ENDBRANCH   2   7
BRANCH   4  19
ATOM     19  C   UNL     1      -3.401  12.695  23.452  0.00  0.00    +0.000 C 
ATOM     20  C   UNL     1      -4.579  13.118  22.957  0.00  0.00    +0.000 C 
ATOM     21  C   UNL     1      -5.858  12.645  23.596  0.00  0.00    +0.000 C 
ATOM     22  O   UNL     1      -5.991  11.768  24.428  0.00  0.00    +0.000 OA
ATOM     23  N   UNL     1      -6.842  13.472  23.082  0.00  0.00    +0.000 N 
ATOM     24  C   UNL     1      -6.318  14.372  22.159  0.00  0.00    +0.000 A 
ATOM     25  C   UNL     1      -7.015  15.354  21.483  0.00  0.00    +0.000 A 
ATOM     26  C   UNL     1      -6.295  16.159  20.599  0.00  0.00    +0.000 A 
ATOM     27  C   UNL     1      -4.920  15.943  20.394  0.00  0.00    +0.000 A 
ATOM     28  C   UNL     1      -4.234  14.940  21.091  0.00  0.00    +0.000 A 
ATOM     29  C   UNL     1      -4.939  14.172  22.000  0.00  0.00    +0.000 A 
ATOM     30  H   UNL     1      -7.807  13.418  23.371  0.00  0.00    +0.000 HD
ENDBRANCH   4  19
BRANCH   1  32
ATOM     31  C   UNL     1       1.505  15.169  19.815  0.00  0.00    +0.000 C 
ATOM     32  N   UNL     1       1.515  14.528  21.124  0.00  0.00    +0.000 N 
ATOM     33  C   UNL     1       2.841  14.141  21.616  0.00  0.00    +0.000 C 
ENDBRANCH   1  32
BRANCH   5  34
ATOM     34  N   UNL     1      -2.024  15.238  24.581  0.00  0.00    +0.000 N 
ATOM     35  C   UNL     1      -2.934  16.362  24.267  0.00  0.00    +0.000 C 
ATOM     36  C   UNL     1      -1.287  15.536  25.816  0.00  0.00    +0.000 C 
ENDBRANCH   5  34
BRANCH   6  37
ATOM     37  C   UNL     1      -0.002  16.260  22.825  0.00  0.00    +0.000 C 
ATOM     38  N   UNL     1       0.270  17.388  22.872  0.00  0.00    +0.000 NA
ENDBRANCH   6  37
TORSDOF 5
ENDMDL
MODEL 5
REMARK VINA RESULT:      -6.7      2.145      2.500
REMARK  Name = 
REMARK  9 active torsions:
REMARK  status: ('A' for Active; 'I' for Inactive)
REMARK    1  A    between atoms: C_1  and  N_2
REMARK    2  A    between atoms: N_2  and  C_3
REMARK    3  A    between atoms: N_2  and  C_4
REMARK    4  A    between atoms: C_5  and  C_6
REMARK    5  A    between atoms: C_18  and  C_19
REMARK    6  A    between atoms: C_30  and  N_31
REMARK    7  A    between atoms: N_31  and  C_32
REMARK    8  A    between atoms: N_31  and  C_33
REMARK    9  A    between atoms: C_34  and  C_35
REMARK                            x       y       z     vdW  Elec       q    Type
REMARK                         _______ _______ _______ _____ _____    ______ ____
ROOT
ATOM      1  C   UNL     1       0.566  13.676  20.461  0.00  0.00    +0.000 A 
ATOM      2  C   UNL     1      -0.086  12.439  20.250  0.00  0.00    +0.000 A 
ATOM      3  C   UNL     1      -1.401  12.252  20.705  0.00  0.00    +0.000 A 
ATOM      4  C   UNL     1      -2.122  13.242  21.405  0.00  0.00    +0.000 A 
ATOM      5  C   UNL     1      -1.522  14.482  21.749  0.00  0.00    +0.000 A 
ATOM      6  C   UNL     1      -0.213  14.685  21.158  0.00  0.00    +0.000 A 
ENDROOT
BRANCH   2   7
ATOM      7  C   UNL     1       0.469  11.274  19.531  0.00  0.00    +0.000 C 
ATOM      8  C   UNL     1       0.875  10.132  20.105  0.00  0.00    +0.000 C 
ATOM      9  C   UNL     1       0.854   9.829  21.586  0.00  0.00    +0.000 C 
ATOM     10  O   UNL     1       0.447  10.505  22.501  0.00  0.00    +0.000 OA
ATOM     11  N   UNL     1       1.405   8.560  21.687  0.00  0.00    +0.000 N 
ATOM     12  C   UNL     1       1.744   8.040  20.443  0.00  0.00    +0.000 A 
ATOM     13  C   UNL     1       2.284   6.794  20.198  0.00  0.00    +0.000 A 
ATOM     14  C   UNL     1       2.539   6.456  18.869  0.00  0.00    +0.000 A 
ATOM     15  C   UNL     1       2.260   7.367  17.833  0.00  0.00    +0.000 A 
ATOM     16  C   UNL     1       1.715   8.632  18.108  0.00  0.00    +0.000 A 
ATOM     17  C   UNL     1       1.451   8.957  19.428  0.00  0.00    +0.000 A 
ATOM     18  H   UNL     1       1.508   8.091  22.573  0.00  0.00    +0.000 HD
ENDBRANCH   2   7
BRANCH   4  19
ATOM     19  C   UNL     1      -3.528  12.860  21.623  0.00  0.00    +0.000 C 
ATOM     20  C   UNL     1      -4.324  12.297  20.696  0.00  0.00    +0.000 C 
ATOM     21  C   UNL     1      -5.798  12.164  20.976  0.00  0.00    +0.000 C 
ATOM     22  O   UNL     1      -6.373  12.349  22.031  0.00  0.00    +0.000 OA
ATOM     23  N   UNL     1      -6.367  11.849  19.754  0.00  0.00    +0.000 N 
ATOM     24  C   UNL     1      -5.401  11.727  18.760  0.00  0.00    +0.000 A 
ATOM     25  C   UNL     1      -5.627  11.453  17.426  0.00  0.00    +0.000 A 
ATOM     26  C   UNL     1      -4.512  11.378  16.588  0.00  0.00    +0.000 A 
ATOM     27  C   UNL     1      -3.215  11.546  17.108  0.00  0.00    +0.000 A 
ATOM     28  C   UNL     1      -3.011  11.823  18.466  0.00  0.00    +0.000 A 
ATOM     29  C   UNL     1      -4.119  11.941  19.286  0.00  0.00    +0.000 A 
ATOM     30  H   UNL     1      -7.362  11.745  19.625  0.00  0.00    +0.000 HD
ENDBRANCH   4  19
BRANCH   1  32
ATOM     31  C   UNL     1       2.166  14.158  18.573  0.00  0.00    +0.000 C 
ATOM     32  N   UNL     1       1.865  13.942  19.982  0.00  0.00    +0.000 N 
ATOM     33  C   UNL     1       3.035  13.741  20.843  0.00  0.00    +0.000 C 
ENDBRANCH   1  32
BRANCH   5  34
ATOM     34  N   UNL     1      -2.156  15.501  22.507  0.00  0.00    +0.000 N 
ATOM     35  C   UNL     1      -2.277  15.369  23.976  0.00  0.00    +0.000 C 
ATOM     36  C   UNL     1      -3.273  16.306  21.995  0.00  0.00    +0.000 C 
ENDBRANCH   5  34
BRANCH   6  37
ATOM     37  C   UNL     1       0.227  16.051  21.014  0.00  0.00    +0.000 C 
ATOM     38  N   UNL     1       0.583  17.151  20.904  0.00  0.00    +0.000 NA
ENDBRANCH   6  37
TORSDOF 5
ENDMDL
MODEL 6
REMARK VINA RESULT:      -6.7      1.539      1.564
REMARK  Name = 
REMARK  9 active torsions:
REMARK  status: ('A' for Active; 'I' for Inactive)
REMARK    1  A    between atoms: C_1  and  N_2
REMARK    2  A    between atoms: N_2  and  C_3
REMARK    3  A    between atoms: N_2  and  C_4
REMARK    4  A    between atoms: C_5  and  C_6
REMARK    5  A    between atoms: C_18  and  C_19
REMARK    6  A    between atoms: C_30  and  N_31
REMARK    7  A    between atoms: N_31  and  C_32
REMARK    8  A    between atoms: N_31  and  C_33
REMARK    9  A    between atoms: C_34  and  C_35
REMARK                            x       y       z     vdW  Elec       q    Type
REMARK                         _______ _______ _______ _____ _____    ______ ____
ROOT
ATOM      1  C   UNL     1      -1.110  14.368  21.030  0.00  0.00    +0.000 A 
ATOM      2  C   UNL     1      -1.534  13.033  20.839  0.00  0.00    +0.000 A 
ATOM      3  C   UNL     1      -2.740  12.591  21.405  0.00  0.00    +0.000 A 
ATOM      4  C   UNL     1      -3.565  13.415  22.200  0.00  0.00    +0.000 A 
ATOM      5  C   UNL     1      -3.179  14.741  22.529  0.00  0.00    +0.000 A 
ATOM      6  C   UNL     1      -1.995  15.199  21.828  0.00  0.00    +0.000 A 
ENDROOT
BRANCH   2   7
ATOM      7  C   UNL     1      -0.841  12.005  20.034  0.00  0.00    +0.000 C 
ATOM      8  C   UNL     1      -0.165  10.959  20.531  0.00  0.00    +0.000 C 
ATOM      9  C   UNL     1       0.024  10.643  21.997  0.00  0.00    +0.000 C 
ATOM     10  O   UNL     1      -0.411  11.217  22.968  0.00  0.00    +0.000 OA
ATOM     11  N   UNL     1       0.817   9.504  22.005  0.00  0.00    +0.000 N 
ATOM     12  C   UNL     1       1.122   9.074  20.719  0.00  0.00    +0.000 A 
ATOM     13  C   UNL     1       1.865   7.960  20.385  0.00  0.00    +0.000 A 
ATOM     14  C   UNL     1       2.043   7.692  19.028  0.00  0.00    +0.000 A 
ATOM     15  C   UNL     1       1.489   8.541  18.052  0.00  0.00    +0.000 A 
ATOM     16  C   UNL     1       0.741   9.673  18.417  0.00  0.00    +0.000 A 
ATOM     17  C   UNL     1       0.554   9.926  19.766  0.00  0.00    +0.000 A 
ATOM     18  H   UNL     1       1.099   9.056  22.863  0.00  0.00    +0.000 HD
ENDBRANCH   2   7
BRANCH   4  19
ATOM     19  C   UNL     1      -4.846  12.768  22.532  0.00  0.00    +0.000 C 
ATOM     20  C   UNL     1      -5.731  12.306  21.630  0.00  0.00    +0.000 C 
ATOM     21  C   UNL     1      -7.097  11.873  22.095  0.00  0.00    +0.000 C 
ATOM     22  O   UNL     1      -7.477  11.719  23.239  0.00  0.00    +0.000 OA
ATOM     23  N   UNL     1      -7.847  11.753  20.937  0.00  0.00    +0.000 N 
ATOM     24  C   UNL     1      -7.081  12.018  19.806  0.00  0.00    +0.000 A 
ATOM     25  C   UNL     1      -7.522  12.019  18.498  0.00  0.00    +0.000 A 
ATOM     26  C   UNL     1      -6.588  12.317  17.505  0.00  0.00    +0.000 A 
ATOM     27  C   UNL     1      -5.246  12.574  17.841  0.00  0.00    +0.000 A 
ATOM     28  C   UNL     1      -4.821  12.568  19.176  0.00  0.00    +0.000 A 
ATOM     29  C   UNL     1      -5.757  12.315  20.162  0.00  0.00    +0.000 A 
ATOM     30  H   UNL     1      -8.828  11.519  20.944  0.00  0.00    +0.000 HD
ENDBRANCH   4  19
BRANCH   1  32
ATOM     31  C   UNL     1       0.140  15.305  19.051  0.00  0.00    +0.000 C 
ATOM     32  N   UNL     1       0.064  14.884  20.444  0.00  0.00    +0.000 N 
ATOM     33  C   UNL     1       1.356  14.768  21.129  0.00  0.00    +0.000 C 
ENDBRANCH   1  32
BRANCH   5  34
ATOM     34  N   UNL     1      -3.919  15.609  23.374  0.00  0.00    +0.000 N 
ATOM     35  C   UNL     1      -3.769  15.521  24.844  0.00  0.00    +0.000 C 
ATOM     36  C   UNL     1      -5.268  16.091  23.048  0.00  0.00    +0.000 C 
ENDBRANCH   5  34
BRANCH   6  37
ATOM     37  C   UNL     1      -1.836  16.626  21.689  0.00  0.00    +0.000 C 
ATOM     38  N   UNL     1      -1.707  17.775  21.584  0.00  0.00    +0.000 NA
ENDBRANCH   6  37
TORSDOF 5
ENDMDL
MODEL 7
REMARK VINA RESULT:      -6.6      1.884      2.944
REMARK  Name = 
REMARK  9 active torsions:
REMARK  status: ('A' for Active; 'I' for Inactive)
REMARK    1  A    between atoms: C_1  and  N_2
REMARK    2  A    between atoms: N_2  and  C_3
REMARK    3  A    between atoms: N_2  and  C_4
REMARK    4  A    between atoms: C_5  and  C_6
REMARK    5  A    between atoms: C_18  and  C_19
REMARK    6  A    between atoms: C_30  and  N_31
REMARK    7  A    between atoms: N_31  and  C_32
REMARK    8  A    between atoms: N_31  and  C_33
REMARK    9  A    between atoms: C_34  and  C_35
REMARK                            x       y       z     vdW  Elec       q    Type
REMARK                         _______ _______ _______ _____ _____    ______ ____
ROOT
ATOM      1  C   UNL     1       0.590  13.655  19.765  0.00  0.00    +0.000 A 
ATOM      2  C   UNL     1      -0.101  12.454  19.484  0.00  0.00    +0.000 A 
ATOM      3  C   UNL     1      -1.496  12.397  19.628  0.00  0.00    +0.000 A 
ATOM      4  C   UNL     1      -2.270  13.488  20.075  0.00  0.00    +0.000 A 
ATOM      5  C   UNL     1      -1.659  14.707  20.473  0.00  0.00    +0.000 A 
ATOM      6  C   UNL     1      -0.237  14.769  20.195  0.00  0.00    +0.000 A 
ENDROOT
BRANCH   2   7
ATOM      7  C   UNL     1       0.500  11.197  18.990  0.00  0.00    +0.000 C 
ATOM      8  C   UNL     1       0.846  10.152  19.755  0.00  0.00    +0.000 C 
ATOM      9  C   UNL     1       0.697  10.066  21.257  0.00  0.00    +0.000 C 
ATOM     10  O   UNL     1       0.221  10.867  22.027  0.00  0.00    +0.000 OA
ATOM     11  N   UNL     1       1.225   8.826  21.586  0.00  0.00    +0.000 N 
ATOM     12  C   UNL     1       1.662   8.133  20.463  0.00  0.00    +0.000 A 
ATOM     13  C   UNL     1       2.208   6.865  20.447  0.00  0.00    +0.000 A 
ATOM     14  C   UNL     1       2.570   6.340  19.207  0.00  0.00    +0.000 A 
ATOM     15  C   UNL     1       2.388   7.090  18.030  0.00  0.00    +0.000 A 
ATOM     16  C   UNL     1       1.835   8.381  18.073  0.00  0.00    +0.000 A 
ATOM     17  C   UNL     1       1.464   8.893  19.306  0.00  0.00    +0.000 A 
ATOM     18  H   UNL     1       1.249   8.490  22.536  0.00  0.00    +0.000 HD
ENDBRANCH   2   7
BRANCH   4  19
ATOM     19  C   UNL     1      -3.716  13.225  19.980  0.00  0.00    +0.000 C 
ATOM     20  C   UNL     1      -4.542  13.078  21.032  0.00  0.00    +0.000 C 
ATOM     21  C   UNL     1      -5.948  12.590  20.801  0.00  0.00    +0.000 C 
ATOM     22  O   UNL     1      -6.523  12.461  19.738  0.00  0.00    +0.000 OA
ATOM     23  N   UNL     1      -6.422  12.255  22.058  0.00  0.00    +0.000 N 
ATOM     24  C   UNL     1      -5.479  12.528  23.045  0.00  0.00    +0.000 A 
ATOM     25  C   UNL     1      -5.614  12.286  24.398  0.00  0.00    +0.000 A 
ATOM     26  C   UNL     1      -4.541  12.631  25.222  0.00  0.00    +0.000 A 
ATOM     27  C   UNL     1      -3.389  13.229  24.681  0.00  0.00    +0.000 A 
ATOM     28  C   UNL     1      -3.274  13.465  23.304  0.00  0.00    +0.000 A 
ATOM     29  C   UNL     1      -4.320  13.082  22.484  0.00  0.00    +0.000 A 
ATOM     30  H   UNL     1      -7.333  11.850  22.208  0.00  0.00    +0.000 HD
ENDBRANCH   4  19
BRANCH   1  32
ATOM     31  C   UNL     1       2.620  13.826  18.280  0.00  0.00    +0.000 C 
ATOM     32  N   UNL     1       1.982  13.789  19.590  0.00  0.00    +0.000 N 
ATOM     33  C   UNL     1       2.899  13.620  20.722  0.00  0.00    +0.000 C 
ENDBRANCH   1  32
BRANCH   5  34
ATOM     34  N   UNL     1      -2.359  15.826  20.995  0.00  0.00    +0.000 N 
ATOM     35  C   UNL     1      -2.938  16.835  20.080  0.00  0.00    +0.000 C 
ATOM     36  C   UNL     1      -2.013  16.466  22.271  0.00  0.00    +0.000 C 
ENDBRANCH   5  34
BRANCH   6  37
ATOM     37  C   UNL     1       0.342  16.085  20.073  0.00  0.00    +0.000 C 
ATOM     38  N   UNL     1       0.803  17.145  19.971  0.00  0.00    +0.000 NA
ENDBRANCH   6  37
TORSDOF 5
ENDMDL
MODEL 8
REMARK VINA RESULT:      -6.4      2.048      7.247
REMARK  Name = 
REMARK  9 active torsions:
REMARK  status: ('A' for Active; 'I' for Inactive)
REMARK    1  A    between atoms: C_1  and  N_2
REMARK    2  A    between atoms: N_2  and  C_3
REMARK    3  A    between atoms: N_2  and  C_4
REMARK    4  A    between atoms: C_5  and  C_6
REMARK    5  A    between atoms: C_18  and  C_19
REMARK    6  A    between atoms: C_30  and  N_31
REMARK    7  A    between atoms: N_31  and  C_32
REMARK    8  A    between atoms: N_31  and  C_33
REMARK    9  A    between atoms: C_34  and  C_35
REMARK                            x       y       z     vdW  Elec       q    Type
REMARK                         _______ _______ _______ _____ _____    ______ ____
ROOT
ATOM      1  C   UNL     1      -1.286  15.694  21.158  0.00  0.00    +0.000 A 
ATOM      2  C   UNL     1      -2.027  14.615  20.621  0.00  0.00    +0.000 A 
ATOM      3  C   UNL     1      -1.381  13.631  19.857  0.00  0.00    +0.000 A 
ATOM      4  C   UNL     1      -0.003  13.668  19.559  0.00  0.00    +0.000 A 
ATOM      5  C   UNL     1       0.808  14.759  19.971  0.00  0.00    +0.000 A 
ATOM      6  C   UNL     1       0.136  15.689  20.858  0.00  0.00    +0.000 A 
ENDROOT
BRANCH   2   7
ATOM      7  C   UNL     1      -3.470  14.367  20.819  0.00  0.00    +0.000 C 
ATOM      8  C   UNL     1      -4.022  13.856  21.929  0.00  0.00    +0.000 C 
ATOM      9  C   UNL     1      -3.277  13.431  23.173  0.00  0.00    +0.000 C 
ATOM     10  O   UNL     1      -2.096  13.501  23.422  0.00  0.00    +0.000 OA
ATOM     11  N   UNL     1      -4.263  12.936  24.015  0.00  0.00    +0.000 N 
ATOM     12  C   UNL     1      -5.527  13.025  23.442  0.00  0.00    +0.000 A 
ATOM     13  C   UNL     1      -6.718  12.646  24.029  0.00  0.00    +0.000 A 
ATOM     14  C   UNL     1      -7.884  12.834  23.287  0.00  0.00    +0.000 A 
ATOM     15  C   UNL     1      -7.829  13.377  21.991  0.00  0.00    +0.000 A 
ATOM     16  C   UNL     1      -6.604  13.750  21.412  0.00  0.00    +0.000 A 
ATOM     17  C   UNL     1      -5.450  13.576  22.159  0.00  0.00    +0.000 A 
ATOM     18  H   UNL     1      -4.053  12.585  24.935  0.00  0.00    +0.000 HD
ENDBRANCH   2   7
BRANCH   4  19
ATOM     19  C   UNL     1       0.457  12.441  18.887  0.00  0.00    +0.000 C 
ATOM     20  C   UNL     1       0.472  11.218  19.447  0.00  0.00    +0.000 C 
ATOM     21  C   UNL     1       1.174  10.091  18.734  0.00  0.00    +0.000 C 
ATOM     22  O   UNL     1       1.607  10.088  17.599  0.00  0.00    +0.000 OA
ATOM     23  N   UNL     1       1.280   9.083  19.677  0.00  0.00    +0.000 N 
ATOM     24  C   UNL     1       0.679   9.445  20.879  0.00  0.00    +0.000 A 
ATOM     25  C   UNL     1       0.630   8.689  22.033  0.00  0.00    +0.000 A 
ATOM     26  C   UNL     1      -0.022   9.243  23.136  0.00  0.00    +0.000 A 
ATOM     27  C   UNL     1      -0.628  10.509  23.046  0.00  0.00    +0.000 A 
ATOM     28  C   UNL     1      -0.566  11.259  21.864  0.00  0.00    +0.000 A 
ATOM     29  C   UNL     1       0.119  10.728  20.786  0.00  0.00    +0.000 A 
ATOM     30  H   UNL     1       1.755   8.212  19.494  0.00  0.00    +0.000 HD
ENDBRANCH   4  19
BRANCH   1  32
ATOM     31  C   UNL     1      -2.393  17.939  21.455  0.00  0.00    +0.000 C 
ATOM     32  N   UNL     1      -1.868  16.684  21.976  0.00  0.00    +0.000 N 
ATOM     33  C   UNL     1      -1.726  16.627  23.434  0.00  0.00    +0.000 C 
ENDBRANCH   1  32
BRANCH   5  34
ATOM     34  N   UNL     1       2.185  14.904  19.655  0.00  0.00    +0.000 N 
ATOM     35  C   UNL     1       2.597  15.304  18.292  0.00  0.00    +0.000 C 
ATOM     36  C   UNL     1       3.239  14.081  20.263  0.00  0.00    +0.000 C 
ENDBRANCH   5  34
BRANCH   6  37
ATOM     37  C   UNL     1       0.976  16.491  21.713  0.00  0.00    +0.000 C 
ATOM     38  N   UNL     1       1.651  17.133  22.406  0.00  0.00    +0.000 NA
ENDBRANCH   6  37
TORSDOF 5
ENDMDL
MODEL 9
REMARK VINA RESULT:      -6.4      2.386      3.175
REMARK  Name = 
REMARK  9 active torsions:
REMARK  status: ('A' for Active; 'I' for Inactive)
REMARK    1  A    between atoms: C_1  and  N_2
REMARK    2  A    between atoms: N_2  and  C_3
REMARK    3  A    between atoms: N_2  and  C_4
REMARK    4  A    between atoms: C_5  and  C_6
REMARK    5  A    between atoms: C_18  and  C_19
REMARK    6  A    between atoms: C_30  and  N_31
REMARK    7  A    between atoms: N_31  and  C_32
REMARK    8  A    between atoms: N_31  and  C_33
REMARK    9  A    between atoms: C_34  and  C_35
REMARK                            x       y       z     vdW  Elec       q    Type
REMARK                         _______ _______ _______ _____ _____    ______ ____
ROOT
ATOM      1  C   UNL     1       0.908  13.444  20.214  0.00  0.00    +0.000 A 
ATOM      2  C   UNL     1       0.200  12.246  19.961  0.00  0.00    +0.000 A 
ATOM      3  C   UNL     1      -1.163  12.155  20.284  0.00  0.00    +0.000 A 
ATOM      4  C   UNL     1      -1.884  13.205  20.889  0.00  0.00    +0.000 A 
ATOM      5  C   UNL     1      -1.240  14.413  21.270  0.00  0.00    +0.000 A 
ATOM      6  C   UNL     1       0.132  14.517  20.811  0.00  0.00    +0.000 A 
ENDROOT
BRANCH   2   7
ATOM      7  C   UNL     1       0.746  11.030  19.323  0.00  0.00    +0.000 C 
ATOM      8  C   UNL     1       1.067   9.897  19.965  0.00  0.00    +0.000 C 
ATOM      9  C   UNL     1       0.944   9.657  21.452  0.00  0.00    +0.000 C 
ATOM     10  O   UNL     1       0.512  10.386  22.314  0.00  0.00    +0.000 OA
ATOM     11  N   UNL     1       1.432   8.371  21.636  0.00  0.00    +0.000 N 
ATOM     12  C   UNL     1       1.822   7.788  20.436  0.00  0.00    +0.000 A 
ATOM     13  C   UNL     1       2.322   6.511  20.273  0.00  0.00    +0.000 A 
ATOM     14  C   UNL     1       2.640   6.109  18.976  0.00  0.00    +0.000 A 
ATOM     15  C   UNL     1       2.464   6.986  17.891  0.00  0.00    +0.000 A 
ATOM     16  C   UNL     1       1.960   8.284  18.082  0.00  0.00    +0.000 A 
ATOM     17  C   UNL     1       1.630   8.673  19.370  0.00  0.00    +0.000 A 
ATOM     18  H   UNL     1       1.462   7.936  22.544  0.00  0.00    +0.000 HD
ENDBRANCH   2   7
BRANCH   4  19
ATOM     19  C   UNL     1      -3.326  12.919  20.972  0.00  0.00    +0.000 C 
ATOM     20  C   UNL     1      -4.048  12.326  20.004  0.00  0.00    +0.000 C 
ATOM     21  C   UNL     1      -5.550  12.296  20.121  0.00  0.00    +0.000 C 
ATOM     22  O   UNL     1      -6.225  12.598  21.085  0.00  0.00    +0.000 OA
ATOM     23  N   UNL     1      -5.999  11.915  18.867  0.00  0.00    +0.000 N 
ATOM     24  C   UNL     1      -4.938  11.660  18.004  0.00  0.00    +0.000 A 
ATOM     25  C   UNL     1      -5.030  11.291  16.677  0.00  0.00    +0.000 A 
ATOM     26  C   UNL     1      -3.837  11.087  15.982  0.00  0.00    +0.000 A 
ATOM     27  C   UNL     1      -2.598  11.226  16.634  0.00  0.00    +0.000 A 
ATOM     28  C   UNL     1      -2.528  11.602  17.982  0.00  0.00    +0.000 A 
ATOM     29  C   UNL     1      -3.711  11.847  18.657  0.00  0.00    +0.000 A 
ATOM     30  H   UNL     1      -6.978  11.855  18.633  0.00  0.00    +0.000 HD
ENDBRANCH   4  19
BRANCH   1  32
ATOM     31  C   UNL     1       3.324  13.785  20.848  0.00  0.00    +0.000 C 
ATOM     32  N   UNL     1       2.263  13.615  19.864  0.00  0.00    +0.000 N 
ATOM     33  C   UNL     1       2.647  13.910  18.480  0.00  0.00    +0.000 C 
ENDBRANCH   1  32
BRANCH   5  34
ATOM     34  N   UNL     1      -1.878  15.489  21.941  0.00  0.00    +0.000 N 
ATOM     35  C   UNL     1      -2.515  16.576  21.166  0.00  0.00    +0.000 C 
ATOM     36  C   UNL     1      -1.419  16.014  23.234  0.00  0.00    +0.000 C 
ENDBRANCH   5  34
BRANCH   6  37
ATOM     37  C   UNL     1       0.673  15.849  20.686  0.00  0.00    +0.000 C 
ATOM     38  N   UNL     1       1.113  16.919  20.591  0.00  0.00    +0.000 NA
ENDBRANCH   6  37
TORSDOF 5
ENDMDL
