MODEL 1
REMARK VINA RESULT:      -7.7      0.000      0.000
REMARK  Name = 
REMARK  6 active torsions:
REMARK  status: ('A' for Active; 'I' for Inactive)
REMARK    1  A    between atoms: C_1  and  C_2
REMARK    2  A    between atoms: C_2  and  C_3
REMARK    3  A    between atoms: N_5  and  C_6
REMARK    4  A    between atoms: C_6  and  C_7
REMARK    5  A    between atoms: C_11  and  O_12
REMARK    6  A    between atoms: C_15  and  C_16
REMARK                            x       y       z     vdW  Elec       q    Type
REMARK                         _______ _______ _______ _____ _____    ______ ____
ROOT
ATOM      1  C   UNL     1       4.928   6.030  17.997  0.00  0.00    +0.000 C 
ATOM      2  O   UNL     1       5.424   5.366  18.898  0.00  0.00    +0.000 OA
ATOM      3  N   UNL     1       3.690   6.621  18.054  0.00  0.00    +0.000 N 
ATOM      4  H   UNL     1       3.355   7.138  17.251  0.00  0.00    +0.000 HD
ENDROOT
BRANCH   1   6
ATOM      5  C   UNL     1       4.961   7.076  15.676  0.00  0.00    +0.000 C 
ATOM      6  C   UNL     1       5.661   6.209  16.698  0.00  0.00    +0.000 C 
ATOM      7  C   UNL     1       7.175   6.251  16.729  0.00  0.00    +0.000 C 
ATOM      8  C   UNL     1       6.490   5.005  16.219  0.00  0.00    +0.000 C 
BRANCH   8   9
ATOM      9  C   UNL     1       6.582   4.618  14.755  0.00  0.00    +0.000 A 
ATOM     10  C   UNL     1       5.662   3.738  14.160  0.00  0.00    +0.000 A 
ATOM     11  C   UNL     1       5.749   3.386  12.810  0.00  0.00    +0.000 A 
ATOM     12  C   UNL     1       6.752   3.930  12.014  0.00  0.00    +0.000 A 
ATOM     13  C   UNL     1       7.659   4.827  12.568  0.00  0.00    +0.000 A 
ATOM     14  C   UNL     1       7.572   5.167  13.922  0.00  0.00    +0.000 A 
ENDBRANCH   8   9
ENDBRANCH   1   6
BRANCH   3  15
ATOM     15  C   UNL     1       2.814   6.443  19.187  0.00  0.00    +0.000 C 
BRANCH  15  16
ATOM     16  C   UNL     1       2.157   5.095  19.182  0.00  0.00    +0.000 A 
ATOM     17  C   UNL     1       1.844   4.461  17.982  0.00  0.00    +0.000 A 
ATOM     18  N   UNL     1       1.222   3.261  17.895  0.00  0.00    +0.000 NA
ATOM     19  C   UNL     1       0.900   2.660  19.063  0.00  0.00    +0.000 A 
ATOM     20  C   UNL     1       1.185   3.203  20.306  0.00  0.00    +0.000 A 
ATOM     21  C   UNL     1       1.825   4.433  20.368  0.00  0.00    +0.000 A 
BRANCH  20  22
ATOM     22  O   UNL     1       0.857   2.586  21.475  0.00  0.00    +0.000 OA
ATOM     23  H   UNL     1       0.983   3.211  22.209  0.00  0.00    +0.000 HD
ENDBRANCH  20  22
ENDBRANCH  15  16
ENDBRANCH   3  15
TORSDOF 5
ENDMDL
MODEL 2
REMARK VINA RESULT:      -7.5      0.143      1.058
REMARK  Name = 
REMARK  6 active torsions:
REMARK  status: ('A' for Active; 'I' for Inactive)
REMARK    1  A    between atoms: C_1  and  C_2
REMARK    2  A    between atoms: C_2  and  C_3
REMARK    3  A    between atoms: N_5  and  C_6
REMARK    4  A    between atoms: C_6  and  C_7
REMARK    5  A    between atoms: C_11  and  O_12
REMARK    6  A    between atoms: C_15  and  C_16
REMARK                            x       y       z     vdW  Elec       q    Type
REMARK                         _______ _______ _______ _____ _____    ______ ____
ROOT
ATOM      1  C   UNL     1       4.881   6.003  18.034  0.00  0.00    +0.000 C 
ATOM      2  O   UNL     1       5.357   5.309  18.923  0.00  0.00    +0.000 OA
ATOM      3  N   UNL     1       3.654   6.616  18.094  0.00  0.00    +0.000 N 
ATOM      4  H   UNL     1       3.335   7.158  17.302  0.00  0.00    +0.000 HD
ENDROOT
BRANCH   1   6
ATOM      5  C   UNL     1       4.950   7.099  15.737  0.00  0.00    +0.000 C 
ATOM      6  C   UNL     1       5.628   6.200  16.745  0.00  0.00    +0.000 C 
ATOM      7  C   UNL     1       7.142   6.219  16.791  0.00  0.00    +0.000 C 
ATOM      8  C   UNL     1       6.444   4.995  16.247  0.00  0.00    +0.000 C 
BRANCH   8   9
ATOM      9  C   UNL     1       6.544   4.639  14.777  0.00  0.00    +0.000 A 
ATOM     10  C   UNL     1       7.556   5.162  13.952  0.00  0.00    +0.000 A 
ATOM     11  C   UNL     1       7.646   4.830  12.598  0.00  0.00    +0.000 A 
ATOM     12  C   UNL     1       6.732   3.941  12.039  0.00  0.00    +0.000 A 
ATOM     13  C   UNL     1       5.738   3.384  12.837  0.00  0.00    +0.000 A 
ATOM     14  C   UNL     1       5.649   3.729  14.189  0.00  0.00    +0.000 A 
ENDBRANCH   8   9
ENDBRANCH   1   6
BRANCH   3  15
ATOM     15  C   UNL     1       2.765   6.426  19.215  0.00  0.00    +0.000 C 
BRANCH  15  16
ATOM     16  C   UNL     1       2.170   5.050  19.235  0.00  0.00    +0.000 A 
ATOM     17  C   UNL     1       1.746   4.442  18.055  0.00  0.00    +0.000 A 
ATOM     18  N   UNL     1       1.170   3.218  17.994  0.00  0.00    +0.000 NA
ATOM     19  C   UNL     1       1.013   2.564  19.166  0.00  0.00    +0.000 A 
ATOM     20  C   UNL     1       1.418   3.077  20.389  0.00  0.00    +0.000 A 
ATOM     21  C   UNL     1       2.007   4.333  20.424  0.00  0.00    +0.000 A 
BRANCH  20  22
ATOM     22  O   UNL     1       1.255   2.407  21.563  0.00  0.00    +0.000 OA
ATOM     23  H   UNL     1       0.481   1.824  21.490  0.00  0.00    +0.000 HD
ENDBRANCH  20  22
ENDBRANCH  15  16
ENDBRANCH   3  15
TORSDOF 5
ENDMDL
MODEL 3
REMARK VINA RESULT:      -7.5      1.387      1.524
REMARK  Name = 
REMARK  6 active torsions:
REMARK  status: ('A' for Active; 'I' for Inactive)
REMARK    1  A    between atoms: C_1  and  C_2
REMARK    2  A    between atoms: C_2  and  C_3
REMARK    3  A    between atoms: N_5  and  C_6
REMARK    4  A    between atoms: C_6  and  C_7
REMARK    5  A    between atoms: C_11  and  O_12
REMARK    6  A    between atoms: C_15  and  C_16
REMARK                            x       y       z     vdW  Elec       q    Type
REMARK                         _______ _______ _______ _____ _____    ______ ____
ROOT
ATOM      1  C   UNL     1       5.576   5.006  18.339  0.00  0.00    +0.000 C 
ATOM      2  O   UNL     1       5.728   5.672  19.355  0.00  0.00    +0.000 OA
ATOM      3  N   UNL     1       5.079   3.726  18.311  0.00  0.00    +0.000 N 
ATOM      4  H   UNL     1       5.005   3.247  17.424  0.00  0.00    +0.000 HD
ENDROOT
BRANCH   1   6
ATOM      5  C   UNL     1       4.886   6.254  16.230  0.00  0.00    +0.000 C 
ATOM      6  C   UNL     1       5.983   5.560  17.003  0.00  0.00    +0.000 C 
ATOM      7  C   UNL     1       7.392   6.096  16.849  0.00  0.00    +0.000 C 
ATOM      8  C   UNL     1       7.049   4.758  16.237  0.00  0.00    +0.000 C 
BRANCH   8   9
ATOM      9  C   UNL     1       7.005   4.588  14.731  0.00  0.00    +0.000 A 
ATOM     10  C   UNL     1       6.156   3.654  14.113  0.00  0.00    +0.000 A 
ATOM     11  C   UNL     1       6.116   3.501  12.724  0.00  0.00    +0.000 A 
ATOM     12  C   UNL     1       6.915   4.303  11.915  0.00  0.00    +0.000 A 
ATOM     13  C   UNL     1       7.745   5.257  12.496  0.00  0.00    +0.000 A 
ATOM     14  C   UNL     1       7.786   5.397  13.888  0.00  0.00    +0.000 A 
ENDBRANCH   8   9
ENDBRANCH   1   6
BRANCH   3  15
ATOM     15  C   UNL     1       4.754   3.012  19.522  0.00  0.00    +0.000 C 
BRANCH  15  16
ATOM     16  C   UNL     1       3.281   3.019  19.801  0.00  0.00    +0.000 A 
ATOM     17  C   UNL     1       2.369   3.340  18.798  0.00  0.00    +0.000 A 
ATOM     18  N   UNL     1       1.028   3.401  18.980  0.00  0.00    +0.000 NA
ATOM     19  C   UNL     1       0.572   3.121  20.221  0.00  0.00    +0.000 A 
ATOM     20  C   UNL     1       1.398   2.773  21.279  0.00  0.00    +0.000 A 
ATOM     21  C   UNL     1       2.768   2.717  21.067  0.00  0.00    +0.000 A 
BRANCH  20  22
ATOM     22  O   UNL     1       0.925   2.491  22.525  0.00  0.00    +0.000 OA
ATOM     23  H   UNL     1       1.661   2.528  23.159  0.00  0.00    +0.000 HD
ENDBRANCH  20  22
ENDBRANCH  15  16
ENDBRANCH   3  15
TORSDOF 5
ENDMDL
MODEL 4
REMARK VINA RESULT:      -7.4      1.220      1.462
REMARK  Name = 
REMARK  6 active torsions:
REMARK  status: ('A' for Active; 'I' for Inactive)
REMARK    1  A    between atoms: C_1  and  C_2
REMARK    2  A    between atoms: C_2  and  C_3
REMARK    3  A    between atoms: N_5  and  C_6
REMARK    4  A    between atoms: C_6  and  C_7
REMARK    5  A    between atoms: C_11  and  O_12
REMARK    6  A    between atoms: C_15  and  C_16
REMARK                            x       y       z     vdW  Elec       q    Type
REMARK                         _______ _______ _______ _____ _____    ______ ____
ROOT
ATOM      1  C   UNL     1       4.943   5.965  18.269  0.00  0.00    +0.000 C 
ATOM      2  O   UNL     1       5.509   5.410  19.201  0.00  0.00    +0.000 OA
ATOM      3  N   UNL     1       3.641   6.400  18.294  0.00  0.00    +0.000 N 
ATOM      4  H   UNL     1       3.252   6.834  17.467  0.00  0.00    +0.000 HD
ENDROOT
BRANCH   1   6
ATOM      5  C   UNL     1       4.948   7.065  15.973  0.00  0.00    +0.000 C 
ATOM      6  C   UNL     1       5.659   6.174  16.965  0.00  0.00    +0.000 C 
ATOM      7  C   UNL     1       7.174   6.214  16.978  0.00  0.00    +0.000 C 
ATOM      8  C   UNL     1       6.481   4.981  16.448  0.00  0.00    +0.000 C 
BRANCH   8   9
ATOM      9  C   UNL     1       6.555   4.629  14.975  0.00  0.00    +0.000 A 
ATOM     10  C   UNL     1       5.622   3.769  14.368  0.00  0.00    +0.000 A 
ATOM     11  C   UNL     1       5.692   3.449  13.009  0.00  0.00    +0.000 A 
ATOM     12  C   UNL     1       6.691   4.004  12.216  0.00  0.00    +0.000 A 
ATOM     13  C   UNL     1       7.610   4.882  12.781  0.00  0.00    +0.000 A 
ATOM     14  C   UNL     1       7.540   5.189  14.144  0.00  0.00    +0.000 A 
ENDBRANCH   8   9
ENDBRANCH   1   6
BRANCH   3  15
ATOM     15  C   UNL     1       2.783   6.166  19.431  0.00  0.00    +0.000 C 
BRANCH  15  16
ATOM     16  C   UNL     1       2.268   4.759  19.466  0.00  0.00    +0.000 A 
ATOM     17  C   UNL     1       1.669   4.250  20.617  0.00  0.00    +0.000 A 
ATOM     18  N   UNL     1       1.209   2.981  20.738  0.00  0.00    +0.000 NA
ATOM     19  C   UNL     1       1.347   2.182  19.657  0.00  0.00    +0.000 A 
ATOM     20  C   UNL     1       1.912   2.601  18.462  0.00  0.00    +0.000 A 
ATOM     21  C   UNL     1       2.374   3.906  18.363  0.00  0.00    +0.000 A 
BRANCH  20  22
ATOM     22  O   UNL     1       2.043   1.786  17.379  0.00  0.00    +0.000 OA
ATOM     23  H   UNL     1       1.355   2.009  16.730  0.00  0.00    +0.000 HD
ENDBRANCH  20  22
ENDBRANCH  15  16
ENDBRANCH   3  15
TORSDOF 5
ENDMDL
MODEL 5
REMARK VINA RESULT:      -7.4      2.991      5.094
REMARK  Name = 
REMARK  6 active torsions:
REMARK  status: ('A' for Active; 'I' for Inactive)
REMARK    1  A    between atoms: C_1  and  C_2
REMARK    2  A    between atoms: C_2  and  C_3
REMARK    3  A    between atoms: N_5  and  C_6
REMARK    4  A    between atoms: C_6  and  C_7
REMARK    5  A    between atoms: C_11  and  O_12
REMARK    6  A    between atoms: C_15  and  C_16
REMARK                            x       y       z     vdW  Elec       q    Type
REMARK                         _______ _______ _______ _____ _____    ______ ____
ROOT
ATOM      1  C   UNL     1       1.894   5.132  20.010  0.00  0.00    +0.000 C 
ATOM      2  O   UNL     1       0.870   4.611  20.433  0.00  0.00    +0.000 OA
ATOM      3  N   UNL     1       2.304   6.407  20.315  0.00  0.00    +0.000 N 
ATOM      4  H   UNL     1       3.159   6.759  19.903  0.00  0.00    +0.000 HD
ENDROOT
BRANCH   1   6
ATOM      5  C   UNL     1       3.855   3.539  19.696  0.00  0.00    +0.000 C 
ATOM      6  C   UNL     1       2.782   4.388  19.054  0.00  0.00    +0.000 C 
ATOM      7  C   UNL     1       2.178   3.887  17.758  0.00  0.00    +0.000 C 
ATOM      8  C   UNL     1       3.083   5.096  17.722  0.00  0.00    +0.000 C 
BRANCH   8   9
ATOM      9  C   UNL     1       4.443   5.023  17.057  0.00  0.00    +0.000 A 
ATOM     10  C   UNL     1       4.775   3.997  16.154  0.00  0.00    +0.000 A 
ATOM     11  C   UNL     1       6.030   3.935  15.542  0.00  0.00    +0.000 A 
ATOM     12  C   UNL     1       6.980   4.918  15.803  0.00  0.00    +0.000 A 
ATOM     13  C   UNL     1       6.670   5.961  16.668  0.00  0.00    +0.000 A 
ATOM     14  C   UNL     1       5.415   6.012  17.285  0.00  0.00    +0.000 A 
ENDBRANCH   8   9
ENDBRANCH   1   6
BRANCH   3  15
ATOM     15  C   UNL     1       1.501   7.291  21.124  0.00  0.00    +0.000 C 
BRANCH  15  16
ATOM     16  C   UNL     1       1.123   8.540  20.387  0.00  0.00    +0.000 A 
ATOM     17  C   UNL     1       0.145   9.395  20.892  0.00  0.00    +0.000 A 
ATOM     18  N   UNL     1      -0.274  10.523  20.270  0.00  0.00    +0.000 NA
ATOM     19  C   UNL     1       0.315  10.818  19.089  0.00  0.00    +0.000 A 
ATOM     20  C   UNL     1       1.309  10.040  18.515  0.00  0.00    +0.000 A 
ATOM     21  C   UNL     1       1.722   8.890  19.173  0.00  0.00    +0.000 A 
BRANCH  20  22
ATOM     22  O   UNL     1       1.895  10.350  17.325  0.00  0.00    +0.000 OA
ATOM     23  H   UNL     1       1.333  10.984  16.850  0.00  0.00    +0.000 HD
ENDBRANCH  20  22
ENDBRANCH  15  16
ENDBRANCH   3  15
TORSDOF 5
ENDMDL
MODEL 6
REMARK VINA RESULT:      -7.4      2.953      5.136
REMARK  Name = 
REMARK  6 active torsions:
REMARK  status: ('A' for Active; 'I' for Inactive)
REMARK    1  A    between atoms: C_1  and  C_2
REMARK    2  A    between atoms: C_2  and  C_3
REMARK    3  A    between atoms: N_5  and  C_6
REMARK    4  A    between atoms: C_6  and  C_7
REMARK    5  A    between atoms: C_11  and  O_12
REMARK    6  A    between atoms: C_15  and  C_16
REMARK                            x       y       z     vdW  Elec       q    Type
REMARK                         _______ _______ _______ _____ _____    ______ ____
ROOT
ATOM      1  C   UNL     1       1.938   5.040  19.944  0.00  0.00    +0.000 C 
ATOM      2  O   UNL     1       0.901   4.504  20.313  0.00  0.00    +0.000 OA
ATOM      3  N   UNL     1       2.333   6.305  20.304  0.00  0.00    +0.000 N 
ATOM      4  H   UNL     1       3.200   6.673  19.935  0.00  0.00    +0.000 HD
ENDROOT
BRANCH   1   6
ATOM      5  C   UNL     1       3.964   3.528  19.647  0.00  0.00    +0.000 C 
ATOM      6  C   UNL     1       2.862   4.331  18.996  0.00  0.00    +0.000 C 
ATOM      7  C   UNL     1       2.288   3.802  17.697  0.00  0.00    +0.000 C 
ATOM      8  C   UNL     1       3.142   5.047  17.664  0.00  0.00    +0.000 C 
BRANCH   8   9
ATOM      9  C   UNL     1       4.509   5.027  17.007  0.00  0.00    +0.000 A 
ATOM     10  C   UNL     1       5.492   5.986  17.307  0.00  0.00    +0.000 A 
ATOM     11  C   UNL     1       6.752   5.963  16.702  0.00  0.00    +0.000 A 
ATOM     12  C   UNL     1       7.066   4.957  15.793  0.00  0.00    +0.000 A 
ATOM     13  C   UNL     1       6.125   3.976  15.499  0.00  0.00    +0.000 A 
ATOM     14  C   UNL     1       4.863   4.013  16.101  0.00  0.00    +0.000 A 
ENDBRANCH   8   9
ENDBRANCH   1   6
BRANCH   3  15
ATOM     15  C   UNL     1       1.498   7.160  21.114  0.00  0.00    +0.000 C 
BRANCH  15  16
ATOM     16  C   UNL     1       1.214   8.469  20.440  0.00  0.00    +0.000 A 
ATOM     17  C   UNL     1       0.441   9.441  21.073  0.00  0.00    +0.000 A 
ATOM     18  N   UNL     1       0.113  10.633  20.518  0.00  0.00    +0.000 NA
ATOM     19  C   UNL     1       0.584  10.871  19.274  0.00  0.00    +0.000 A 
ATOM     20  C   UNL     1       1.375   9.975  18.570  0.00  0.00    +0.000 A 
ATOM     21  C   UNL     1       1.698   8.762  19.161  0.00  0.00    +0.000 A 
BRANCH  20  22
ATOM     22  O   UNL     1       1.845  10.229  17.318  0.00  0.00    +0.000 OA
ATOM     23  H   UNL     1       2.723  10.640  17.386  0.00  0.00    +0.000 HD
ENDBRANCH  20  22
ENDBRANCH  15  16
ENDBRANCH   3  15
TORSDOF 5
ENDMDL
MODEL 7
REMARK VINA RESULT:      -7.4      1.876      2.211
REMARK  Name = 
REMARK  6 active torsions:
REMARK  status: ('A' for Active; 'I' for Inactive)
REMARK    1  A    between atoms: C_1  and  C_2
REMARK    2  A    between atoms: C_2  and  C_3
REMARK    3  A    between atoms: N_5  and  C_6
REMARK    4  A    between atoms: C_6  and  C_7
REMARK    5  A    between atoms: C_11  and  O_12
REMARK    6  A    between atoms: C_15  and  C_16
REMARK                            x       y       z     vdW  Elec       q    Type
REMARK                         _______ _______ _______ _____ _____    ______ ____
ROOT
ATOM      1  C   UNL     1       5.674   4.474  18.443  0.00  0.00    +0.000 C 
ATOM      2  O   UNL     1       6.061   4.972  19.493  0.00  0.00    +0.000 OA
ATOM      3  N   UNL     1       5.021   3.270  18.345  0.00  0.00    +0.000 N 
ATOM      4  H   UNL     1       4.753   2.930  17.431  0.00  0.00    +0.000 HD
ENDROOT
BRANCH   1   6
ATOM      5  C   UNL     1       4.721   5.717  16.436  0.00  0.00    +0.000 C 
ATOM      6  C   UNL     1       5.941   5.163  17.135  0.00  0.00    +0.000 C 
ATOM      7  C   UNL     1       7.242   5.924  16.979  0.00  0.00    +0.000 C 
ATOM      8  C   UNL     1       7.092   4.587  16.292  0.00  0.00    +0.000 C 
BRANCH   8   9
ATOM      9  C   UNL     1       7.021   4.500  14.780  0.00  0.00    +0.000 A 
ATOM     10  C   UNL     1       6.144   3.617  14.126  0.00  0.00    +0.000 A 
ATOM     11  C   UNL     1       6.079   3.541  12.732  0.00  0.00    +0.000 A 
ATOM     12  C   UNL     1       6.881   4.371  11.955  0.00  0.00    +0.000 A 
ATOM     13  C   UNL     1       7.738   5.276  12.572  0.00  0.00    +0.000 A 
ATOM     14  C   UNL     1       7.803   5.339  13.969  0.00  0.00    +0.000 A 
ENDBRANCH   8   9
ENDBRANCH   1   6
BRANCH   3  15
ATOM     15  C   UNL     1       4.795   2.432  19.498  0.00  0.00    +0.000 C 
BRANCH  15  16
ATOM     16  C   UNL     1       3.410   2.595  20.049  0.00  0.00    +0.000 A 
ATOM     17  C   UNL     1       3.205   2.770  21.416  0.00  0.00    +0.000 A 
ATOM     18  N   UNL     1       1.986   2.890  21.993  0.00  0.00    +0.000 NA
ATOM     19  C   UNL     1       0.917   2.840  21.167  0.00  0.00    +0.000 A 
ATOM     20  C   UNL     1       1.019   2.687  19.792  0.00  0.00    +0.000 A 
ATOM     21  C   UNL     1       2.281   2.567  19.225  0.00  0.00    +0.000 A 
BRANCH  20  22
ATOM     22  O   UNL     1      -0.065   2.640  18.970  0.00  0.00    +0.000 OA
ATOM     23  H   UNL     1       0.017   1.873  18.380  0.00  0.00    +0.000 HD
ENDBRANCH  20  22
ENDBRANCH  15  16
ENDBRANCH   3  15
TORSDOF 5
ENDMDL
MODEL 8
REMARK VINA RESULT:      -7.4      1.626      2.160
REMARK  Name = 
REMARK  6 active torsions:
REMARK  status: ('A' for Active; 'I' for Inactive)
REMARK    1  A    between atoms: C_1  and  C_2
REMARK    2  A    between atoms: C_2  and  C_3
REMARK    3  A    between atoms: N_5  and  C_6
REMARK    4  A    between atoms: C_6  and  C_7
REMARK    5  A    between atoms: C_11  and  O_12
REMARK    6  A    between atoms: C_15  and  C_16
REMARK                            x       y       z     vdW  Elec       q    Type
REMARK                         _______ _______ _______ _____ _____    ______ ____
ROOT
ATOM      1  C   UNL     1       5.300   5.096  18.237  0.00  0.00    +0.000 C 
ATOM      2  O   UNL     1       5.001   5.873  19.134  0.00  0.00    +0.000 OA
ATOM      3  N   UNL     1       5.184   3.730  18.318  0.00  0.00    +0.000 N 
ATOM      4  H   UNL     1       5.473   3.164  17.530  0.00  0.00    +0.000 HD
ENDROOT
BRANCH   1   6
ATOM      5  C   UNL     1       4.967   6.502  16.141  0.00  0.00    +0.000 C 
ATOM      6  C   UNL     1       5.880   5.610  16.950  0.00  0.00    +0.000 C 
ATOM      7  C   UNL     1       7.366   5.904  16.901  0.00  0.00    +0.000 C 
ATOM      8  C   UNL     1       6.845   4.662  16.218  0.00  0.00    +0.000 C 
BRANCH   8   9
ATOM      9  C   UNL     1       6.871   4.544  14.706  0.00  0.00    +0.000 A 
ATOM     10  C   UNL     1       7.747   5.308  13.916  0.00  0.00    +0.000 A 
ATOM     11  C   UNL     1       7.769   5.195  12.523  0.00  0.00    +0.000 A 
ATOM     12  C   UNL     1       6.924   4.291  11.887  0.00  0.00    +0.000 A 
ATOM     13  C   UNL     1       6.067   3.500  12.644  0.00  0.00    +0.000 A 
ATOM     14  C   UNL     1       6.043   3.626  14.037  0.00  0.00    +0.000 A 
ENDBRANCH   8   9
ENDBRANCH   1   6
BRANCH   3  15
ATOM     15  C   UNL     1       4.755   3.074  19.530  0.00  0.00    +0.000 C 
BRANCH  15  16
ATOM     16  C   UNL     1       3.267   3.128  19.702  0.00  0.00    +0.000 A 
ATOM     17  C   UNL     1       2.696   3.894  20.716  0.00  0.00    +0.000 A 
ATOM     18  N   UNL     1       1.364   3.967  20.957  0.00  0.00    +0.000 NA
ATOM     19  C   UNL     1       0.562   3.247  20.142  0.00  0.00    +0.000 A 
ATOM     20  C   UNL     1       1.033   2.469  19.095  0.00  0.00    +0.000 A 
ATOM     21  C   UNL     1       2.401   2.412  18.869  0.00  0.00    +0.000 A 
BRANCH  20  22
ATOM     22  O   UNL     1       0.213   1.750  18.280  0.00  0.00    +0.000 OA
ATOM     23  H   UNL     1       0.248   2.125  17.384  0.00  0.00    +0.000 HD
ENDBRANCH  20  22
ENDBRANCH  15  16
ENDBRANCH   3  15
TORSDOF 5
ENDMDL
MODEL 9
REMARK VINA RESULT:      -7.3      2.332      3.686
REMARK  Name = 
REMARK  6 active torsions:
REMARK  status: ('A' for Active; 'I' for Inactive)
REMARK    1  A    between atoms: C_1  and  C_2
REMARK    2  A    between atoms: C_2  and  C_3
REMARK    3  A    between atoms: N_5  and  C_6
REMARK    4  A    between atoms: C_6  and  C_7
REMARK    5  A    between atoms: C_11  and  O_12
REMARK    6  A    between atoms: C_15  and  C_16
REMARK                            x       y       z     vdW  Elec       q    Type
REMARK                         _______ _______ _______ _____ _____    ______ ____
ROOT
ATOM      1  C   UNL     1       3.991   5.244  17.517  0.00  0.00    +0.000 C 
ATOM      2  O   UNL     1       3.078   4.483  17.222  0.00  0.00    +0.000 OA
ATOM      3  N   UNL     1       4.041   5.992  18.667  0.00  0.00    +0.000 N 
ATOM      4  H   UNL     1       4.830   6.608  18.818  0.00  0.00    +0.000 HD
ENDROOT
BRANCH   1   6
ATOM      5  C   UNL     1       5.123   6.745  15.802  0.00  0.00    +0.000 C 
ATOM      6  C   UNL     1       5.142   5.446  16.574  0.00  0.00    +0.000 C 
ATOM      7  C   UNL     1       6.495   4.885  16.964  0.00  0.00    +0.000 C 
ATOM      8  C   UNL     1       5.692   4.179  15.898  0.00  0.00    +0.000 C 
BRANCH   8   9
ATOM      9  C   UNL     1       6.162   4.171  14.456  0.00  0.00    +0.000 A 
ATOM     10  C   UNL     1       7.305   4.876  14.043  0.00  0.00    +0.000 A 
ATOM     11  C   UNL     1       7.737   4.865  12.714  0.00  0.00    +0.000 A 
ATOM     12  C   UNL     1       7.040   4.122  11.765  0.00  0.00    +0.000 A 
ATOM     13  C   UNL     1       5.922   3.390  12.149  0.00  0.00    +0.000 A 
ATOM     14  C   UNL     1       5.491   3.415  13.480  0.00  0.00    +0.000 A 
ENDBRANCH   8   9
ENDBRANCH   1   6
BRANCH   3  15
ATOM     15  C   UNL     1       2.956   5.999  19.618  0.00  0.00    +0.000 C 
BRANCH  15  16
ATOM     16  C   UNL     1       2.220   7.306  19.622  0.00  0.00    +0.000 A 
ATOM     17  C   UNL     1       1.483   7.703  20.736  0.00  0.00    +0.000 A 
ATOM     18  N   UNL     1       0.766   8.851  20.804  0.00  0.00    +0.000 NA
ATOM     19  C   UNL     1       0.790   9.645  19.710  0.00  0.00    +0.000 A 
ATOM     20  C   UNL     1       1.507   9.345  18.562  0.00  0.00    +0.000 A 
ATOM     21  C   UNL     1       2.235   8.164  18.518  0.00  0.00    +0.000 A 
BRANCH  20  22
ATOM     22  O   UNL     1       1.524  10.155  17.467  0.00  0.00    +0.000 OA
ATOM     23  H   UNL     1       1.021  10.963  17.664  0.00  0.00    +0.000 HD
ENDBRANCH  20  22
ENDBRANCH  15  16
ENDBRANCH   3  15
TORSDOF 5
ENDMDL
