MODEL 1
REMARK VINA RESULT:      -7.5      0.000      0.000
REMARK  Name = 
REMARK  5 active torsions:
REMARK  status: ('A' for Active; 'I' for Inactive)
REMARK    1  A    between atoms: C_1  and  C_2
REMARK    2  A    between atoms: C_4  and  N_5
REMARK    3  A    between atoms: C_10  and  C_11
REMARK    4  A    between atoms: C_14  and  N_15
REMARK    5  A    between atoms: C_18  and  O_19
REMARK                            x       y       z     vdW  Elec       q    Type
REMARK                         _______ _______ _______ _____ _____    ______ ____
ROOT
ATOM      1  C   UNL     1       0.852   8.672  21.470  0.00  0.00    +0.000 C 
ATOM      2  C   UNL     1       1.375   8.451  20.074  0.00  0.00    +0.000 A 
ATOM      3  C   UNL     1       2.141   7.289  19.871  0.00  0.00    +0.000 A 
ATOM      4  C   UNL     1       2.772   7.009  18.648  0.00  0.00    +0.000 A 
ATOM      5  C   UNL     1       2.602   7.925  17.598  0.00  0.00    +0.000 A 
ATOM      6  C   UNL     1       1.834   9.076  17.769  0.00  0.00    +0.000 A 
ATOM      7  C   UNL     1       1.204   9.377  18.995  0.00  0.00    +0.000 A 
ENDROOT
BRANCH   4   8
ATOM      8  N   UNL     1       3.631   5.857  18.524  0.00  0.00    +0.000 N 
ATOM      9  C   UNL     1       5.011   5.975  18.054  0.00  0.00    +0.000 C 
ATOM     10  C   UNL     1       5.924   5.153  18.973  0.00  0.00    +0.000 C 
ATOM     11  N   UNL     1       5.451   3.762  19.036  0.00  0.00    +0.000 NA
ATOM     12  C   UNL     1       4.096   3.710  19.606  0.00  0.00    +0.000 C 
ATOM     13  C   UNL     1       3.119   4.498  18.717  0.00  0.00    +0.000 C 
ATOM     14  C   UNL     1       2.923   3.818  17.353  0.00  0.00    +0.000 C 
ATOM     15  H   UNL     1       6.096   3.212  19.649  0.00  0.00    +0.000 HD
ENDBRANCH   4   8
BRANCH   7  16
ATOM     16  N   UNL     1       0.451  10.609  19.099  0.00  0.00    +0.000 N 
ATOM     17  C   UNL     1       0.985  11.914  19.444  0.00  0.00    +0.000 C 
ATOM     18  C   UNL     1      -0.255  12.740  19.777  0.00  0.00    +0.000 C 
ATOM     19  C   UNL     1      -1.279  12.182  18.815  0.00  0.00    +0.000 C 
ATOM     20  C   UNL     1      -0.990  10.676  18.930  0.00  0.00    +0.000 C 
BRANCH  19  21
ATOM     21  O   UNL     1      -1.037  12.677  17.514  0.00  0.00    +0.000 OA
ATOM     22  H   UNL     1      -1.780  13.271  17.229  0.00  0.00    +0.000 HD
ENDBRANCH  19  21
ENDBRANCH   7  16
TORSDOF 3
ENDMDL
MODEL 2
REMARK VINA RESULT:      -7.3      0.743      1.415
REMARK  Name = 
REMARK  5 active torsions:
REMARK  status: ('A' for Active; 'I' for Inactive)
REMARK    1  A    between atoms: C_1  and  C_2
REMARK    2  A    between atoms: C_4  and  N_5
REMARK    3  A    between atoms: C_10  and  C_11
REMARK    4  A    between atoms: C_14  and  N_15
REMARK    5  A    between atoms: C_18  and  O_19
REMARK                            x       y       z     vdW  Elec       q    Type
REMARK                         _______ _______ _______ _____ _____    ______ ____
ROOT
ATOM      1  C   UNL     1       0.826   8.710  21.465  0.00  0.00    +0.000 C 
ATOM      2  C   UNL     1       1.351   8.526  20.064  0.00  0.00    +0.000 A 
ATOM      3  C   UNL     1       2.176   7.407  19.848  0.00  0.00    +0.000 A 
ATOM      4  C   UNL     1       2.814   7.170  18.619  0.00  0.00    +0.000 A 
ATOM      5  C   UNL     1       2.590   8.083  17.577  0.00  0.00    +0.000 A 
ATOM      6  C   UNL     1       1.764   9.192  17.762  0.00  0.00    +0.000 A 
ATOM      7  C   UNL     1       1.126   9.451  18.993  0.00  0.00    +0.000 A 
ENDROOT
BRANCH   4   8
ATOM      8  N   UNL     1       3.731   6.066  18.482  0.00  0.00    +0.000 N 
ATOM      9  C   UNL     1       4.098   5.226  19.621  0.00  0.00    +0.000 C 
ATOM     10  C   UNL     1       4.023   3.752  19.200  0.00  0.00    +0.000 C 
ATOM     11  N   UNL     1       4.868   3.526  18.018  0.00  0.00    +0.000 NA
ATOM     12  C   UNL     1       4.385   4.329  16.885  0.00  0.00    +0.000 C 
ATOM     13  C   UNL     1       4.454   5.826  17.231  0.00  0.00    +0.000 C 
ATOM     14  C   UNL     1       5.908   6.305  17.371  0.00  0.00    +0.000 C 
ATOM     15  H   UNL     1       4.822   2.513  17.758  0.00  0.00    +0.000 HD
ENDBRANCH   4   8
BRANCH   7  16
ATOM     16  N   UNL     1       0.311  10.641  19.111  0.00  0.00    +0.000 N 
ATOM     17  C   UNL     1       0.754  11.942  19.578  0.00  0.00    +0.000 C 
ATOM     18  C   UNL     1      -0.545  12.693  19.858  0.00  0.00    +0.000 C 
ATOM     19  C   UNL     1      -1.462  12.156  18.783  0.00  0.00    +0.000 C 
ATOM     20  C   UNL     1      -1.114  10.659  18.828  0.00  0.00    +0.000 C 
BRANCH  19  21
ATOM     21  O   UNL     1      -1.141  12.745  17.539  0.00  0.00    +0.000 OA
ATOM     22  H   UNL     1      -0.888  13.696  17.666  0.00  0.00    +0.000 HD
ENDBRANCH  19  21
ENDBRANCH   7  16
TORSDOF 3
ENDMDL
MODEL 3
REMARK VINA RESULT:      -7.1      0.871      1.247
REMARK  Name = 
REMARK  5 active torsions:
REMARK  status: ('A' for Active; 'I' for Inactive)
REMARK    1  A    between atoms: C_1  and  C_2
REMARK    2  A    between atoms: C_4  and  N_5
REMARK    3  A    between atoms: C_10  and  C_11
REMARK    4  A    between atoms: C_14  and  N_15
REMARK    5  A    between atoms: C_18  and  O_19
REMARK                            x       y       z     vdW  Elec       q    Type
REMARK                         _______ _______ _______ _____ _____    ______ ____
ROOT
ATOM      1  C   UNL     1       0.969   8.439  21.533  0.00  0.00    +0.000 C 
ATOM      2  C   UNL     1       1.495   8.265  20.130  0.00  0.00    +0.000 A 
ATOM      3  C   UNL     1       2.258   7.109  19.888  0.00  0.00    +0.000 A 
ATOM      4  C   UNL     1       2.892   6.871  18.657  0.00  0.00    +0.000 A 
ATOM      5  C   UNL     1       2.726   7.825  17.640  0.00  0.00    +0.000 A 
ATOM      6  C   UNL     1       1.960   8.971  17.850  0.00  0.00    +0.000 A 
ATOM      7  C   UNL     1       1.328   9.230  19.085  0.00  0.00    +0.000 A 
ENDROOT
BRANCH   4   8
ATOM      8  N   UNL     1       3.749   5.723  18.494  0.00  0.00    +0.000 N 
ATOM      9  C   UNL     1       5.128   5.854  18.025  0.00  0.00    +0.000 C 
ATOM     10  C   UNL     1       6.041   5.001  18.915  0.00  0.00    +0.000 C 
ATOM     11  N   UNL     1       5.565   3.609  18.934  0.00  0.00    +0.000 NA
ATOM     12  C   UNL     1       4.212   3.542  19.505  0.00  0.00    +0.000 C 
ATOM     13  C   UNL     1       3.234   4.360  18.645  0.00  0.00    +0.000 C 
ATOM     14  C   UNL     1       3.034   3.724  17.260  0.00  0.00    +0.000 C 
ATOM     15  H   UNL     1       6.211   3.039  19.528  0.00  0.00    +0.000 HD
ENDBRANCH   4   8
BRANCH   7  16
ATOM     16  N   UNL     1       0.579  10.459  19.232  0.00  0.00    +0.000 N 
ATOM     17  C   UNL     1      -0.857  10.611  19.088  0.00  0.00    +0.000 C 
ATOM     18  C   UNL     1      -1.056  12.120  18.966  0.00  0.00    +0.000 C 
ATOM     19  C   UNL     1       0.029  12.659  19.870  0.00  0.00    +0.000 C 
ATOM     20  C   UNL     1       1.205  11.746  19.485  0.00  0.00    +0.000 C 
BRANCH  19  21
ATOM     21  O   UNL     1      -0.350  12.504  21.222  0.00  0.00    +0.000 OA
ATOM     22  H   UNL     1      -0.478  13.392  21.646  0.00  0.00    +0.000 HD
ENDBRANCH  19  21
ENDBRANCH   7  16
TORSDOF 3
ENDMDL
MODEL 4
REMARK VINA RESULT:      -7.0      0.714      1.043
REMARK  Name = 
REMARK  5 active torsions:
REMARK  status: ('A' for Active; 'I' for Inactive)
REMARK    1  A    between atoms: C_1  and  C_2
REMARK    2  A    between atoms: C_4  and  N_5
REMARK    3  A    between atoms: C_10  and  C_11
REMARK    4  A    between atoms: C_14  and  N_15
REMARK    5  A    between atoms: C_18  and  O_19
REMARK                            x       y       z     vdW  Elec       q    Type
REMARK                         _______ _______ _______ _____ _____    ______ ____
ROOT
ATOM      1  C   UNL     1       0.867   8.574  21.385  0.00  0.00    +0.000 C 
ATOM      2  C   UNL     1       1.417   8.429  19.988  0.00  0.00    +0.000 A 
ATOM      3  C   UNL     1       2.228   7.306  19.750  0.00  0.00    +0.000 A 
ATOM      4  C   UNL     1       2.887   7.099  18.527  0.00  0.00    +0.000 A 
ATOM      5  C   UNL     1       2.696   8.051  17.512  0.00  0.00    +0.000 A 
ATOM      6  C   UNL     1       1.884   9.165  17.718  0.00  0.00    +0.000 A 
ATOM      7  C   UNL     1       1.226   9.393  18.945  0.00  0.00    +0.000 A 
ENDROOT
BRANCH   4   8
ATOM      8  N   UNL     1       3.790   5.986  18.370  0.00  0.00    +0.000 N 
ATOM      9  C   UNL     1       4.104   5.432  17.053  0.00  0.00    +0.000 C 
ATOM     10  C   UNL     1       5.621   5.225  16.947  0.00  0.00    +0.000 C 
ATOM     11  N   UNL     1       6.090   4.382  18.058  0.00  0.00    +0.000 NA
ATOM     12  C   UNL     1       5.828   5.043  19.345  0.00  0.00    +0.000 C 
ATOM     13  C   UNL     1       4.317   5.262  19.529  0.00  0.00    +0.000 C 
ATOM     14  C   UNL     1       3.570   3.928  19.691  0.00  0.00    +0.000 C 
ATOM     15  H   UNL     1       7.121   4.234  17.958  0.00  0.00    +0.000 HD
ENDBRANCH   4   8
BRANCH   7  16
ATOM     16  N   UNL     1       0.427  10.590  19.088  0.00  0.00    +0.000 N 
ATOM     17  C   UNL     1       0.895  11.884  19.549  0.00  0.00    +0.000 C 
ATOM     18  C   UNL     1      -0.390  12.648  19.864  0.00  0.00    +0.000 C 
ATOM     19  C   UNL     1      -1.339  12.125  18.810  0.00  0.00    +0.000 C 
ATOM     20  C   UNL     1      -1.005  10.625  18.840  0.00  0.00    +0.000 C 
BRANCH  19  21
ATOM     21  O   UNL     1      -1.042  12.715  17.560  0.00  0.00    +0.000 OA
ATOM     22  H   UNL     1      -0.420  13.479  17.681  0.00  0.00    +0.000 HD
ENDBRANCH  19  21
ENDBRANCH   7  16
TORSDOF 3
ENDMDL
MODEL 5
REMARK VINA RESULT:      -6.7      1.168      1.914
REMARK  Name = 
REMARK  5 active torsions:
REMARK  status: ('A' for Active; 'I' for Inactive)
REMARK    1  A    between atoms: C_1  and  C_2
REMARK    2  A    between atoms: C_4  and  N_5
REMARK    3  A    between atoms: C_10  and  C_11
REMARK    4  A    between atoms: C_14  and  N_15
REMARK    5  A    between atoms: C_18  and  O_19
REMARK                            x       y       z     vdW  Elec       q    Type
REMARK                         _______ _______ _______ _____ _____    ______ ____
ROOT
ATOM      1  C   UNL     1       0.856   8.513  21.544  0.00  0.00    +0.000 C 
ATOM      2  C   UNL     1       1.382   8.427  20.133  0.00  0.00    +0.000 A 
ATOM      3  C   UNL     1       2.236   7.345  19.851  0.00  0.00    +0.000 A 
ATOM      4  C   UNL     1       2.877   7.198  18.610  0.00  0.00    +0.000 A 
ATOM      5  C   UNL     1       2.625   8.165  17.624  0.00  0.00    +0.000 A 
ATOM      6  C   UNL     1       1.770   9.238  17.874  0.00  0.00    +0.000 A 
ATOM      7  C   UNL     1       1.129   9.406  19.120  0.00  0.00    +0.000 A 
ENDROOT
BRANCH   4   8
ATOM      8  N   UNL     1       3.824   6.129  18.406  0.00  0.00    +0.000 N 
ATOM      9  C   UNL     1       4.253   5.264  19.505  0.00  0.00    +0.000 C 
ATOM     10  C   UNL     1       4.211   3.804  19.036  0.00  0.00    +0.000 C 
ATOM     11  N   UNL     1       5.025   3.644  17.821  0.00  0.00    +0.000 NA
ATOM     12  C   UNL     1       4.480   4.468  16.731  0.00  0.00    +0.000 C 
ATOM     13  C   UNL     1       4.514   5.954  17.126  0.00  0.00    +0.000 C 
ATOM     14  C   UNL     1       5.955   6.476  17.237  0.00  0.00    +0.000 C 
ATOM     15  H   UNL     1       5.002   2.639  17.528  0.00  0.00    +0.000 HD
ENDBRANCH   4   8
BRANCH   7  16
ATOM     16  N   UNL     1       0.283  10.564  19.309  0.00  0.00    +0.000 N 
ATOM     17  C   UNL     1      -1.119  10.671  18.949  0.00  0.00    +0.000 C 
ATOM     18  C   UNL     1      -1.400  12.171  19.007  0.00  0.00    +0.000 C 
ATOM     19  C   UNL     1      -0.512  12.618  20.146  0.00  0.00    +0.000 C 
ATOM     20  C   UNL     1       0.770  11.827  19.840  0.00  0.00    +0.000 C 
BRANCH  19  21
ATOM     21  O   UNL     1      -1.090  12.246  21.381  0.00  0.00    +0.000 OA
ATOM     22  H   UNL     1      -0.430  12.353  22.115  0.00  0.00    +0.000 HD
ENDBRANCH  19  21
ENDBRANCH   7  16
TORSDOF 3
ENDMDL
MODEL 6
REMARK VINA RESULT:      -6.7      1.074      1.959
REMARK  Name = 
REMARK  5 active torsions:
REMARK  status: ('A' for Active; 'I' for Inactive)
REMARK    1  A    between atoms: C_1  and  C_2
REMARK    2  A    between atoms: C_4  and  N_5
REMARK    3  A    between atoms: C_10  and  C_11
REMARK    4  A    between atoms: C_14  and  N_15
REMARK    5  A    between atoms: C_18  and  O_19
REMARK                            x       y       z     vdW  Elec       q    Type
REMARK                         _______ _______ _______ _____ _____    ______ ____
ROOT
ATOM      1  C   UNL     1       0.889   8.752  21.566  0.00  0.00    +0.000 C 
ATOM      2  C   UNL     1       1.429   8.334  20.222  0.00  0.00    +0.000 A 
ATOM      3  C   UNL     1       2.097   7.097  20.174  0.00  0.00    +0.000 A 
ATOM      4  C   UNL     1       2.736   6.632  19.013  0.00  0.00    +0.000 A 
ATOM      5  C   UNL     1       2.675   7.437  17.865  0.00  0.00    +0.000 A 
ATOM      6  C   UNL     1       2.006   8.661  17.882  0.00  0.00    +0.000 A 
ATOM      7  C   UNL     1       1.370   9.147  19.044  0.00  0.00    +0.000 A 
ENDROOT
BRANCH   4   8
ATOM      8  N   UNL     1       3.494   5.406  19.046  0.00  0.00    +0.000 N 
ATOM      9  C   UNL     1       3.169   4.326  19.978  0.00  0.00    +0.000 C 
ATOM     10  C   UNL     1       3.177   2.992  19.220  0.00  0.00    +0.000 C 
ATOM     11  N   UNL     1       4.472   2.807  18.547  0.00  0.00    +0.000 NA
ATOM     12  C   UNL     1       4.690   3.873  17.557  0.00  0.00    +0.000 C 
ATOM     13  C   UNL     1       4.717   5.243  18.255  0.00  0.00    +0.000 C 
ATOM     14  C   UNL     1       5.946   5.389  19.165  0.00  0.00    +0.000 C 
ATOM     15  H   UNL     1       4.468   1.884  18.053  0.00  0.00    +0.000 HD
ENDBRANCH   4   8
BRANCH   7  16
ATOM     16  N   UNL     1       0.726  10.441  18.987  0.00  0.00    +0.000 N 
ATOM     17  C   UNL     1      -0.698  10.686  18.852  0.00  0.00    +0.000 C 
ATOM     18  C   UNL     1      -0.782  12.161  18.469  0.00  0.00    +0.000 C 
ATOM     19  C   UNL     1       0.375  12.757  19.237  0.00  0.00    +0.000 C 
ATOM     20  C   UNL     1       1.460  11.696  18.994  0.00  0.00    +0.000 C 
BRANCH  19  21
ATOM     21  O   UNL     1       0.035  12.874  20.604  0.00  0.00    +0.000 OA
ATOM     22  H   UNL     1      -0.595  13.629  20.737  0.00  0.00    +0.000 HD
ENDBRANCH  19  21
ENDBRANCH   7  16
TORSDOF 3
ENDMDL
MODEL 7
REMARK VINA RESULT:      -6.7      3.052      7.190
REMARK  Name = 
REMARK  5 active torsions:
REMARK  status: ('A' for Active; 'I' for Inactive)
REMARK    1  A    between atoms: C_1  and  C_2
REMARK    2  A    between atoms: C_4  and  N_5
REMARK    3  A    between atoms: C_10  and  C_11
REMARK    4  A    between atoms: C_14  and  N_15
REMARK    5  A    between atoms: C_18  and  O_19
REMARK                            x       y       z     vdW  Elec       q    Type
REMARK                         _______ _______ _______ _____ _____    ______ ____
ROOT
ATOM      1  C   UNL     1       2.234   4.719  20.897  0.00  0.00    +0.000 C 
ATOM      2  C   UNL     1       2.218   6.034  20.160  0.00  0.00    +0.000 A 
ATOM      3  C   UNL     1       1.507   7.083  20.770  0.00  0.00    +0.000 A 
ATOM      4  C   UNL     1       1.325   8.329  20.148  0.00  0.00    +0.000 A 
ATOM      5  C   UNL     1       1.900   8.519  18.882  0.00  0.00    +0.000 A 
ATOM      6  C   UNL     1       2.622   7.500  18.262  0.00  0.00    +0.000 A 
ATOM      7  C   UNL     1       2.803   6.239  18.869  0.00  0.00    +0.000 A 
ENDROOT
BRANCH   4   8
ATOM      8  N   UNL     1       0.500   9.335  20.771  0.00  0.00    +0.000 N 
ATOM      9  C   UNL     1      -0.367   9.022  21.906  0.00  0.00    +0.000 C 
ATOM     10  C   UNL     1      -0.196  10.105  22.979  0.00  0.00    +0.000 C 
ATOM     11  N   UNL     1      -0.457  11.431  22.398  0.00  0.00    +0.000 NA
ATOM     12  C   UNL     1       0.511  11.719  21.330  0.00  0.00    +0.000 C 
ATOM     13  C   UNL     1       0.378  10.680  20.203  0.00  0.00    +0.000 C 
ATOM     14  C   UNL     1      -0.965  10.813  19.469  0.00  0.00    +0.000 C 
ATOM     15  H   UNL     1      -0.357  12.154  23.149  0.00  0.00    +0.000 HD
ENDBRANCH   4   8
BRANCH   7  16
ATOM     16  N   UNL     1       3.539   5.225  18.145  0.00  0.00    +0.000 N 
ATOM     17  C   UNL     1       4.973   5.197  17.924  0.00  0.00    +0.000 C 
ATOM     18  C   UNL     1       5.154   4.161  16.818  0.00  0.00    +0.000 C 
ATOM     19  C   UNL     1       4.064   3.163  17.134  0.00  0.00    +0.000 C 
ATOM     20  C   UNL     1       2.898   4.106  17.472  0.00  0.00    +0.000 C 
BRANCH  19  21
ATOM     21  O   UNL     1       4.447   2.365  18.236  0.00  0.00    +0.000 OA
ATOM     22  H   UNL     1       5.332   1.950  18.068  0.00  0.00    +0.000 HD
ENDBRANCH  19  21
ENDBRANCH   7  16
TORSDOF 3
ENDMDL
MODEL 8
REMARK VINA RESULT:      -6.7      1.978      2.938
REMARK  Name = 
REMARK  5 active torsions:
REMARK  status: ('A' for Active; 'I' for Inactive)
REMARK    1  A    between atoms: C_1  and  C_2
REMARK    2  A    between atoms: C_4  and  N_5
REMARK    3  A    between atoms: C_10  and  C_11
REMARK    4  A    between atoms: C_14  and  N_15
REMARK    5  A    between atoms: C_18  and  O_19
REMARK                            x       y       z     vdW  Elec       q    Type
REMARK                         _______ _______ _______ _____ _____    ______ ____
ROOT
ATOM      1  C   UNL     1       2.226   8.996  17.806  0.00  0.00    +0.000 C 
ATOM      2  C   UNL     1       2.194   7.890  18.830  0.00  0.00    +0.000 A 
ATOM      3  C   UNL     1       2.843   6.693  18.476  0.00  0.00    +0.000 A 
ATOM      4  C   UNL     1       2.805   5.549  19.290  0.00  0.00    +0.000 A 
ATOM      5  C   UNL     1       2.108   5.632  20.505  0.00  0.00    +0.000 A 
ATOM      6  C   UNL     1       1.471   6.813  20.886  0.00  0.00    +0.000 A 
ATOM      7  C   UNL     1       1.488   7.966  20.073  0.00  0.00    +0.000 A 
ENDROOT
BRANCH   4   8
ATOM      8  N   UNL     1       3.398   4.316  18.833  0.00  0.00    +0.000 N 
ATOM      9  C   UNL     1       4.432   3.629  19.605  0.00  0.00    +0.000 C 
ATOM     10  C   UNL     1       4.097   2.132  19.669  0.00  0.00    +0.000 C 
ATOM     11  N   UNL     1       3.938   1.597  18.308  0.00  0.00    +0.000 NA
ATOM     12  C   UNL     1       2.821   2.266  17.624  0.00  0.00    +0.000 C 
ATOM     13  C   UNL     1       3.102   3.774  17.504  0.00  0.00    +0.000 C 
ATOM     14  C   UNL     1       4.278   4.054  16.556  0.00  0.00    +0.000 C 
ATOM     15  H   UNL     1       3.731   0.573  18.369  0.00  0.00    +0.000 HD
ENDBRANCH   4   8
BRANCH   7  16
ATOM     16  N   UNL     1       0.775   9.140  20.527  0.00  0.00    +0.000 N 
ATOM     17  C   UNL     1      -0.414   9.710  19.919  0.00  0.00    +0.000 C 
ATOM     18  C   UNL     1      -0.513  11.101  20.541  0.00  0.00    +0.000 C 
ATOM     19  C   UNL     1       0.011  10.864  21.939  0.00  0.00    +0.000 C 
ATOM     20  C   UNL     1       1.216   9.956  21.646  0.00  0.00    +0.000 C 
BRANCH  19  21
ATOM     21  O   UNL     1      -0.974  10.213  22.717  0.00  0.00    +0.000 OA
ATOM     22  H   UNL     1      -0.704  10.202  23.672  0.00  0.00    +0.000 HD
ENDBRANCH  19  21
ENDBRANCH   7  16
TORSDOF 3
ENDMDL
MODEL 9
REMARK VINA RESULT:      -6.6      1.669      2.361
REMARK  Name = 
REMARK  5 active torsions:
REMARK  status: ('A' for Active; 'I' for Inactive)
REMARK    1  A    between atoms: C_1  and  C_2
REMARK    2  A    between atoms: C_4  and  N_5
REMARK    3  A    between atoms: C_10  and  C_11
REMARK    4  A    between atoms: C_14  and  N_15
REMARK    5  A    between atoms: C_18  and  O_19
REMARK                            x       y       z     vdW  Elec       q    Type
REMARK                         _______ _______ _______ _____ _____    ______ ____
ROOT
ATOM      1  C   UNL     1       1.902   9.690  17.715  0.00  0.00    +0.000 C 
ATOM      2  C   UNL     1       1.906   8.647  18.805  0.00  0.00    +0.000 A 
ATOM      3  C   UNL     1       2.616   7.464  18.534  0.00  0.00    +0.000 A 
ATOM      4  C   UNL     1       2.620   6.371  19.416  0.00  0.00    +0.000 A 
ATOM      5  C   UNL     1       1.900   6.494  20.615  0.00  0.00    +0.000 A 
ATOM      6  C   UNL     1       1.201   7.664  20.914  0.00  0.00    +0.000 A 
ATOM      7  C   UNL     1       1.178   8.765  20.032  0.00  0.00    +0.000 A 
ENDROOT
BRANCH   4   8
ATOM      8  N   UNL     1       3.277   5.143  19.044  0.00  0.00    +0.000 N 
ATOM      9  C   UNL     1       4.457   5.135  18.179  0.00  0.00    +0.000 C 
ATOM     10  C   UNL     1       5.513   4.200  18.784  0.00  0.00    +0.000 C 
ATOM     11  N   UNL     1       4.938   2.862  18.992  0.00  0.00    +0.000 NA
ATOM     12  C   UNL     1       3.819   2.931  19.944  0.00  0.00    +0.000 C 
ATOM     13  C   UNL     1       2.708   3.838  19.388  0.00  0.00    +0.000 C 
ATOM     14  C   UNL     1       2.042   3.218  18.150  0.00  0.00    +0.000 C 
ATOM     15  H   UNL     1       5.678   2.234  19.385  0.00  0.00    +0.000 HD
ENDBRANCH   4   8
BRANCH   7  16
ATOM     16  N   UNL     1       0.402   9.929  20.403  0.00  0.00    +0.000 N 
ATOM     17  C   UNL     1      -0.890  10.308  19.860  0.00  0.00    +0.000 C 
ATOM     18  C   UNL     1      -1.060  11.760  20.301  0.00  0.00    +0.000 C 
ATOM     19  C   UNL     1      -0.383  11.765  21.653  0.00  0.00    +0.000 C 
ATOM     20  C   UNL     1       0.870  10.927  21.350  0.00  0.00    +0.000 C 
BRANCH  19  21
ATOM     21  O   UNL     1      -1.220  11.152  22.612  0.00  0.00    +0.000 OA
ATOM     22  H   UNL     1      -0.696  10.524  23.174  0.00  0.00    +0.000 HD
ENDBRANCH  19  21
ENDBRANCH   7  16
TORSDOF 3
ENDMDL
