MODEL 1
REMARK VINA RESULT:      -7.1      0.000      0.000
REMARK  Name = 
REMARK  7 active torsions:
REMARK  status: ('A' for Active; 'I' for Inactive)
REMARK    1  A    between atoms: C_1  and  C_2
REMARK    2  A    between atoms: C_2  and  C_3
REMARK    3  A    between atoms: C_8  and  N_9
REMARK    4  A    between atoms: C_10  and  C_12
REMARK    5  A    between atoms: C_12  and  O_13
REMARK    6  A    between atoms: O_13  and  C_14
REMARK    7  A    between atoms: C_18  and  N_19
REMARK                            x       y       z     vdW  Elec       q    Type
REMARK                         _______ _______ _______ _____ _____    ______ ____
ROOT
ATOM      1  C   UNL     1       2.391   3.645  21.245  0.00  0.00    +0.000 C 
ENDROOT
BRANCH   1   3
ATOM      2  N   UNL     1       2.181   6.063  20.978  0.00  0.00    +0.000 N 
ATOM      3  C   UNL     1       1.558   4.842  20.787  0.00  0.00    +0.000 C 
ATOM      4  O   UNL     1       0.454   4.654  20.278  0.00  0.00    +0.000 OA
ATOM      5  H   UNL     1       3.012   6.029  21.559  0.00  0.00    +0.000 HD
BRANCH   2  11
ATOM      6  C   UNL     1       1.850   7.699  19.180  0.00  0.00    +0.000 A 
ATOM      7  C   UNL     1       1.372   8.961  18.764  0.00  0.00    +0.000 A 
ATOM      8  C   UNL     1       0.805   9.852  19.671  0.00  0.00    +0.000 A 
ATOM      9  C   UNL     1       0.693   9.493  21.005  0.00  0.00    +0.000 A 
ATOM     10  C   UNL     1       1.141   8.241  21.428  0.00  0.00    +0.000 A 
ATOM     11  C   UNL     1       1.729   7.331  20.538  0.00  0.00    +0.000 A 
BRANCH   6  13
ATOM     12  C   UNL     1       3.665   7.705  17.470  0.00  0.00    +0.000 C 
ATOM     13  C   UNL     1       2.583   6.872  18.146  0.00  0.00    +0.000 C 
ENDBRANCH   6  13
ENDBRANCH   2  11
ENDBRANCH   1   3
BRANCH   1  14
ATOM     14  O   UNL     1       2.713   2.774  20.167  0.00  0.00    +0.000 OA
BRANCH  14  15
ATOM     15  C   UNL     1       3.513   3.292  19.184  0.00  0.00    +0.000 A 
ATOM     16  C   UNL     1       3.151   2.915  17.891  0.00  0.00    +0.000 A 
ATOM     17  C   UNL     1       3.873   3.367  16.787  0.00  0.00    +0.000 A 
ATOM     18  C   UNL     1       4.978   4.200  16.968  0.00  0.00    +0.000 A 
ATOM     19  C   UNL     1       5.362   4.576  18.263  0.00  0.00    +0.000 A 
ATOM     20  C   UNL     1       4.621   4.120  19.373  0.00  0.00    +0.000 A 
BRANCH  19  21
ATOM     21  N   UNL     1       6.498   5.398  18.469  0.00  0.00    +0.000 N 
ATOM     22  C   UNL     1       6.947   6.469  17.735  0.00  0.00    +0.000 A 
ATOM     23  N   UNL     1       8.063   6.921  18.261  0.00  0.00    +0.000 NA
ATOM     24  N   UNL     1       8.308   6.125  19.348  0.00  0.00    +0.000 NA
ATOM     25  N   UNL     1       7.363   5.206  19.490  0.00  0.00    +0.000 NA
ENDBRANCH  19  21
ENDBRANCH  14  15
ENDBRANCH   1  14
TORSDOF 6
ENDMDL
MODEL 2
REMARK VINA RESULT:      -7.1      1.304      2.463
REMARK  Name = 
REMARK  7 active torsions:
REMARK  status: ('A' for Active; 'I' for Inactive)
REMARK    1  A    between atoms: C_1  and  C_2
REMARK    2  A    between atoms: C_2  and  C_3
REMARK    3  A    between atoms: C_8  and  N_9
REMARK    4  A    between atoms: C_10  and  C_12
REMARK    5  A    between atoms: C_12  and  O_13
REMARK    6  A    between atoms: O_13  and  C_14
REMARK    7  A    between atoms: C_18  and  N_19
REMARK                            x       y       z     vdW  Elec       q    Type
REMARK                         _______ _______ _______ _____ _____    ______ ____
ROOT
ATOM      1  C   UNL     1       2.174   3.542  21.734  0.00  0.00    +0.000 C 
ENDROOT
BRANCH   1   3
ATOM      2  N   UNL     1       2.398   5.766  20.750  0.00  0.00    +0.000 N 
ATOM      3  C   UNL     1       1.648   4.601  20.766  0.00  0.00    +0.000 C 
ATOM      4  O   UNL     1       0.659   4.358  20.077  0.00  0.00    +0.000 OA
ATOM      5  H   UNL     1       3.074   5.845  21.502  0.00  0.00    +0.000 HD
BRANCH   2  11
ATOM      6  C   UNL     1       1.541   8.017  20.286  0.00  0.00    +0.000 A 
ATOM      7  C   UNL     1       1.424   9.109  19.398  0.00  0.00    +0.000 A 
ATOM      8  C   UNL     1       1.975   9.061  18.120  0.00  0.00    +0.000 A 
ATOM      9  C   UNL     1       2.663   7.929  17.713  0.00  0.00    +0.000 A 
ATOM     10  C   UNL     1       2.805   6.850  18.587  0.00  0.00    +0.000 A 
ATOM     11  C   UNL     1       2.248   6.867  19.873  0.00  0.00    +0.000 A 
BRANCH   6  13
ATOM     12  C   UNL     1       0.050   9.449  21.681  0.00  0.00    +0.000 C 
ATOM     13  C   UNL     1       0.778   8.114  21.589  0.00  0.00    +0.000 C 
ENDBRANCH   6  13
ENDBRANCH   2  11
ENDBRANCH   1   3
BRANCH   1  14
ATOM     14  O   UNL     1       3.289   2.837  21.200  0.00  0.00    +0.000 OA
BRANCH  14  15
ATOM     15  C   UNL     1       3.482   2.937  19.849  0.00  0.00    +0.000 A 
ATOM     16  C   UNL     1       2.608   2.163  19.085  0.00  0.00    +0.000 A 
ATOM     17  C   UNL     1       2.685   2.164  17.692  0.00  0.00    +0.000 A 
ATOM     18  C   UNL     1       3.649   2.939  17.046  0.00  0.00    +0.000 A 
ATOM     19  C   UNL     1       4.542   3.712  17.802  0.00  0.00    +0.000 A 
ATOM     20  C   UNL     1       4.453   3.710  19.209  0.00  0.00    +0.000 A 
BRANCH  19  21
ATOM     21  N   UNL     1       5.546   4.483  17.165  0.00  0.00    +0.000 N 
ATOM     22  C   UNL     1       6.865   4.658  17.508  0.00  0.00    +0.000 A 
ATOM     23  N   UNL     1       7.430   5.486  16.661  0.00  0.00    +0.000 NA
ATOM     24  N   UNL     1       6.451   5.827  15.767  0.00  0.00    +0.000 NA
ATOM     25  N   UNL     1       5.309   5.219  16.055  0.00  0.00    +0.000 NA
ENDBRANCH  19  21
ENDBRANCH  14  15
ENDBRANCH   1  14
TORSDOF 6
ENDMDL
MODEL 3
REMARK VINA RESULT:      -7.1      0.669      1.966
REMARK  Name = 
REMARK  7 active torsions:
REMARK  status: ('A' for Active; 'I' for Inactive)
REMARK    1  A    between atoms: C_1  and  C_2
REMARK    2  A    between atoms: C_2  and  C_3
REMARK    3  A    between atoms: C_8  and  N_9
REMARK    4  A    between atoms: C_10  and  C_12
REMARK    5  A    between atoms: C_12  and  O_13
REMARK    6  A    between atoms: O_13  and  C_14
REMARK    7  A    between atoms: C_18  and  N_19
REMARK                            x       y       z     vdW  Elec       q    Type
REMARK                         _______ _______ _______ _____ _____    ______ ____
ROOT
ATOM      1  C   UNL     1       2.468   3.979  21.507  0.00  0.00    +0.000 C 
ENDROOT
BRANCH   1   3
ATOM      2  N   UNL     1       2.402   6.258  20.630  0.00  0.00    +0.000 N 
ATOM      3  C   UNL     1       1.725   5.052  20.709  0.00  0.00    +0.000 C 
ATOM      4  O   UNL     1       0.642   4.784  20.193  0.00  0.00    +0.000 OA
ATOM      5  H   UNL     1       3.197   6.340  21.254  0.00  0.00    +0.000 HD
BRANCH   2  11
ATOM      6  C   UNL     1       1.413   8.497  20.466  0.00  0.00    +0.000 A 
ATOM      7  C   UNL     1       1.084   9.621  19.677  0.00  0.00    +0.000 A 
ATOM      8  C   UNL     1       1.351   9.645  18.311  0.00  0.00    +0.000 A 
ATOM      9  C   UNL     1       1.964   8.554  17.712  0.00  0.00    +0.000 A 
ATOM     10  C   UNL     1       2.313   7.445  18.484  0.00  0.00    +0.000 A 
ATOM     11  C   UNL     1       2.042   7.389  19.857  0.00  0.00    +0.000 A 
BRANCH   6  13
ATOM     12  C   UNL     1      -0.488   9.027  21.990  0.00  0.00    +0.000 C 
ATOM     13  C   UNL     1       0.943   8.513  21.904  0.00  0.00    +0.000 C 
ENDBRANCH   6  13
ENDBRANCH   2  11
ENDBRANCH   1   3
BRANCH   1  14
ATOM     14  O   UNL     1       3.001   2.962  20.666  0.00  0.00    +0.000 OA
BRANCH  14  15
ATOM     15  C   UNL     1       3.679   3.385  19.554  0.00  0.00    +0.000 A 
ATOM     16  C   UNL     1       3.272   2.774  18.367  0.00  0.00    +0.000 A 
ATOM     17  C   UNL     1       3.872   3.105  17.152  0.00  0.00    +0.000 A 
ATOM     18  C   UNL     1       4.897   4.051  17.114  0.00  0.00    +0.000 A 
ATOM     19  C   UNL     1       5.325   4.663  18.301  0.00  0.00    +0.000 A 
ATOM     20  C   UNL     1       4.708   4.328  19.523  0.00  0.00    +0.000 A 
BRANCH  19  21
ATOM     21  N   UNL     1       6.384   5.606  18.286  0.00  0.00    +0.000 N 
ATOM     22  C   UNL     1       6.590   6.677  17.452  0.00  0.00    +0.000 A 
ATOM     23  N   UNL     1       7.720   7.266  17.769  0.00  0.00    +0.000 NA
ATOM     24  N   UNL     1       8.223   6.556  18.826  0.00  0.00    +0.000 NA
ATOM     25  N   UNL     1       7.419   5.556  19.155  0.00  0.00    +0.000 NA
ENDBRANCH  19  21
ENDBRANCH  14  15
ENDBRANCH   1  14
TORSDOF 6
ENDMDL
MODEL 4
REMARK VINA RESULT:      -7.1      2.809      6.958
REMARK  Name = 
REMARK  7 active torsions:
REMARK  status: ('A' for Active; 'I' for Inactive)
REMARK    1  A    between atoms: C_1  and  C_2
REMARK    2  A    between atoms: C_2  and  C_3
REMARK    3  A    between atoms: C_8  and  N_9
REMARK    4  A    between atoms: C_10  and  C_12
REMARK    5  A    between atoms: C_12  and  O_13
REMARK    6  A    between atoms: O_13  and  C_14
REMARK    7  A    between atoms: C_18  and  N_19
REMARK                            x       y       z     vdW  Elec       q    Type
REMARK                         _______ _______ _______ _____ _____    ______ ____
ROOT
ATOM      1  C   UNL     1       2.380   4.916  19.096  0.00  0.00    +0.000 C 
ENDROOT
BRANCH   1   3
ATOM      2  N   UNL     1       3.847   5.054  17.147  0.00  0.00    +0.000 N 
ATOM      3  C   UNL     1       3.638   4.437  18.370  0.00  0.00    +0.000 C 
ATOM      4  O   UNL     1       4.363   3.598  18.900  0.00  0.00    +0.000 OA
ATOM      5  H   UNL     1       3.059   5.594  16.804  0.00  0.00    +0.000 HD
BRANCH   2  11
ATOM      6  C   UNL     1       6.110   5.750  16.506  0.00  0.00    +0.000 A 
ATOM      7  C   UNL     1       7.236   5.587  15.670  0.00  0.00    +0.000 A 
ATOM      8  C   UNL     1       7.241   4.646  14.644  0.00  0.00    +0.000 A 
ATOM      9  C   UNL     1       6.130   3.841  14.446  0.00  0.00    +0.000 A 
ATOM     10  C   UNL     1       5.018   3.976  15.279  0.00  0.00    +0.000 A 
ATOM     11  C   UNL     1       4.981   4.926  16.309  0.00  0.00    +0.000 A 
BRANCH   6  13
ATOM     12  C   UNL     1       7.548   7.506  17.539  0.00  0.00    +0.000 C 
ATOM     13  C   UNL     1       6.151   6.901  17.488  0.00  0.00    +0.000 C 
ENDBRANCH   6  13
ENDBRANCH   2  11
ENDBRANCH   1   3
BRANCH   1  14
ATOM     14  O   UNL     1       2.678   5.873  20.106  0.00  0.00    +0.000 OA
BRANCH  14  15
ATOM     15  C   UNL     1       2.130   7.117  19.948  0.00  0.00    +0.000 A 
ATOM     16  C   UNL     1       2.270   7.647  18.665  0.00  0.00    +0.000 A 
ATOM     17  C   UNL     1       1.759   8.907  18.354  0.00  0.00    +0.000 A 
ATOM     18  C   UNL     1       1.106   9.658  19.332  0.00  0.00    +0.000 A 
ATOM     19  C   UNL     1       0.969   9.143  20.629  0.00  0.00    +0.000 A 
ATOM     20  C   UNL     1       1.483   7.865  20.933  0.00  0.00    +0.000 A 
BRANCH  19  21
ATOM     21  N   UNL     1       0.334   9.901  21.644  0.00  0.00    +0.000 N 
ATOM     22  C   UNL     1      -0.414   9.477  22.715  0.00  0.00    +0.000 A 
ATOM     23  N   UNL     1      -0.845  10.519  23.387  0.00  0.00    +0.000 NA
ATOM     24  N   UNL     1      -0.349  11.614  22.730  0.00  0.00    +0.000 NA
ATOM     25  N   UNL     1       0.374  11.252  21.680  0.00  0.00    +0.000 NA
ENDBRANCH  19  21
ENDBRANCH  14  15
ENDBRANCH   1  14
TORSDOF 6
ENDMDL
MODEL 5
REMARK VINA RESULT:      -7.0      2.982      4.079
REMARK  Name = 
REMARK  7 active torsions:
REMARK  status: ('A' for Active; 'I' for Inactive)
REMARK    1  A    between atoms: C_1  and  C_2
REMARK    2  A    between atoms: C_2  and  C_3
REMARK    3  A    between atoms: C_8  and  N_9
REMARK    4  A    between atoms: C_10  and  C_12
REMARK    5  A    between atoms: C_12  and  O_13
REMARK    6  A    between atoms: O_13  and  C_14
REMARK    7  A    between atoms: C_18  and  N_19
REMARK                            x       y       z     vdW  Elec       q    Type
REMARK                         _______ _______ _______ _____ _____    ______ ____
ROOT
ATOM      1  C   UNL     1       2.547   8.457  18.165  0.00  0.00    +0.000 C 
ENDROOT
BRANCH   1   3
ATOM      2  N   UNL     1       0.424   9.505  18.764  0.00  0.00    +0.000 N 
ATOM      3  C   UNL     1       1.659   9.700  18.168  0.00  0.00    +0.000 C 
ATOM      4  O   UNL     1       2.082  10.751  17.688  0.00  0.00    +0.000 OA
ATOM      5  H   UNL     1       0.192   8.535  18.951  0.00  0.00    +0.000 HD
BRANCH   2  11
ATOM      6  C   UNL     1      -1.735  10.557  18.263  0.00  0.00    +0.000 A 
ATOM      7  C   UNL     1      -2.707  11.533  18.572  0.00  0.00    +0.000 A 
ATOM      8  C   UNL     1      -2.514  12.438  19.612  0.00  0.00    +0.000 A 
ATOM      9  C   UNL     1      -1.354  12.374  20.370  0.00  0.00    +0.000 A 
ATOM     10  C   UNL     1      -0.394  11.401  20.089  0.00  0.00    +0.000 A 
ATOM     11  C   UNL     1      -0.557  10.488  19.039  0.00  0.00    +0.000 A 
BRANCH   6  13
ATOM     12  C   UNL     1      -2.624  10.569  15.933  0.00  0.00    +0.000 C 
ATOM     13  C   UNL     1      -1.975   9.724  17.022  0.00  0.00    +0.000 C 
ENDBRANCH   6  13
ENDBRANCH   2  11
ENDBRANCH   1   3
BRANCH   1  14
ATOM     14  O   UNL     1       1.815   7.278  17.852  0.00  0.00    +0.000 OA
BRANCH  14  15
ATOM     15  C   UNL     1       2.529   6.111  17.805  0.00  0.00    +0.000 A 
ATOM     16  C   UNL     1       1.761   4.960  17.988  0.00  0.00    +0.000 A 
ATOM     17  C   UNL     1       2.352   3.697  17.963  0.00  0.00    +0.000 A 
ATOM     18  C   UNL     1       3.728   3.572  17.762  0.00  0.00    +0.000 A 
ATOM     19  C   UNL     1       4.513   4.721  17.591  0.00  0.00    +0.000 A 
ATOM     20  C   UNL     1       3.906   5.994  17.610  0.00  0.00    +0.000 A 
BRANCH  19  21
ATOM     21  N   UNL     1       5.916   4.616  17.414  0.00  0.00    +0.000 N 
ATOM     22  C   UNL     1       6.649   4.564  16.254  0.00  0.00    +0.000 A 
ATOM     23  N   UNL     1       7.922   4.431  16.549  0.00  0.00    +0.000 NA
ATOM     24  N   UNL     1       7.985   4.411  17.917  0.00  0.00    +0.000 NA
ATOM     25  N   UNL     1       6.779   4.533  18.452  0.00  0.00    +0.000 NA
ENDBRANCH  19  21
ENDBRANCH  14  15
ENDBRANCH   1  14
TORSDOF 6
ENDMDL
MODEL 6
REMARK VINA RESULT:      -7.0      2.714      3.494
REMARK  Name = 
REMARK  7 active torsions:
REMARK  status: ('A' for Active; 'I' for Inactive)
REMARK    1  A    between atoms: C_1  and  C_2
REMARK    2  A    between atoms: C_2  and  C_3
REMARK    3  A    between atoms: C_8  and  N_9
REMARK    4  A    between atoms: C_10  and  C_12
REMARK    5  A    between atoms: C_12  and  O_13
REMARK    6  A    between atoms: O_13  and  C_14
REMARK    7  A    between atoms: C_18  and  N_19
REMARK                            x       y       z     vdW  Elec       q    Type
REMARK                         _______ _______ _______ _____ _____    ______ ____
ROOT
ATOM      1  C   UNL     1       3.138   5.224  19.188  0.00  0.00    +0.000 C 
ENDROOT
BRANCH   1   3
ATOM      2  N   UNL     1       2.305   7.410  19.892  0.00  0.00    +0.000 N 
ATOM      3  C   UNL     1       2.162   6.040  20.036  0.00  0.00    +0.000 C 
ATOM      4  O   UNL     1       1.335   5.460  20.737  0.00  0.00    +0.000 OA
ATOM      5  H   UNL     1       3.144   7.699  19.401  0.00  0.00    +0.000 HD
BRANCH   2  11
ATOM      6  C   UNL     1       0.902   9.400  19.595  0.00  0.00    +0.000 A 
ATOM      7  C   UNL     1       0.057  10.381  20.158  0.00  0.00    +0.000 A 
ATOM      8  C   UNL     1      -0.206  10.408  21.525  0.00  0.00    +0.000 A 
ATOM      9  C   UNL     1       0.359   9.447  22.350  0.00  0.00    +0.000 A 
ATOM     10  C   UNL     1       1.179   8.458  21.804  0.00  0.00    +0.000 A 
ATOM     11  C   UNL     1       1.471   8.418  20.434  0.00  0.00    +0.000 A 
BRANCH   6  13
ATOM     12  C   UNL     1       2.174  10.739  17.919  0.00  0.00    +0.000 C 
ATOM     13  C   UNL     1       1.241   9.552  18.128  0.00  0.00    +0.000 C 
ENDBRANCH   6  13
ENDBRANCH   2  11
ENDBRANCH   1   3
BRANCH   1  14
ATOM     14  O   UNL     1       3.697   5.994  18.129  0.00  0.00    +0.000 OA
BRANCH  14  15
ATOM     15  C   UNL     1       4.891   5.557  17.624  0.00  0.00    +0.000 A 
ATOM     16  C   UNL     1       5.865   5.304  18.590  0.00  0.00    +0.000 A 
ATOM     17  C   UNL     1       7.133   4.851  18.224  0.00  0.00    +0.000 A 
ATOM     18  C   UNL     1       7.443   4.655  16.878  0.00  0.00    +0.000 A 
ATOM     19  C   UNL     1       6.478   4.919  15.895  0.00  0.00    +0.000 A 
ATOM     20  C   UNL     1       5.197   5.368  16.275  0.00  0.00    +0.000 A 
BRANCH  19  21
ATOM     21  N   UNL     1       6.783   4.752  14.521  0.00  0.00    +0.000 N 
ATOM     22  C   UNL     1       6.266   3.863  13.611  0.00  0.00    +0.000 A 
ATOM     23  N   UNL     1       6.858   4.030  12.451  0.00  0.00    +0.000 NA
ATOM     24  N   UNL     1       7.755   5.048  12.637  0.00  0.00    +0.000 NA
ATOM     25  N   UNL     1       7.711   5.500  13.882  0.00  0.00    +0.000 NA
ENDBRANCH  19  21
ENDBRANCH  14  15
ENDBRANCH   1  14
TORSDOF 6
ENDMDL
MODEL 7
REMARK VINA RESULT:      -7.0      2.304      3.519
REMARK  Name = 
REMARK  7 active torsions:
REMARK  status: ('A' for Active; 'I' for Inactive)
REMARK    1  A    between atoms: C_1  and  C_2
REMARK    2  A    between atoms: C_2  and  C_3
REMARK    3  A    between atoms: C_8  and  N_9
REMARK    4  A    between atoms: C_10  and  C_12
REMARK    5  A    between atoms: C_12  and  O_13
REMARK    6  A    between atoms: O_13  and  C_14
REMARK    7  A    between atoms: C_18  and  N_19
REMARK                            x       y       z     vdW  Elec       q    Type
REMARK                         _______ _______ _______ _____ _____    ______ ____
ROOT
ATOM      1  C   UNL     1       3.121   3.770  18.870  0.00  0.00    +0.000 C 
ENDROOT
BRANCH   1   3
ATOM      2  N   UNL     1       2.746   6.164  19.180  0.00  0.00    +0.000 N 
ATOM      3  C   UNL     1       2.321   5.024  18.518  0.00  0.00    +0.000 C 
ATOM      4  O   UNL     1       1.413   4.954  17.691  0.00  0.00    +0.000 OA
ATOM      5  H   UNL     1       3.395   5.995  19.941  0.00  0.00    +0.000 HD
BRANCH   2  11
ATOM      6  C   UNL     1       1.544   8.155  19.960  0.00  0.00    +0.000 A 
ATOM      7  C   UNL     1       1.131   9.486  19.733  0.00  0.00    +0.000 A 
ATOM      8  C   UNL     1       1.437  10.143  18.544  0.00  0.00    +0.000 A 
ATOM      9  C   UNL     1       2.174   9.489  17.569  0.00  0.00    +0.000 A 
ATOM     10  C   UNL     1       2.608   8.180  17.788  0.00  0.00    +0.000 A 
ATOM     11  C   UNL     1       2.301   7.491  18.969  0.00  0.00    +0.000 A 
BRANCH   6  13
ATOM     12  C   UNL     1      -0.109   8.297  21.821  0.00  0.00    +0.000 C 
ATOM     13  C   UNL     1       1.030   7.486  21.216  0.00  0.00    +0.000 C 
ENDBRANCH   6  13
ENDBRANCH   2  11
ENDBRANCH   1   3
BRANCH   1  14
ATOM     14  O   UNL     1       4.326   4.082  19.560  0.00  0.00    +0.000 OA
BRANCH  14  15
ATOM     15  C   UNL     1       5.356   4.567  18.799  0.00  0.00    +0.000 A 
ATOM     16  C   UNL     1       6.302   5.301  19.515  0.00  0.00    +0.000 A 
ATOM     17  C   UNL     1       7.409   5.856  18.873  0.00  0.00    +0.000 A 
ATOM     18  C   UNL     1       7.577   5.687  17.498  0.00  0.00    +0.000 A 
ATOM     19  C   UNL     1       6.627   4.963  16.764  0.00  0.00    +0.000 A 
ATOM     20  C   UNL     1       5.514   4.399  17.423  0.00  0.00    +0.000 A 
BRANCH  19  21
ATOM     21  N   UNL     1       6.765   4.804  15.362  0.00  0.00    +0.000 N 
ATOM     22  C   UNL     1       6.049   4.014  14.496  0.00  0.00    +0.000 A 
ATOM     23  N   UNL     1       6.535   4.145  13.283  0.00  0.00    +0.000 NA
ATOM     24  N   UNL     1       7.566   5.039  13.392  0.00  0.00    +0.000 NA
ATOM     25  N   UNL     1       7.708   5.454  14.643  0.00  0.00    +0.000 NA
ENDBRANCH  19  21
ENDBRANCH  14  15
ENDBRANCH   1  14
TORSDOF 6
ENDMDL
MODEL 8
REMARK VINA RESULT:      -6.9      2.687      3.820
REMARK  Name = 
REMARK  7 active torsions:
REMARK  status: ('A' for Active; 'I' for Inactive)
REMARK    1  A    between atoms: C_1  and  C_2
REMARK    2  A    between atoms: C_2  and  C_3
REMARK    3  A    between atoms: C_8  and  N_9
REMARK    4  A    between atoms: C_10  and  C_12
REMARK    5  A    between atoms: C_12  and  O_13
REMARK    6  A    between atoms: O_13  and  C_14
REMARK    7  A    between atoms: C_18  and  N_19
REMARK                            x       y       z     vdW  Elec       q    Type
REMARK                         _______ _______ _______ _____ _____    ______ ____
ROOT
ATOM      1  C   UNL     1       1.825   7.577  20.395  0.00  0.00    +0.000 C 
ENDROOT
BRANCH   1   3
ATOM      2  N   UNL     1       0.660   9.689  20.007  0.00  0.00    +0.000 N 
ATOM      3  C   UNL     1       0.686   8.528  20.763  0.00  0.00    +0.000 C 
ATOM      4  O   UNL     1      -0.110   8.210  21.644  0.00  0.00    +0.000 OA
ATOM      5  H   UNL     1       1.491   9.848  19.447  0.00  0.00    +0.000 HD
BRANCH   2  11
ATOM      6  C   UNL     1      -1.283  10.767  18.970  0.00  0.00    +0.000 A 
ATOM      7  C   UNL     1      -2.282  11.764  19.015  0.00  0.00    +0.000 A 
ATOM      8  C   UNL     1      -2.337  12.683  20.059  0.00  0.00    +0.000 A 
ATOM      9  C   UNL     1      -1.405  12.613  21.084  0.00  0.00    +0.000 A 
ATOM     10  C   UNL     1      -0.425  11.619  21.064  0.00  0.00    +0.000 A 
ATOM     11  C   UNL     1      -0.339  10.692  20.017  0.00  0.00    +0.000 A 
BRANCH   6  13
ATOM     12  C   UNL     1      -2.322  10.328  16.746  0.00  0.00    +0.000 C 
ATOM     13  C   UNL     1      -1.222   9.919  17.719  0.00  0.00    +0.000 C 
ENDBRANCH   6  13
ENDBRANCH   2  11
ENDBRANCH   1   3
BRANCH   1  14
ATOM     14  O   UNL     1       2.250   7.749  19.048  0.00  0.00    +0.000 OA
BRANCH  14  15
ATOM     15  C   UNL     1       2.785   6.650  18.432  0.00  0.00    +0.000 A 
ATOM     16  C   UNL     1       2.021   5.490  18.563  0.00  0.00    +0.000 A 
ATOM     17  C   UNL     1       2.440   4.290  17.987  0.00  0.00    +0.000 A 
ATOM     18  C   UNL     1       3.639   4.238  17.276  0.00  0.00    +0.000 A 
ATOM     19  C   UNL     1       4.424   5.393  17.147  0.00  0.00    +0.000 A 
ATOM     20  C   UNL     1       3.989   6.603  17.727  0.00  0.00    +0.000 A 
BRANCH  19  21
ATOM     21  N   UNL     1       5.659   5.353  16.453  0.00  0.00    +0.000 N 
ATOM     22  C   UNL     1       6.207   4.344  15.701  0.00  0.00    +0.000 A 
ATOM     23  N   UNL     1       7.389   4.716  15.266  0.00  0.00    +0.000 NA
ATOM     24  N   UNL     1       7.577   5.985  15.746  0.00  0.00    +0.000 NA
ATOM     25  N   UNL     1       6.533   6.385  16.457  0.00  0.00    +0.000 NA
ENDBRANCH  19  21
ENDBRANCH  14  15
ENDBRANCH   1  14
TORSDOF 6
ENDMDL
MODEL 9
REMARK VINA RESULT:      -6.8      3.366      4.768
REMARK  Name = 
REMARK  7 active torsions:
REMARK  status: ('A' for Active; 'I' for Inactive)
REMARK    1  A    between atoms: C_1  and  C_2
REMARK    2  A    between atoms: C_2  and  C_3
REMARK    3  A    between atoms: C_8  and  N_9
REMARK    4  A    between atoms: C_10  and  C_12
REMARK    5  A    between atoms: C_12  and  O_13
REMARK    6  A    between atoms: O_13  and  C_14
REMARK    7  A    between atoms: C_18  and  N_19
REMARK                            x       y       z     vdW  Elec       q    Type
REMARK                         _______ _______ _______ _____ _____    ______ ____
ROOT
ATOM      1  C   UNL     1       2.063   8.927  17.775  0.00  0.00    +0.000 C 
ENDROOT
BRANCH   1   3
ATOM      2  N   UNL     1      -0.081  10.081  17.585  0.00  0.00    +0.000 N 
ATOM      3  C   UNL     1       0.802   9.460  18.453  0.00  0.00    +0.000 C 
ATOM      4  O   UNL     1       0.644   9.291  19.661  0.00  0.00    +0.000 OA
ATOM      5  H   UNL     1       0.295  10.270  16.662  0.00  0.00    +0.000 HD
BRANCH   2  11
ATOM      6  C   UNL     1      -1.559  11.743  18.619  0.00  0.00    +0.000 A 
ATOM      7  C   UNL     1      -2.868  12.202  18.883  0.00  0.00    +0.000 A 
ATOM      8  C   UNL     1      -3.983  11.490  18.449  0.00  0.00    +0.000 A 
ATOM      9  C   UNL     1      -3.809  10.317  17.731  0.00  0.00    +0.000 A 
ATOM     10  C   UNL     1      -2.521   9.862  17.444  0.00  0.00    +0.000 A 
ATOM     11  C   UNL     1      -1.383  10.552  17.882  0.00  0.00    +0.000 A 
BRANCH   6  13
ATOM     12  C   UNL     1      -0.243  13.862  18.586  0.00  0.00    +0.000 C 
ATOM     13  C   UNL     1      -0.425  12.510  19.264  0.00  0.00    +0.000 C 
ENDBRANCH   6  13
ENDBRANCH   2  11
ENDBRANCH   1   3
BRANCH   1  14
ATOM     14  O   UNL     1       2.796   8.051  18.624  0.00  0.00    +0.000 OA
BRANCH  14  15
ATOM     15  C   UNL     1       3.210   6.870  18.069  0.00  0.00    +0.000 A 
ATOM     16  C   UNL     1       2.478   5.756  18.481  0.00  0.00    +0.000 A 
ATOM     17  C   UNL     1       2.784   4.483  17.998  0.00  0.00    +0.000 A 
ATOM     18  C   UNL     1       3.838   4.311  17.099  0.00  0.00    +0.000 A 
ATOM     19  C   UNL     1       4.590   5.420  16.687  0.00  0.00    +0.000 A 
ATOM     20  C   UNL     1       4.269   6.704  17.175  0.00  0.00    +0.000 A 
BRANCH  19  21
ATOM     21  N   UNL     1       5.682   5.262  15.797  0.00  0.00    +0.000 N 
ATOM     22  C   UNL     1       5.772   4.515  14.649  0.00  0.00    +0.000 A 
ATOM     23  N   UNL     1       6.982   4.626  14.150  0.00  0.00    +0.000 NA
ATOM     24  N   UNL     1       7.655   5.465  14.996  0.00  0.00    +0.000 NA
ATOM     25  N   UNL     1       6.876   5.865  15.991  0.00  0.00    +0.000 NA
ENDBRANCH  19  21
ENDBRANCH  14  15
ENDBRANCH   1  14
TORSDOF 6
ENDMDL
