MODEL 1
REMARK VINA RESULT:      -7.3      0.000      0.000
REMARK  Name = 
REMARK  11 active torsions:
REMARK  status: ('A' for Active; 'I' for Inactive)
REMARK    1  A    between atoms: C_1  and  O_2
REMARK    2  A    between atoms: O_2  and  C_3
REMARK    3  A    between atoms: C_6  and  C_7
REMARK    4  A    between atoms: N_9  and  C_10
REMARK    5  A    between atoms: C_10  and  C_11
REMARK    6  A    between atoms: C_10  and  C_15
REMARK    7  A    between atoms: N_13  and  O_14
REMARK    8  A    between atoms: C_15  and  C_16
REMARK    9  A    between atoms: C_15  and  C_17
REMARK   10  A    between atoms: C_19  and  O_20
REMARK   11  A    between atoms: O_20  and  C_21
REMARK                            x       y       z     vdW  Elec       q    Type
REMARK                         _______ _______ _______ _____ _____    ______ ____
ROOT
ATOM      1  C   UNL     1       2.516   5.308  19.732  0.00  0.00    +0.000 A 
ATOM      2  C   UNL     1       1.955   6.250  20.607  0.00  0.00    +0.000 A 
ATOM      3  C   UNL     1       1.691   7.549  20.187  0.00  0.00    +0.000 A 
ATOM      4  C   UNL     1       2.049   7.959  18.905  0.00  0.00    +0.000 A 
ATOM      5  C   UNL     1       2.756   7.064  18.087  0.00  0.00    +0.000 A 
ATOM      6  C   UNL     1       3.003   5.733  18.490  0.00  0.00    +0.000 A 
ENDROOT
BRANCH   4   7
ATOM      7  C   UNL     1       1.594   9.315  18.486  0.00  0.00    +0.000 C 
ATOM      8  O   UNL     1       2.167   9.880  17.555  0.00  0.00    +0.000 OA
ATOM      9  N   UNL     1       0.566   9.917  19.163  0.00  0.00    +0.000 N 
ATOM     10  H   UNL     1      -0.000   9.410  19.834  0.00  0.00    +0.000 HD
BRANCH   9  11
ATOM     11  C   UNL     1       0.102  11.251  18.774  0.00  0.00    +0.000 C 
BRANCH  11  12
ATOM     12  C   UNL     1      -1.290  11.056  18.167  0.00  0.00    +0.000 C 
ATOM     13  O   UNL     1      -1.958  10.033  18.314  0.00  0.00    +0.000 OA
ATOM     14  N   UNL     1      -1.728  12.117  17.402  0.00  0.00    +0.000 N 
ATOM     15  H   UNL     1      -1.065  12.713  16.915  0.00  0.00    +0.000 HD
BRANCH  14  16
ATOM     16  O   UNL     1      -2.971  11.917  16.751  0.00  0.00    +0.000 OA
ATOM     17  H   UNL     1      -2.740  12.051  15.804  0.00  0.00    +0.000 HD
ENDBRANCH  14  16
ENDBRANCH  11  12
BRANCH  11  18
ATOM     18  C   UNL     1       0.065  12.221  19.975  0.00  0.00    +0.000 C 
ATOM     19  C   UNL     1       0.136  11.459  21.304  0.00  0.00    +0.000 C 
ATOM     20  C   UNL     1       1.229  13.219  19.917  0.00  0.00    +0.000 C 
ENDBRANCH  11  18
ENDBRANCH   9  11
ENDBRANCH   4   7
BRANCH   1  22
ATOM     21  C   UNL     1       2.233   3.767  21.474  0.00  0.00    +0.000 C 
ATOM     22  O   UNL     1       2.573   3.984  20.098  0.00  0.00    +0.000 OA
ENDBRANCH   1  22
BRANCH   6  23
ATOM     23  O   UNL     1       3.726   5.050  17.554  0.00  0.00    +0.000 OA
BRANCH  23  24
ATOM     24  C   UNL     1       5.015   5.452  17.102  0.00  0.00    +0.000 C 
ATOM     25  C   UNL     1       6.112   4.949  18.034  0.00  0.00    +0.000 C 
ATOM     26  C   UNL     1       7.309   4.616  17.157  0.00  0.00    +0.000 C 
ATOM     27  C   UNL     1       6.768   4.339  15.764  0.00  0.00    +0.000 C 
ATOM     28  C   UNL     1       5.292   4.716  15.779  0.00  0.00    +0.000 C 
ENDBRANCH  23  24
ENDBRANCH   6  23
TORSDOF 8
ENDMDL
MODEL 2
REMARK VINA RESULT:      -7.3      2.255      4.096
REMARK  Name = 
REMARK  11 active torsions:
REMARK  status: ('A' for Active; 'I' for Inactive)
REMARK    1  A    between atoms: C_1  and  O_2
REMARK    2  A    between atoms: O_2  and  C_3
REMARK    3  A    between atoms: C_6  and  C_7
REMARK    4  A    between atoms: N_9  and  C_10
REMARK    5  A    between atoms: C_10  and  C_11
REMARK    6  A    between atoms: C_10  and  C_15
REMARK    7  A    between atoms: N_13  and  O_14
REMARK    8  A    between atoms: C_15  and  C_16
REMARK    9  A    between atoms: C_15  and  C_17
REMARK   10  A    between atoms: C_19  and  O_20
REMARK   11  A    between atoms: O_20  and  C_21
REMARK                            x       y       z     vdW  Elec       q    Type
REMARK                         _______ _______ _______ _____ _____    ______ ____
ROOT
ATOM      1  C   UNL     1       4.163   4.999  17.120  0.00  0.00    +0.000 A 
ATOM      2  C   UNL     1       4.512   6.357  17.050  0.00  0.00    +0.000 A 
ATOM      3  C   UNL     1       3.764   7.323  17.713  0.00  0.00    +0.000 A 
ATOM      4  C   UNL     1       2.608   6.965  18.404  0.00  0.00    +0.000 A 
ATOM      5  C   UNL     1       2.173   5.633  18.338  0.00  0.00    +0.000 A 
ATOM      6  C   UNL     1       2.938   4.637  17.693  0.00  0.00    +0.000 A 
ENDROOT
BRANCH   4   7
ATOM      7  C   UNL     1       1.954   8.034  19.211  0.00  0.00    +0.000 C 
ATOM      8  O   UNL     1       1.851   7.888  20.429  0.00  0.00    +0.000 OA
ATOM      9  N   UNL     1       1.456   9.142  18.579  0.00  0.00    +0.000 N 
ATOM     10  H   UNL     1       1.658   9.336  17.604  0.00  0.00    +0.000 HD
BRANCH   9  11
ATOM     11  C   UNL     1       0.806  10.206  19.348  0.00  0.00    +0.000 C 
BRANCH  11  12
ATOM     12  C   UNL     1       1.552  11.498  19.000  0.00  0.00    +0.000 C 
ATOM     13  O   UNL     1       1.656  12.451  19.772  0.00  0.00    +0.000 OA
ATOM     14  N   UNL     1       2.074  11.524  17.724  0.00  0.00    +0.000 N 
ATOM     15  H   UNL     1       1.634  11.001  16.973  0.00  0.00    +0.000 HD
BRANCH  14  16
ATOM     16  O   UNL     1       2.683  12.748  17.348  0.00  0.00    +0.000 OA
ATOM     17  H   UNL     1       1.907  13.325  17.165  0.00  0.00    +0.000 HD
ENDBRANCH  14  16
ENDBRANCH  11  12
BRANCH  11  18
ATOM     18  C   UNL     1      -0.699  10.316  19.020  0.00  0.00    +0.000 C 
ATOM     19  C   UNL     1      -1.203  11.752  19.208  0.00  0.00    +0.000 C 
ATOM     20  C   UNL     1      -0.986   9.878  17.578  0.00  0.00    +0.000 C 
ENDBRANCH  11  18
ENDBRANCH   9  11
ENDBRANCH   4   7
BRANCH   1  22
ATOM     21  C   UNL     1       5.764   4.487  15.488  0.00  0.00    +0.000 C 
ATOM     22  O   UNL     1       5.028   4.046  16.636  0.00  0.00    +0.000 OA
ENDBRANCH   1  22
BRANCH   6  23
ATOM     23  O   UNL     1       2.316   3.421  17.728  0.00  0.00    +0.000 OA
BRANCH  23  24
ATOM     24  C   UNL     1       2.273   2.587  18.882  0.00  0.00    +0.000 C 
ATOM     25  C   UNL     1       3.340   2.986  19.896  0.00  0.00    +0.000 C 
ATOM     26  C   UNL     1       2.737   2.756  21.273  0.00  0.00    +0.000 C 
ATOM     27  C   UNL     1       1.228   2.820  21.108  0.00  0.00    +0.000 C 
ATOM     28  C   UNL     1       0.948   2.873  19.611  0.00  0.00    +0.000 C 
ENDBRANCH  23  24
ENDBRANCH   6  23
TORSDOF 8
ENDMDL
MODEL 3
REMARK VINA RESULT:      -7.1      1.645      3.347
REMARK  Name = 
REMARK  11 active torsions:
REMARK  status: ('A' for Active; 'I' for Inactive)
REMARK    1  A    between atoms: C_1  and  O_2
REMARK    2  A    between atoms: O_2  and  C_3
REMARK    3  A    between atoms: C_6  and  C_7
REMARK    4  A    between atoms: N_9  and  C_10
REMARK    5  A    between atoms: C_10  and  C_11
REMARK    6  A    between atoms: C_10  and  C_15
REMARK    7  A    between atoms: N_13  and  O_14
REMARK    8  A    between atoms: C_15  and  C_16
REMARK    9  A    between atoms: C_15  and  C_17
REMARK   10  A    between atoms: C_19  and  O_20
REMARK   11  A    between atoms: O_20  and  C_21
REMARK                            x       y       z     vdW  Elec       q    Type
REMARK                         _______ _______ _______ _____ _____    ______ ____
ROOT
ATOM      1  C   UNL     1       3.662   5.288  17.716  0.00  0.00    +0.000 A 
ATOM      2  C   UNL     1       4.299   6.492  17.379  0.00  0.00    +0.000 A 
ATOM      3  C   UNL     1       3.658   7.714  17.553  0.00  0.00    +0.000 A 
ATOM      4  C   UNL     1       2.338   7.758  17.999  0.00  0.00    +0.000 A 
ATOM      5  C   UNL     1       1.651   6.548  18.180  0.00  0.00    +0.000 A 
ATOM      6  C   UNL     1       2.299   5.302  18.036  0.00  0.00    +0.000 A 
ENDROOT
BRANCH   4   7
ATOM      7  C   UNL     1       1.781   9.106  18.302  0.00  0.00    +0.000 C 
ATOM      8  O   UNL     1       2.133  10.069  17.620  0.00  0.00    +0.000 OA
ATOM      9  N   UNL     1       0.911   9.253  19.350  0.00  0.00    +0.000 N 
ATOM     10  H   UNL     1       0.510   8.453  19.826  0.00  0.00    +0.000 HD
BRANCH   9  11
ATOM     11  C   UNL     1       0.351  10.568  19.671  0.00  0.00    +0.000 C 
BRANCH  11  12
ATOM     12  C   UNL     1      -0.755  10.822  18.643  0.00  0.00    +0.000 C 
ATOM     13  O   UNL     1      -1.675  10.034  18.427  0.00  0.00    +0.000 OA
ATOM     14  N   UNL     1      -0.617  12.002  17.943  0.00  0.00    +0.000 N 
ATOM     15  H   UNL     1       0.302  12.401  17.777  0.00  0.00    +0.000 HD
BRANCH  14  16
ATOM     16  O   UNL     1      -1.575  12.210  16.919  0.00  0.00    +0.000 OA
ATOM     17  H   UNL     1      -1.451  11.419  16.348  0.00  0.00    +0.000 HD
ENDBRANCH  14  16
ENDBRANCH  11  12
BRANCH  11  18
ATOM     18  C   UNL     1      -0.194  10.625  21.115  0.00  0.00    +0.000 C 
ATOM     19  C   UNL     1       0.603   9.699  22.043  0.00  0.00    +0.000 C 
ATOM     20  C   UNL     1      -0.135  12.052  21.674  0.00  0.00    +0.000 C 
ENDBRANCH  11  18
ENDBRANCH   9  11
ENDBRANCH   4   7
BRANCH   1  22
ATOM     21  C   UNL     1       5.048   3.888  18.983  0.00  0.00    +0.000 C 
ATOM     22  O   UNL     1       4.381   4.117  17.735  0.00  0.00    +0.000 OA
ENDBRANCH   1  22
BRANCH   6  23
ATOM     23  O   UNL     1       1.437   4.261  18.233  0.00  0.00    +0.000 OA
BRANCH  23  24
ATOM     24  C   UNL     1       1.083   3.758  19.518  0.00  0.00    +0.000 C 
ATOM     25  C   UNL     1       1.692   2.382  19.764  0.00  0.00    +0.000 C 
ATOM     26  C   UNL     1       2.043   2.321  21.242  0.00  0.00    +0.000 C 
ATOM     27  C   UNL     1       2.217   3.755  21.712  0.00  0.00    +0.000 C 
ATOM     28  C   UNL     1       1.763   4.654  20.569  0.00  0.00    +0.000 C 
ENDBRANCH  23  24
ENDBRANCH   6  23
TORSDOF 8
ENDMDL
MODEL 4
REMARK VINA RESULT:      -7.1      1.297      3.237
REMARK  Name = 
REMARK  11 active torsions:
REMARK  status: ('A' for Active; 'I' for Inactive)
REMARK    1  A    between atoms: C_1  and  O_2
REMARK    2  A    between atoms: O_2  and  C_3
REMARK    3  A    between atoms: C_6  and  C_7
REMARK    4  A    between atoms: N_9  and  C_10
REMARK    5  A    between atoms: C_10  and  C_11
REMARK    6  A    between atoms: C_10  and  C_15
REMARK    7  A    between atoms: N_13  and  O_14
REMARK    8  A    between atoms: C_15  and  C_16
REMARK    9  A    between atoms: C_15  and  C_17
REMARK   10  A    between atoms: C_19  and  O_20
REMARK   11  A    between atoms: O_20  and  C_21
REMARK                            x       y       z     vdW  Elec       q    Type
REMARK                         _______ _______ _______ _____ _____    ______ ____
ROOT
ATOM      1  C   UNL     1       3.858   5.855  18.763  0.00  0.00    +0.000 A 
ATOM      2  C   UNL     1       4.020   6.677  17.637  0.00  0.00    +0.000 A 
ATOM      3  C   UNL     1       3.266   7.835  17.481  0.00  0.00    +0.000 A 
ATOM      4  C   UNL     1       2.281   8.162  18.411  0.00  0.00    +0.000 A 
ATOM      5  C   UNL     1       2.010   7.256  19.448  0.00  0.00    +0.000 A 
ATOM      6  C   UNL     1       2.788   6.092  19.634  0.00  0.00    +0.000 A 
ENDROOT
BRANCH   4   7
ATOM      7  C   UNL     1       1.629   9.492  18.252  0.00  0.00    +0.000 C 
ATOM      8  O   UNL     1       2.220  10.381  17.639  0.00  0.00    +0.000 OA
ATOM      9  N   UNL     1       0.398   9.708  18.814  0.00  0.00    +0.000 N 
ATOM     10  H   UNL     1      -0.154   8.948  19.196  0.00  0.00    +0.000 HD
BRANCH   9  11
ATOM     11  C   UNL     1      -0.264  11.007  18.675  0.00  0.00    +0.000 C 
BRANCH  11  12
ATOM     12  C   UNL     1      -1.477  10.771  17.769  0.00  0.00    +0.000 C 
ATOM     13  O   UNL     1      -2.153   9.743  17.793  0.00  0.00    +0.000 OA
ATOM     14  N   UNL     1      -1.733  11.801  16.888  0.00  0.00    +0.000 N 
ATOM     15  H   UNL     1      -0.980  12.391  16.547  0.00  0.00    +0.000 HD
BRANCH  14  16
ATOM     16  O   UNL     1      -2.790  11.561  15.974  0.00  0.00    +0.000 OA
ATOM     17  H   UNL     1      -3.197  10.739  16.329  0.00  0.00    +0.000 HD
ENDBRANCH  14  16
ENDBRANCH  11  12
BRANCH  11  18
ATOM     18  C   UNL     1      -0.683  11.589  20.042  0.00  0.00    +0.000 C 
ATOM     19  C   UNL     1      -0.234  10.678  21.192  0.00  0.00    +0.000 C 
ATOM     20  C   UNL     1      -0.085  12.985  20.257  0.00  0.00    +0.000 C 
ENDBRANCH  11  18
ENDBRANCH   9  11
ENDBRANCH   4   7
BRANCH   1  22
ATOM     21  C   UNL     1       6.078   5.138  18.548  0.00  0.00    +0.000 C 
ATOM     22  O   UNL     1       4.751   4.837  19.000  0.00  0.00    +0.000 OA
ENDBRANCH   1  22
BRANCH   6  23
ATOM     23  O   UNL     1       2.334   5.346  20.684  0.00  0.00    +0.000 OA
BRANCH  23  24
ATOM     24  C   UNL     1       1.526   4.182  20.537  0.00  0.00    +0.000 C 
ATOM     25  C   UNL     1       1.096   3.984  19.087  0.00  0.00    +0.000 C 
ATOM     26  C   UNL     1       1.066   2.483  18.845  0.00  0.00    +0.000 C 
ATOM     27  C   UNL     1       2.006   1.855  19.861  0.00  0.00    +0.000 C 
ATOM     28  C   UNL     1       2.416   2.960  20.826  0.00  0.00    +0.000 C 
ENDBRANCH  23  24
ENDBRANCH   6  23
TORSDOF 8
ENDMDL
MODEL 5
REMARK VINA RESULT:      -7.1      2.025      2.488
REMARK  Name = 
REMARK  11 active torsions:
REMARK  status: ('A' for Active; 'I' for Inactive)
REMARK    1  A    between atoms: C_1  and  O_2
REMARK    2  A    between atoms: O_2  and  C_3
REMARK    3  A    between atoms: C_6  and  C_7
REMARK    4  A    between atoms: N_9  and  C_10
REMARK    5  A    between atoms: C_10  and  C_11
REMARK    6  A    between atoms: C_10  and  C_15
REMARK    7  A    between atoms: N_13  and  O_14
REMARK    8  A    between atoms: C_15  and  C_16
REMARK    9  A    between atoms: C_15  and  C_17
REMARK   10  A    between atoms: C_19  and  O_20
REMARK   11  A    between atoms: O_20  and  C_21
REMARK                            x       y       z     vdW  Elec       q    Type
REMARK                         _______ _______ _______ _____ _____    ______ ____
ROOT
ATOM      1  C   UNL     1       2.574   4.459  19.197  0.00  0.00    +0.000 A 
ATOM      2  C   UNL     1       2.005   4.730  20.451  0.00  0.00    +0.000 A 
ATOM      3  C   UNL     1       1.680   6.030  20.823  0.00  0.00    +0.000 A 
ATOM      4  C   UNL     1       1.980   7.098  19.981  0.00  0.00    +0.000 A 
ATOM      5  C   UNL     1       2.695   6.842  18.801  0.00  0.00    +0.000 A 
ATOM      6  C   UNL     1       3.005   5.524  18.397  0.00  0.00    +0.000 A 
ENDROOT
BRANCH   4   7
ATOM      7  C   UNL     1       1.461   8.435  20.387  0.00  0.00    +0.000 C 
ATOM      8  O   UNL     1       1.420   8.725  21.582  0.00  0.00    +0.000 OA
ATOM      9  N   UNL     1       1.014   9.301  19.425  0.00  0.00    +0.000 N 
ATOM     10  H   UNL     1       1.172   9.131  18.438  0.00  0.00    +0.000 HD
BRANCH   9  11
ATOM     11  C   UNL     1       0.496  10.620  19.797  0.00  0.00    +0.000 C 
BRANCH  11  12
ATOM     12  C   UNL     1       1.462  11.643  19.192  0.00  0.00    +0.000 C 
ATOM     13  O   UNL     1       1.810  12.673  19.769  0.00  0.00    +0.000 OA
ATOM     14  N   UNL     1       1.889  11.333  17.918  0.00  0.00    +0.000 N 
ATOM     15  H   UNL     1       1.301  10.790  17.292  0.00  0.00    +0.000 HD
BRANCH  14  16
ATOM     16  O   UNL     1       2.705  12.314  17.301  0.00  0.00    +0.000 OA
ATOM     17  H   UNL     1       3.598  11.902  17.338  0.00  0.00    +0.000 HD
ENDBRANCH  14  16
ENDBRANCH  11  12
BRANCH  11  18
ATOM     18  C   UNL     1      -0.947  10.836  19.291  0.00  0.00    +0.000 C 
ATOM     19  C   UNL     1      -1.251  12.327  19.106  0.00  0.00    +0.000 C 
ATOM     20  C   UNL     1      -1.179  10.116  17.956  0.00  0.00    +0.000 C 
ENDBRANCH  11  18
ENDBRANCH   9  11
ENDBRANCH   4   7
BRANCH   1  22
ATOM     21  C   UNL     1       3.694   2.421  19.481  0.00  0.00    +0.000 C 
ATOM     22  O   UNL     1       2.694   3.158  18.768  0.00  0.00    +0.000 OA
ENDBRANCH   1  22
BRANCH   6  23
ATOM     23  O   UNL     1       3.723   5.510  17.235  0.00  0.00    +0.000 OA
BRANCH  23  24
ATOM     24  C   UNL     1       5.108   5.836  17.156  0.00  0.00    +0.000 C 
ATOM     25  C   UNL     1       5.957   4.847  17.948  0.00  0.00    +0.000 C 
ATOM     26  C   UNL     1       7.258   4.679  17.179  0.00  0.00    +0.000 C 
ATOM     27  C   UNL     1       6.962   5.038  15.733  0.00  0.00    +0.000 C 
ATOM     28  C   UNL     1       5.553   5.618  15.699  0.00  0.00    +0.000 C 
ENDBRANCH  23  24
ENDBRANCH   6  23
TORSDOF 8
ENDMDL
MODEL 6
REMARK VINA RESULT:      -7.0      2.127      3.651
REMARK  Name = 
REMARK  11 active torsions:
REMARK  status: ('A' for Active; 'I' for Inactive)
REMARK    1  A    between atoms: C_1  and  O_2
REMARK    2  A    between atoms: O_2  and  C_3
REMARK    3  A    between atoms: C_6  and  C_7
REMARK    4  A    between atoms: N_9  and  C_10
REMARK    5  A    between atoms: C_10  and  C_11
REMARK    6  A    between atoms: C_10  and  C_15
REMARK    7  A    between atoms: N_13  and  O_14
REMARK    8  A    between atoms: C_15  and  C_16
REMARK    9  A    between atoms: C_15  and  C_17
REMARK   10  A    between atoms: C_19  and  O_20
REMARK   11  A    between atoms: O_20  and  C_21
REMARK                            x       y       z     vdW  Elec       q    Type
REMARK                         _______ _______ _______ _____ _____    ______ ____
ROOT
ATOM      1  C   UNL     1       3.968   6.165  18.243  0.00  0.00    +0.000 A 
ATOM      2  C   UNL     1       3.660   7.256  17.417  0.00  0.00    +0.000 A 
ATOM      3  C   UNL     1       2.746   8.224  17.820  0.00  0.00    +0.000 A 
ATOM      4  C   UNL     1       2.063   8.086  19.026  0.00  0.00    +0.000 A 
ATOM      5  C   UNL     1       2.252   6.913  19.774  0.00  0.00    +0.000 A 
ATOM      6  C   UNL     1       3.199   5.938  19.391  0.00  0.00    +0.000 A 
ENDROOT
BRANCH   4   7
ATOM      7  C   UNL     1       1.219   9.238  19.452  0.00  0.00    +0.000 C 
ATOM      8  O   UNL     1       0.792   9.276  20.605  0.00  0.00    +0.000 OA
ATOM      9  N   UNL     1       0.913  10.217  18.544  0.00  0.00    +0.000 N 
ATOM     10  H   UNL     1       1.370  10.268  17.640  0.00  0.00    +0.000 HD
BRANCH   9  11
ATOM     11  C   UNL     1       0.083  11.359  18.935  0.00  0.00    +0.000 C 
BRANCH  11  12
ATOM     12  C   UNL     1       0.930  12.608  18.676  0.00  0.00    +0.000 C 
ATOM     13  O   UNL     1       0.614  13.735  19.058  0.00  0.00    +0.000 OA
ATOM     14  N   UNL     1       2.072  12.374  17.939  0.00  0.00    +0.000 N 
ATOM     15  H   UNL     1       2.108  11.615  17.266  0.00  0.00    +0.000 HD
BRANCH  14  16
ATOM     16  O   UNL     1       2.820  13.531  17.604  0.00  0.00    +0.000 OA
ATOM     17  H   UNL     1       3.054  13.898  18.487  0.00  0.00    +0.000 HD
ENDBRANCH  14  16
ENDBRANCH  11  12
BRANCH  11  18
ATOM     18  C   UNL     1      -1.245  11.402  18.148  0.00  0.00    +0.000 C 
ATOM     19  C   UNL     1      -1.557  10.041  17.514  0.00  0.00    +0.000 C 
ATOM     20  C   UNL     1      -2.415  11.802  19.057  0.00  0.00    +0.000 C 
ENDBRANCH  11  18
ENDBRANCH   9  11
ENDBRANCH   4   7
BRANCH   1  22
ATOM     21  C   UNL     1       4.896   4.753  16.620  0.00  0.00    +0.000 C 
ATOM     22  O   UNL     1       5.020   5.340  17.922  0.00  0.00    +0.000 OA
ENDBRANCH   1  22
BRANCH   6  23
ATOM     23  O   UNL     1       3.198   4.873  20.246  0.00  0.00    +0.000 OA
BRANCH  23  24
ATOM     24  C   UNL     1       2.647   3.600  19.924  0.00  0.00    +0.000 C 
ATOM     25  C   UNL     1       1.935   3.628  18.575  0.00  0.00    +0.000 C 
ATOM     26  C   UNL     1       2.170   2.270  17.932  0.00  0.00    +0.000 C 
ATOM     27  C   UNL     1       3.438   1.705  18.551  0.00  0.00    +0.000 C 
ATOM     28  C   UNL     1       3.821   2.630  19.699  0.00  0.00    +0.000 C 
ENDBRANCH  23  24
ENDBRANCH   6  23
TORSDOF 8
ENDMDL
MODEL 7
REMARK VINA RESULT:      -7.0      0.634      1.040
REMARK  Name = 
REMARK  11 active torsions:
REMARK  status: ('A' for Active; 'I' for Inactive)
REMARK    1  A    between atoms: C_1  and  O_2
REMARK    2  A    between atoms: O_2  and  C_3
REMARK    3  A    between atoms: C_6  and  C_7
REMARK    4  A    between atoms: N_9  and  C_10
REMARK    5  A    between atoms: C_10  and  C_11
REMARK    6  A    between atoms: C_10  and  C_15
REMARK    7  A    between atoms: N_13  and  O_14
REMARK    8  A    between atoms: C_15  and  C_16
REMARK    9  A    between atoms: C_15  and  C_17
REMARK   10  A    between atoms: C_19  and  O_20
REMARK   11  A    between atoms: O_20  and  C_21
REMARK                            x       y       z     vdW  Elec       q    Type
REMARK                         _______ _______ _______ _____ _____    ______ ____
ROOT
ATOM      1  C   UNL     1       2.493   5.306  19.789  0.00  0.00    +0.000 A 
ATOM      2  C   UNL     1       1.901   6.252  20.640  0.00  0.00    +0.000 A 
ATOM      3  C   UNL     1       1.635   7.543  20.199  0.00  0.00    +0.000 A 
ATOM      4  C   UNL     1       2.019   7.943  18.921  0.00  0.00    +0.000 A 
ATOM      5  C   UNL     1       2.754   7.046  18.131  0.00  0.00    +0.000 A 
ATOM      6  C   UNL     1       3.005   5.723  18.555  0.00  0.00    +0.000 A 
ENDROOT
BRANCH   4   7
ATOM      7  C   UNL     1       1.561   9.290  18.477  0.00  0.00    +0.000 C 
ATOM      8  O   UNL     1       2.180   9.870  17.586  0.00  0.00    +0.000 OA
ATOM      9  N   UNL     1       0.479   9.866  19.087  0.00  0.00    +0.000 N 
ATOM     10  H   UNL     1      -0.118   9.343  19.719  0.00  0.00    +0.000 HD
BRANCH   9  11
ATOM     11  C   UNL     1       0.010  11.190  18.672  0.00  0.00    +0.000 C 
BRANCH  11  12
ATOM     12  C   UNL     1      -1.323  10.963  17.953  0.00  0.00    +0.000 C 
ATOM     13  O   UNL     1      -1.697   9.863  17.547  0.00  0.00    +0.000 OA
ATOM     14  N   UNL     1      -2.066  12.109  17.763  0.00  0.00    +0.000 N 
ATOM     15  H   UNL     1      -1.611  13.011  17.667  0.00  0.00    +0.000 HD
BRANCH  14  16
ATOM     16  O   UNL     1      -3.257  11.936  17.013  0.00  0.00    +0.000 OA
ATOM     17  H   UNL     1      -3.808  12.696  17.309  0.00  0.00    +0.000 HD
ENDBRANCH  14  16
ENDBRANCH  11  12
BRANCH  11  18
ATOM     18  C   UNL     1      -0.151  12.147  19.873  0.00  0.00    +0.000 C 
ATOM     19  C   UNL     1       0.005  11.398  21.202  0.00  0.00    +0.000 C 
ATOM     20  C   UNL     1       0.884  13.279  19.822  0.00  0.00    +0.000 C 
ENDBRANCH  11  18
ENDBRANCH   9  11
ENDBRANCH   4   7
BRANCH   1  22
ATOM     21  C   UNL     1       1.279   3.332  20.137  0.00  0.00    +0.000 C 
ATOM     22  O   UNL     1       2.554   3.987  20.171  0.00  0.00    +0.000 OA
ENDBRANCH   1  22
BRANCH   6  23
ATOM     23  O   UNL     1       3.757   5.037  17.643  0.00  0.00    +0.000 OA
BRANCH  23  24
ATOM     24  C   UNL     1       5.015   4.441  17.943  0.00  0.00    +0.000 C 
ATOM     25  C   UNL     1       5.897   4.351  16.702  0.00  0.00    +0.000 C 
ATOM     26  C   UNL     1       7.327   4.574  17.169  0.00  0.00    +0.000 C 
ATOM     27  C   UNL     1       7.247   5.360  18.467  0.00  0.00    +0.000 C 
ATOM     28  C   UNL     1       5.778   5.409  18.866  0.00  0.00    +0.000 C 
ENDBRANCH  23  24
ENDBRANCH   6  23
TORSDOF 8
ENDMDL
MODEL 8
REMARK VINA RESULT:      -7.0      1.360      3.619
REMARK  Name = 
REMARK  11 active torsions:
REMARK  status: ('A' for Active; 'I' for Inactive)
REMARK    1  A    between atoms: C_1  and  O_2
REMARK    2  A    between atoms: O_2  and  C_3
REMARK    3  A    between atoms: C_6  and  C_7
REMARK    4  A    between atoms: N_9  and  C_10
REMARK    5  A    between atoms: C_10  and  C_11
REMARK    6  A    between atoms: C_10  and  C_15
REMARK    7  A    between atoms: N_13  and  O_14
REMARK    8  A    between atoms: C_15  and  C_16
REMARK    9  A    between atoms: C_15  and  C_17
REMARK   10  A    between atoms: C_19  and  O_20
REMARK   11  A    between atoms: O_20  and  C_21
REMARK                            x       y       z     vdW  Elec       q    Type
REMARK                         _______ _______ _______ _____ _____    ______ ____
ROOT
ATOM      1  C   UNL     1       4.292   5.556  17.404  0.00  0.00    +0.000 A 
ATOM      2  C   UNL     1       4.588   6.765  16.755  0.00  0.00    +0.000 A 
ATOM      3  C   UNL     1       3.827   7.906  16.984  0.00  0.00    +0.000 A 
ATOM      4  C   UNL     1       2.707   7.848  17.810  0.00  0.00    +0.000 A 
ATOM      5  C   UNL     1       2.318   6.604  18.329  0.00  0.00    +0.000 A 
ATOM      6  C   UNL     1       3.100   5.444  18.129  0.00  0.00    +0.000 A 
ENDROOT
BRANCH   4   7
ATOM      7  C   UNL     1       2.039   9.144  18.121  0.00  0.00    +0.000 C 
ATOM      8  O   UNL     1       2.460  10.176  17.598  0.00  0.00    +0.000 OA
ATOM      9  N   UNL     1       0.992   9.165  19.003  0.00  0.00    +0.000 N 
ATOM     10  H   UNL     1       0.551   8.312  19.329  0.00  0.00    +0.000 HD
BRANCH   9  11
ATOM     11  C   UNL     1       0.320  10.426  19.329  0.00  0.00    +0.000 C 
BRANCH  11  12
ATOM     12  C   UNL     1      -0.712  10.656  18.221  0.00  0.00    +0.000 C 
ATOM     13  O   UNL     1      -1.281   9.744  17.622  0.00  0.00    +0.000 OA
ATOM     14  N   UNL     1      -0.930  11.984  17.918  0.00  0.00    +0.000 N 
ATOM     15  H   UNL     1      -0.195  12.672  18.047  0.00  0.00    +0.000 HD
BRANCH  14  16
ATOM     16  O   UNL     1      -1.808  12.216  16.829  0.00  0.00    +0.000 OA
ATOM     17  H   UNL     1      -1.222  12.081  16.050  0.00  0.00    +0.000 HD
ENDBRANCH  14  16
ENDBRANCH  11  12
BRANCH  11  18
ATOM     18  C   UNL     1      -0.345  10.381  20.722  0.00  0.00    +0.000 C 
ATOM     19  C   UNL     1       0.124   9.158  21.519  0.00  0.00    +0.000 C 
ATOM     20  C   UNL     1      -0.026  11.647  21.529  0.00  0.00    +0.000 C 
ENDBRANCH  11  18
ENDBRANCH   9  11
ENDBRANCH   4   7
BRANCH   1  22
ATOM     21  C   UNL     1       5.647   4.264  15.996  0.00  0.00    +0.000 C 
ATOM     22  O   UNL     1       5.175   4.506  17.328  0.00  0.00    +0.000 OA
ENDBRANCH   1  22
BRANCH   6  23
ATOM     23  O   UNL     1       2.523   4.345  18.698  0.00  0.00    +0.000 OA
BRANCH  23  24
ATOM     24  C   UNL     1       2.373   4.168  20.103  0.00  0.00    +0.000 C 
ATOM     25  C   UNL     1       1.002   3.594  20.447  0.00  0.00    +0.000 C 
ATOM     26  C   UNL     1       1.204   2.671  21.638  0.00  0.00    +0.000 C 
ATOM     27  C   UNL     1       2.659   2.233  21.612  0.00  0.00    +0.000 C 
ATOM     28  C   UNL     1       3.352   3.063  20.539  0.00  0.00    +0.000 C 
ENDBRANCH  23  24
ENDBRANCH   6  23
TORSDOF 8
ENDMDL
MODEL 9
REMARK VINA RESULT:      -7.0      1.985      2.604
REMARK  Name = 
REMARK  11 active torsions:
REMARK  status: ('A' for Active; 'I' for Inactive)
REMARK    1  A    between atoms: C_1  and  O_2
REMARK    2  A    between atoms: O_2  and  C_3
REMARK    3  A    between atoms: C_6  and  C_7
REMARK    4  A    between atoms: N_9  and  C_10
REMARK    5  A    between atoms: C_10  and  C_11
REMARK    6  A    between atoms: C_10  and  C_15
REMARK    7  A    between atoms: N_13  and  O_14
REMARK    8  A    between atoms: C_15  and  C_16
REMARK    9  A    between atoms: C_15  and  C_17
REMARK   10  A    between atoms: C_19  and  O_20
REMARK   11  A    between atoms: O_20  and  C_21
REMARK                            x       y       z     vdW  Elec       q    Type
REMARK                         _______ _______ _______ _____ _____    ______ ____
ROOT
ATOM      1  C   UNL     1       2.486   4.217  18.896  0.00  0.00    +0.000 A 
ATOM      2  C   UNL     1       1.871   4.400  20.144  0.00  0.00    +0.000 A 
ATOM      3  C   UNL     1       1.609   5.674  20.634  0.00  0.00    +0.000 A 
ATOM      4  C   UNL     1       2.021   6.799  19.922  0.00  0.00    +0.000 A 
ATOM      5  C   UNL     1       2.779   6.614  18.755  0.00  0.00    +0.000 A 
ATOM      6  C   UNL     1       3.025   5.326  18.231  0.00  0.00    +0.000 A 
ENDROOT
BRANCH   4   7
ATOM      7  C   UNL     1       1.568   8.120  20.441  0.00  0.00    +0.000 C 
ATOM      8  O   UNL     1       1.490   8.293  21.657  0.00  0.00    +0.000 OA
ATOM      9  N   UNL     1       1.220   9.106  19.555  0.00  0.00    +0.000 N 
ATOM     10  H   UNL     1       1.412   9.023  18.563  0.00  0.00    +0.000 HD
BRANCH   9  11
ATOM     11  C   UNL     1       0.768  10.413  20.038  0.00  0.00    +0.000 C 
BRANCH  11  12
ATOM     12  C   UNL     1       1.472  11.455  19.165  0.00  0.00    +0.000 C 
ATOM     13  O   UNL     1       1.512  12.655  19.437  0.00  0.00    +0.000 OA
ATOM     14  N   UNL     1       2.035  10.943  18.015  0.00  0.00    +0.000 N 
ATOM     15  H   UNL     1       1.642  10.120  17.568  0.00  0.00    +0.000 HD
BRANCH  14  16
ATOM     16  O   UNL     1       2.606  11.905  17.144  0.00  0.00    +0.000 OA
ATOM     17  H   UNL     1       2.214  11.665  16.274  0.00  0.00    +0.000 HD
ENDBRANCH  14  16
ENDBRANCH  11  12
BRANCH  11  18
ATOM     18  C   UNL     1      -0.768  10.555  19.963  0.00  0.00    +0.000 C 
ATOM     19  C   UNL     1      -1.246  11.798  20.724  0.00  0.00    +0.000 C 
ATOM     20  C   UNL     1      -1.244  10.654  18.508  0.00  0.00    +0.000 C 
ENDBRANCH  11  18
ENDBRANCH   9  11
ENDBRANCH   4   7
BRANCH   1  22
ATOM     21  C   UNL     1       3.303   2.034  19.126  0.00  0.00    +0.000 C 
ATOM     22  O   UNL     1       2.544   2.962  18.339  0.00  0.00    +0.000 OA
ENDBRANCH   1  22
BRANCH   6  23
ATOM     23  O   UNL     1       3.801   5.379  17.108  0.00  0.00    +0.000 OA
BRANCH  23  24
ATOM     24  C   UNL     1       4.890   4.497  16.856  0.00  0.00    +0.000 C 
ATOM     25  C   UNL     1       5.598   4.848  15.551  0.00  0.00    +0.000 C 
ATOM     26  C   UNL     1       7.076   4.562  15.770  0.00  0.00    +0.000 C 
ATOM     27  C   UNL     1       7.322   4.639  17.267  0.00  0.00    +0.000 C 
ATOM     28  C   UNL     1       5.957   4.758  17.935  0.00  0.00    +0.000 C 
ENDBRANCH  23  24
ENDBRANCH   6  23
TORSDOF 8
ENDMDL
