MODEL 1
REMARK VINA RESULT:      -7.3      0.000      0.000
REMARK  Name = 
REMARK  7 active torsions:
REMARK  status: ('A' for Active; 'I' for Inactive)
REMARK    1  A    between atoms: C_7  and  O_8
REMARK    2  A    between atoms: O_8  and  C_9
REMARK    3  A    between atoms: C_9  and  C_10
REMARK    4  A    between atoms: C_10  and  O_11
REMARK    5  A    between atoms: O_11  and  C_12
REMARK    6  A    between atoms: C_20  and  O_21
REMARK    7  A    between atoms: C_22  and  N_23
REMARK                            x       y       z     vdW  Elec       q    Type
REMARK                         _______ _______ _______ _____ _____    ______ ____
ROOT
ATOM      1  O   UNL     1      -0.635  10.017  22.092  0.00  0.00    +0.000 OA
ATOM      2  C   UNL     1       0.081   9.602  21.192  0.00  0.00    +0.000 A 
ATOM      3  O   UNL     1       0.794   8.414  21.338  0.00  0.00    +0.000 OA
ATOM      4  C   UNL     1       1.581   7.880  20.298  0.00  0.00    +0.000 A 
ATOM      5  C   UNL     1       2.211   6.674  20.586  0.00  0.00    +0.000 A 
ATOM      6  C   UNL     1       2.995   6.062  19.614  0.00  0.00    +0.000 A 
ATOM      7  C   UNL     1       3.144   6.658  18.362  0.00  0.00    +0.000 A 
ATOM      8  C   UNL     1       2.495   7.878  18.090  0.00  0.00    +0.000 A 
ATOM      9  C   UNL     1       1.704   8.519  19.060  0.00  0.00    +0.000 A 
ATOM     10  C   UNL     1       1.003   9.806  18.887  0.00  0.00    +0.000 A 
ATOM     11  C   UNL     1       0.270  10.263  19.911  0.00  0.00    +0.000 A 
ENDROOT
BRANCH  11  12
ATOM     12  N   UNL     1      -0.378  11.527  19.766  0.00  0.00    +0.000 N 
ATOM     13  O   UNL     1      -1.463  11.540  19.166  0.00  0.00    +0.000 OA
ATOM     14  O   UNL     1       0.193  12.508  20.258  0.00  0.00    +0.000 OA
ENDBRANCH  11  12
BRANCH  10  15
ATOM     15  O   UNL     1       1.138  10.502  17.700  0.00  0.00    +0.000 OA
ATOM     16  H   UNL     1       2.038  10.441  17.346  0.00  0.00    +0.000 HD
ENDBRANCH  10  15
BRANCH   7  17
ATOM     17  O   UNL     1       3.890   6.158  17.328  0.00  0.00    +0.000 OA
BRANCH  17  18
ATOM     18  C   UNL     1       4.619   4.942  17.539  0.00  0.00    +0.000 C 
BRANCH  18  19
ATOM     19  C   UNL     1       3.876   3.747  16.944  0.00  0.00    +0.000 C 
BRANCH  19  20
ATOM     20  O   UNL     1       3.908   2.668  17.881  0.00  0.00    +0.000 OA
BRANCH  20  21
ATOM     21  C   UNL     1       2.984   2.737  18.889  0.00  0.00    +0.000 A 
ATOM     22  C   UNL     1       3.498   2.636  20.184  0.00  0.00    +0.000 A 
ATOM     23  C   UNL     1       2.647   2.685  21.289  0.00  0.00    +0.000 A 
ATOM     24  C   UNL     1       1.277   2.862  21.105  0.00  0.00    +0.000 A 
ATOM     25  C   UNL     1       0.763   2.995  19.818  0.00  0.00    +0.000 A 
ATOM     26  C   UNL     1       1.613   2.933  18.711  0.00  0.00    +0.000 A 
ENDBRANCH  20  21
ENDBRANCH  19  20
ENDBRANCH  18  19
ENDBRANCH  17  18
ENDBRANCH   7  17
TORSDOF 7
ENDMDL
MODEL 2
REMARK VINA RESULT:      -7.2      5.197      8.047
REMARK  Name = 
REMARK  7 active torsions:
REMARK  status: ('A' for Active; 'I' for Inactive)
REMARK    1  A    between atoms: C_7  and  O_8
REMARK    2  A    between atoms: O_8  and  C_9
REMARK    3  A    between atoms: C_9  and  C_10
REMARK    4  A    between atoms: C_10  and  O_11
REMARK    5  A    between atoms: O_11  and  C_12
REMARK    6  A    between atoms: C_20  and  O_21
REMARK    7  A    between atoms: C_22  and  N_23
REMARK                            x       y       z     vdW  Elec       q    Type
REMARK                         _______ _______ _______ _____ _____    ______ ____
ROOT
ATOM      1  O   UNL     1       1.228   2.485  18.294  0.00  0.00    +0.000 OA
ATOM      2  C   UNL     1       2.126   3.315  18.244  0.00  0.00    +0.000 A 
ATOM      3  O   UNL     1       3.008   3.347  17.167  0.00  0.00    +0.000 OA
ATOM      4  C   UNL     1       4.015   4.327  17.053  0.00  0.00    +0.000 A 
ATOM      5  C   UNL     1       4.800   4.245  15.906  0.00  0.00    +0.000 A 
ATOM      6  C   UNL     1       5.807   5.180  15.699  0.00  0.00    +0.000 A 
ATOM      7  C   UNL     1       6.025   6.189  16.636  0.00  0.00    +0.000 A 
ATOM      8  C   UNL     1       5.218   6.256  17.788  0.00  0.00    +0.000 A 
ATOM      9  C   UNL     1       4.199   5.317  18.023  0.00  0.00    +0.000 A 
ATOM     10  C   UNL     1       3.315   5.281  19.205  0.00  0.00    +0.000 A 
ATOM     11  C   UNL     1       2.375   4.327  19.256  0.00  0.00    +0.000 A 
ENDROOT
BRANCH  11  12
ATOM     12  N   UNL     1       1.544   4.262  20.415  0.00  0.00    +0.000 N 
ATOM     13  O   UNL     1       1.576   3.212  21.075  0.00  0.00    +0.000 OA
ATOM     14  O   UNL     1       0.861   5.261  20.672  0.00  0.00    +0.000 OA
ENDBRANCH  11  12
BRANCH  10  15
ATOM     15  O   UNL     1       3.492   6.206  20.217  0.00  0.00    +0.000 OA
ATOM     16  H   UNL     1       4.422   6.281  20.479  0.00  0.00    +0.000 HD
ENDBRANCH  10  15
BRANCH   7  17
ATOM     17  O   UNL     1       6.986   7.162  16.548  0.00  0.00    +0.000 OA
BRANCH  17  18
ATOM     18  C   UNL     1       7.683   7.541  17.742  0.00  0.00    +0.000 C 
BRANCH  18  19
ATOM     19  C   UNL     1       8.010   9.033  17.735  0.00  0.00    +0.000 C 
BRANCH  19  20
ATOM     20  O   UNL     1       8.589   9.386  18.993  0.00  0.00    +0.000 OA
BRANCH  20  21
ATOM     21  C   UNL     1       9.461  10.442  18.963  0.00  0.00    +0.000 A 
ATOM     22  C   UNL     1       9.818  10.963  20.209  0.00  0.00    +0.000 A 
ATOM     23  C   UNL     1      10.695  12.046  20.298  0.00  0.00    +0.000 A 
ATOM     24  C   UNL     1      11.240  12.597  19.140  0.00  0.00    +0.000 A 
ATOM     25  C   UNL     1      10.912  12.062  17.897  0.00  0.00    +0.000 A 
ATOM     26  C   UNL     1      10.025  10.986  17.807  0.00  0.00    +0.000 A 
ENDBRANCH  20  21
ENDBRANCH  19  20
ENDBRANCH  18  19
ENDBRANCH  17  18
ENDBRANCH   7  17
TORSDOF 7
ENDMDL
MODEL 3
REMARK VINA RESULT:      -7.2      5.483      8.569
REMARK  Name = 
REMARK  7 active torsions:
REMARK  status: ('A' for Active; 'I' for Inactive)
REMARK    1  A    between atoms: C_7  and  O_8
REMARK    2  A    between atoms: O_8  and  C_9
REMARK    3  A    between atoms: C_9  and  C_10
REMARK    4  A    between atoms: C_10  and  O_11
REMARK    5  A    between atoms: O_11  and  C_12
REMARK    6  A    between atoms: C_20  and  O_21
REMARK    7  A    between atoms: C_22  and  N_23
REMARK                            x       y       z     vdW  Elec       q    Type
REMARK                         _______ _______ _______ _____ _____    ______ ____
ROOT
ATOM      1  O   UNL     1       2.669   1.725  17.865  0.00  0.00    +0.000 OA
ATOM      2  C   UNL     1       3.331   2.752  17.911  0.00  0.00    +0.000 A 
ATOM      3  O   UNL     1       4.364   2.976  17.004  0.00  0.00    +0.000 OA
ATOM      4  C   UNL     1       5.106   4.175  16.995  0.00  0.00    +0.000 A 
ATOM      5  C   UNL     1       6.087   4.261  16.012  0.00  0.00    +0.000 A 
ATOM      6  C   UNL     1       6.859   5.414  15.915  0.00  0.00    +0.000 A 
ATOM      7  C   UNL     1       6.646   6.471  16.799  0.00  0.00    +0.000 A 
ATOM      8  C   UNL     1       5.645   6.364  17.786  0.00  0.00    +0.000 A 
ATOM      9  C   UNL     1       4.859   5.205  17.908  0.00  0.00    +0.000 A 
ATOM     10  C   UNL     1       3.806   4.981  18.917  0.00  0.00    +0.000 A 
ATOM     11  C   UNL     1       3.133   3.822  18.874  0.00  0.00    +0.000 A 
ENDROOT
BRANCH  11  12
ATOM     12  N   UNL     1       2.141   3.581  19.872  0.00  0.00    +0.000 N 
ATOM     13  O   UNL     1       2.514   3.026  20.916  0.00  0.00    +0.000 OA
ATOM     14  O   UNL     1       0.989   3.953  19.618  0.00  0.00    +0.000 OA
ENDBRANCH  11  12
BRANCH  10  15
ATOM     15  O   UNL     1       3.561   5.948  19.873  0.00  0.00    +0.000 OA
ATOM     16  H   UNL     1       4.314   6.063  20.472  0.00  0.00    +0.000 HD
ENDBRANCH  10  15
BRANCH   7  17
ATOM     17  O   UNL     1       7.340   7.652  16.808  0.00  0.00    +0.000 OA
BRANCH  17  18
ATOM     18  C   UNL     1       8.130   7.969  17.962  0.00  0.00    +0.000 C 
BRANCH  18  19
ATOM     19  C   UNL     1       8.052   9.459  18.288  0.00  0.00    +0.000 C 
BRANCH  19  20
ATOM     20  O   UNL     1       9.099  10.141  17.595  0.00  0.00    +0.000 OA
BRANCH  20  21
ATOM     21  C   UNL     1       9.946  10.873  18.383  0.00  0.00    +0.000 A 
ATOM     22  C   UNL     1       9.593  10.954  19.732  0.00  0.00    +0.000 A 
ATOM     23  C   UNL     1      10.380  11.681  20.627  0.00  0.00    +0.000 A 
ATOM     24  C   UNL     1      11.540  12.311  20.181  0.00  0.00    +0.000 A 
ATOM     25  C   UNL     1      11.914  12.208  18.843  0.00  0.00    +0.000 A 
ATOM     26  C   UNL     1      11.120  11.490  17.945  0.00  0.00    +0.000 A 
ENDBRANCH  20  21
ENDBRANCH  19  20
ENDBRANCH  18  19
ENDBRANCH  17  18
ENDBRANCH   7  17
TORSDOF 7
ENDMDL
MODEL 4
REMARK VINA RESULT:      -7.0      5.701      8.805
REMARK  Name = 
REMARK  7 active torsions:
REMARK  status: ('A' for Active; 'I' for Inactive)
REMARK    1  A    between atoms: C_7  and  O_8
REMARK    2  A    between atoms: O_8  and  C_9
REMARK    3  A    between atoms: C_9  and  C_10
REMARK    4  A    between atoms: C_10  and  O_11
REMARK    5  A    between atoms: O_11  and  C_12
REMARK    6  A    between atoms: C_20  and  O_21
REMARK    7  A    between atoms: C_22  and  N_23
REMARK                            x       y       z     vdW  Elec       q    Type
REMARK                         _______ _______ _______ _____ _____    ______ ____
ROOT
ATOM      1  O   UNL     1       2.180   2.373  17.132  0.00  0.00    +0.000 OA
ATOM      2  C   UNL     1       3.040   3.155  17.511  0.00  0.00    +0.000 A 
ATOM      3  O   UNL     1       4.134   3.459  16.704  0.00  0.00    +0.000 OA
ATOM      4  C   UNL     1       5.111   4.400  17.089  0.00  0.00    +0.000 A 
ATOM      5  C   UNL     1       6.128   4.617  16.165  0.00  0.00    +0.000 A 
ATOM      6  C   UNL     1       7.126   5.541  16.450  0.00  0.00    +0.000 A 
ATOM      7  C   UNL     1       7.103   6.242  17.655  0.00  0.00    +0.000 A 
ATOM      8  C   UNL     1       6.062   6.010  18.576  0.00  0.00    +0.000 A 
ATOM      9  C   UNL     1       5.047   5.075  18.313  0.00  0.00    +0.000 A 
ATOM     10  C   UNL     1       3.929   4.739  19.216  0.00  0.00    +0.000 A 
ATOM     11  C   UNL     1       3.032   3.837  18.795  0.00  0.00    +0.000 A 
ENDROOT
BRANCH  11  12
ATOM     12  N   UNL     1       1.970   3.477  19.679  0.00  0.00    +0.000 N 
ATOM     13  O   UNL     1       0.926   4.142  19.609  0.00  0.00    +0.000 OA
ATOM     14  O   UNL     1       2.176   2.525  20.442  0.00  0.00    +0.000 OA
ENDBRANCH  11  12
BRANCH  10  15
ATOM     15  O   UNL     1       3.853   5.339  20.459  0.00  0.00    +0.000 OA
ATOM     16  H   UNL     1       3.040   5.097  20.928  0.00  0.00    +0.000 HD
ENDBRANCH  10  15
BRANCH   7  17
ATOM     17  O   UNL     1       8.028   7.171  18.052  0.00  0.00    +0.000 OA
BRANCH  17  18
ATOM     18  C   UNL     1       7.818   8.541  17.689  0.00  0.00    +0.000 C 
BRANCH  18  19
ATOM     19  C   UNL     1       8.692   9.472  18.527  0.00  0.00    +0.000 C 
BRANCH  19  20
ATOM     20  O   UNL     1       8.825  10.722  17.847  0.00  0.00    +0.000 OA
BRANCH  20  21
ATOM     21  C   UNL     1       9.777  11.567  18.351  0.00  0.00    +0.000 A 
ATOM     22  C   UNL     1      10.282  11.224  19.607  0.00  0.00    +0.000 A 
ATOM     23  C   UNL     1      11.251  12.019  20.221  0.00  0.00    +0.000 A 
ATOM     24  C   UNL     1      11.739  13.150  19.569  0.00  0.00    +0.000 A 
ATOM     25  C   UNL     1      11.261  13.480  18.304  0.00  0.00    +0.000 A 
ATOM     26  C   UNL     1      10.283  12.691  17.694  0.00  0.00    +0.000 A 
ENDBRANCH  20  21
ENDBRANCH  19  20
ENDBRANCH  18  19
ENDBRANCH  17  18
ENDBRANCH   7  17
TORSDOF 7
ENDMDL
MODEL 5
REMARK VINA RESULT:      -7.0      5.680      8.540
REMARK  Name = 
REMARK  7 active torsions:
REMARK  status: ('A' for Active; 'I' for Inactive)
REMARK    1  A    between atoms: C_7  and  O_8
REMARK    2  A    between atoms: O_8  and  C_9
REMARK    3  A    between atoms: C_9  and  C_10
REMARK    4  A    between atoms: C_10  and  O_11
REMARK    5  A    between atoms: O_11  and  C_12
REMARK    6  A    between atoms: C_20  and  O_21
REMARK    7  A    between atoms: C_22  and  N_23
REMARK                            x       y       z     vdW  Elec       q    Type
REMARK                         _______ _______ _______ _____ _____    ______ ____
ROOT
ATOM      1  O   UNL     1       3.348   1.996  20.027  0.00  0.00    +0.000 OA
ATOM      2  C   UNL     1       3.723   3.053  19.539  0.00  0.00    +0.000 A 
ATOM      3  O   UNL     1       5.075   3.387  19.512  0.00  0.00    +0.000 OA
ATOM      4  C   UNL     1       5.542   4.570  18.904  0.00  0.00    +0.000 A 
ATOM      5  C   UNL     1       6.921   4.751  18.934  0.00  0.00    +0.000 A 
ATOM      6  C   UNL     1       7.476   5.881  18.344  0.00  0.00    +0.000 A 
ATOM      7  C   UNL     1       6.651   6.822  17.728  0.00  0.00    +0.000 A 
ATOM      8  C   UNL     1       5.257   6.618  17.707  0.00  0.00    +0.000 A 
ATOM      9  C   UNL     1       4.674   5.488  18.304  0.00  0.00    +0.000 A 
ATOM     10  C   UNL     1       3.229   5.191  18.360  0.00  0.00    +0.000 A 
ATOM     11  C   UNL     1       2.845   4.050  18.949  0.00  0.00    +0.000 A 
ENDROOT
BRANCH  11  12
ATOM     12  N   UNL     1       1.447   3.777  19.043  0.00  0.00    +0.000 N 
ATOM     13  O   UNL     1       0.883   4.073  20.107  0.00  0.00    +0.000 OA
ATOM     14  O   UNL     1       0.908   3.271  18.051  0.00  0.00    +0.000 OA
ENDBRANCH  11  12
BRANCH  10  15
ATOM     15  O   UNL     1       2.327   6.093  17.828  0.00  0.00    +0.000 OA
ATOM     16  H   UNL     1       2.612   6.422  16.962  0.00  0.00    +0.000 HD
ENDBRANCH  10  15
BRANCH   7  17
ATOM     17  O   UNL     1       7.075   7.973  17.119  0.00  0.00    +0.000 OA
BRANCH  17  18
ATOM     18  C   UNL     1       8.345   8.518  17.500  0.00  0.00    +0.000 C 
BRANCH  18  19
ATOM     19  C   UNL     1       8.183   9.905  18.119  0.00  0.00    +0.000 C 
BRANCH  19  20
ATOM     20  O   UNL     1       9.072  10.023  19.232  0.00  0.00    +0.000 OA
BRANCH  20  21
ATOM     21  C   UNL     1      10.018  11.008  19.128  0.00  0.00    +0.000 A 
ATOM     22  C   UNL     1      10.218  11.515  17.842  0.00  0.00    +0.000 A 
ATOM     23  C   UNL     1      11.164  12.517  17.616  0.00  0.00    +0.000 A 
ATOM     24  C   UNL     1      11.896  13.036  18.682  0.00  0.00    +0.000 A 
ATOM     25  C   UNL     1      11.679  12.555  19.971  0.00  0.00    +0.000 A 
ATOM     26  C   UNL     1      10.741  11.544  20.195  0.00  0.00    +0.000 A 
ENDBRANCH  20  21
ENDBRANCH  19  20
ENDBRANCH  18  19
ENDBRANCH  17  18
ENDBRANCH   7  17
TORSDOF 7
ENDMDL
MODEL 6
REMARK VINA RESULT:      -7.0      3.094      7.377
REMARK  Name = 
REMARK  7 active torsions:
REMARK  status: ('A' for Active; 'I' for Inactive)
REMARK    1  A    between atoms: C_7  and  O_8
REMARK    2  A    between atoms: O_8  and  C_9
REMARK    3  A    between atoms: C_9  and  C_10
REMARK    4  A    between atoms: C_10  and  O_11
REMARK    5  A    between atoms: O_11  and  C_12
REMARK    6  A    between atoms: C_20  and  O_21
REMARK    7  A    between atoms: C_22  and  N_23
REMARK                            x       y       z     vdW  Elec       q    Type
REMARK                         _______ _______ _______ _____ _____    ______ ____
ROOT
ATOM      1  O   UNL     1       5.506   3.299  19.054  0.00  0.00    +0.000 OA
ATOM      2  C   UNL     1       5.022   4.329  18.606  0.00  0.00    +0.000 A 
ATOM      3  O   UNL     1       4.005   4.994  19.287  0.00  0.00    +0.000 OA
ATOM      4  C   UNL     1       3.467   6.213  18.826  0.00  0.00    +0.000 A 
ATOM      5  C   UNL     1       2.476   6.769  19.629  0.00  0.00    +0.000 A 
ATOM      6  C   UNL     1       1.899   7.980  19.264  0.00  0.00    +0.000 A 
ATOM      7  C   UNL     1       2.316   8.628  18.101  0.00  0.00    +0.000 A 
ATOM      8  C   UNL     1       3.323   8.049  17.304  0.00  0.00    +0.000 A 
ATOM      9  C   UNL     1       3.914   6.822  17.649  0.00  0.00    +0.000 A 
ATOM     10  C   UNL     1       4.956   6.119  16.875  0.00  0.00    +0.000 A 
ATOM     11  C   UNL     1       5.429   4.964  17.363  0.00  0.00    +0.000 A 
ENDROOT
BRANCH  11  12
ATOM     12  N   UNL     1       6.407   4.258  16.599  0.00  0.00    +0.000 N 
ATOM     13  O   UNL     1       5.989   3.469  15.739  0.00  0.00    +0.000 OA
ATOM     14  O   UNL     1       7.594   4.496  16.853  0.00  0.00    +0.000 OA
ENDBRANCH  11  12
BRANCH  10  15
ATOM     15  O   UNL     1       5.392   6.653  15.677  0.00  0.00    +0.000 OA
ATOM     16  H   UNL     1       5.080   7.562  15.551  0.00  0.00    +0.000 HD
ENDBRANCH  10  15
BRANCH   7  17
ATOM     17  O   UNL     1       1.824   9.818  17.634  0.00  0.00    +0.000 OA
BRANCH  17  18
ATOM     18  C   UNL     1       1.696  10.910  18.554  0.00  0.00    +0.000 C 
BRANCH  18  19
ATOM     19  C   UNL     1       0.268  11.454  18.565  0.00  0.00    +0.000 C 
BRANCH  19  20
ATOM     20  O   UNL     1      -0.597  10.475  19.145  0.00  0.00    +0.000 OA
BRANCH  20  21
ATOM     21  C   UNL     1      -0.684  10.504  20.511  0.00  0.00    +0.000 A 
ATOM     22  C   UNL     1      -0.352   9.312  21.160  0.00  0.00    +0.000 A 
ATOM     23  C   UNL     1      -0.414   9.224  22.552  0.00  0.00    +0.000 A 
ATOM     24  C   UNL     1      -0.783  10.337  23.304  0.00  0.00    +0.000 A 
ATOM     25  C   UNL     1      -1.084  11.536  22.664  0.00  0.00    +0.000 A 
ATOM     26  C   UNL     1      -1.035  11.622  21.271  0.00  0.00    +0.000 A 
ENDBRANCH  20  21
ENDBRANCH  19  20
ENDBRANCH  18  19
ENDBRANCH  17  18
ENDBRANCH   7  17
TORSDOF 7
ENDMDL
MODEL 7
REMARK VINA RESULT:      -7.0      1.268      2.642
REMARK  Name = 
REMARK  7 active torsions:
REMARK  status: ('A' for Active; 'I' for Inactive)
REMARK    1  A    between atoms: C_7  and  O_8
REMARK    2  A    between atoms: O_8  and  C_9
REMARK    3  A    between atoms: C_9  and  C_10
REMARK    4  A    between atoms: C_10  and  O_11
REMARK    5  A    between atoms: O_11  and  C_12
REMARK    6  A    between atoms: C_20  and  O_21
REMARK    7  A    between atoms: C_22  and  N_23
REMARK                            x       y       z     vdW  Elec       q    Type
REMARK                         _______ _______ _______ _____ _____    ______ ____
ROOT
ATOM      1  O   UNL     1       0.436  10.715  19.455  0.00  0.00    +0.000 OA
ATOM      2  C   UNL     1       1.057   9.662  19.421  0.00  0.00    +0.000 A 
ATOM      3  O   UNL     1       1.823   9.321  18.308  0.00  0.00    +0.000 OA
ATOM      4  C   UNL     1       2.595   8.143  18.263  0.00  0.00    +0.000 A 
ATOM      5  C   UNL     1       3.328   7.955  17.095  0.00  0.00    +0.000 A 
ATOM      6  C   UNL     1       4.133   6.828  16.966  0.00  0.00    +0.000 A 
ATOM      7  C   UNL     1       4.201   5.898  18.003  0.00  0.00    +0.000 A 
ATOM      8  C   UNL     1       3.453   6.109  19.178  0.00  0.00    +0.000 A 
ATOM      9  C   UNL     1       2.626   7.236  19.327  0.00  0.00    +0.000 A 
ATOM     10  C   UNL     1       1.785   7.539  20.502  0.00  0.00    +0.000 A 
ATOM     11  C   UNL     1       1.074   8.675  20.488  0.00  0.00    +0.000 A 
ENDROOT
BRANCH  11  12
ATOM     12  N   UNL     1       0.228   8.955  21.603  0.00  0.00    +0.000 N 
ATOM     13  O   UNL     1      -0.776   8.240  21.743  0.00  0.00    +0.000 OA
ATOM     14  O   UNL     1       0.568   9.884  22.345  0.00  0.00    +0.000 OA
ENDBRANCH  11  12
BRANCH  10  15
ATOM     15  O   UNL     1       1.741   6.647  21.557  0.00  0.00    +0.000 OA
ATOM     16  H   UNL     1       1.184   6.971  22.281  0.00  0.00    +0.000 HD
ENDBRANCH  10  15
BRANCH   7  17
ATOM     17  O   UNL     1       4.950   4.752  17.995  0.00  0.00    +0.000 OA
BRANCH  17  18
ATOM     18  C   UNL     1       4.768   3.827  16.914  0.00  0.00    +0.000 C 
BRANCH  18  19
ATOM     19  C   UNL     1       3.357   3.243  16.923  0.00  0.00    +0.000 C 
BRANCH  19  20
ATOM     20  O   UNL     1       3.303   2.176  17.874  0.00  0.00    +0.000 OA
BRANCH  20  21
ATOM     21  C   UNL     1       2.723   2.488  19.074  0.00  0.00    +0.000 A 
ATOM     22  C   UNL     1       1.383   2.877  19.011  0.00  0.00    +0.000 A 
ATOM     23  C   UNL     1       0.692   3.226  20.174  0.00  0.00    +0.000 A 
ATOM     24  C   UNL     1       1.332   3.162  21.409  0.00  0.00    +0.000 A 
ATOM     25  C   UNL     1       2.659   2.744  21.481  0.00  0.00    +0.000 A 
ATOM     26  C   UNL     1       3.354   2.407  20.317  0.00  0.00    +0.000 A 
ENDBRANCH  20  21
ENDBRANCH  19  20
ENDBRANCH  18  19
ENDBRANCH  17  18
ENDBRANCH   7  17
TORSDOF 7
ENDMDL
MODEL 8
REMARK VINA RESULT:      -6.9      5.435      8.530
REMARK  Name = 
REMARK  7 active torsions:
REMARK  status: ('A' for Active; 'I' for Inactive)
REMARK    1  A    between atoms: C_7  and  O_8
REMARK    2  A    between atoms: O_8  and  C_9
REMARK    3  A    between atoms: C_9  and  C_10
REMARK    4  A    between atoms: C_10  and  O_11
REMARK    5  A    between atoms: O_11  and  C_12
REMARK    6  A    between atoms: C_20  and  O_21
REMARK    7  A    between atoms: C_22  and  N_23
REMARK                            x       y       z     vdW  Elec       q    Type
REMARK                         _______ _______ _______ _____ _____    ______ ____
ROOT
ATOM      1  O   UNL     1       1.924   2.115  17.301  0.00  0.00    +0.000 OA
ATOM      2  C   UNL     1       2.752   2.927  17.688  0.00  0.00    +0.000 A 
ATOM      3  O   UNL     1       3.879   3.217  16.922  0.00  0.00    +0.000 OA
ATOM      4  C   UNL     1       4.821   4.190  17.314  0.00  0.00    +0.000 A 
ATOM      5  C   UNL     1       5.878   4.387  16.431  0.00  0.00    +0.000 A 
ATOM      6  C   UNL     1       6.847   5.339  16.725  0.00  0.00    +0.000 A 
ATOM      7  C   UNL     1       6.755   6.088  17.898  0.00  0.00    +0.000 A 
ATOM      8  C   UNL     1       5.675   5.875  18.777  0.00  0.00    +0.000 A 
ATOM      9  C   UNL     1       4.688   4.913  18.504  0.00  0.00    +0.000 A 
ATOM     10  C   UNL     1       3.533   4.594  19.366  0.00  0.00    +0.000 A 
ATOM     11  C   UNL     1       2.671   3.661  18.940  0.00  0.00    +0.000 A 
ENDROOT
BRANCH  11  12
ATOM     12  N   UNL     1       1.574   3.319  19.787  0.00  0.00    +0.000 N 
ATOM     13  O   UNL     1       1.728   2.352  20.548  0.00  0.00    +0.000 OA
ATOM     14  O   UNL     1       0.558   4.020  19.699  0.00  0.00    +0.000 OA
ENDBRANCH  11  12
BRANCH  10  15
ATOM     15  O   UNL     1       3.387   5.243  20.578  0.00  0.00    +0.000 OA
ATOM     16  H   UNL     1       3.101   4.639  21.279  0.00  0.00    +0.000 HD
ENDBRANCH  10  15
BRANCH   7  17
ATOM     17  O   UNL     1       7.645   7.048  18.300  0.00  0.00    +0.000 OA
BRANCH  17  18
ATOM     18  C   UNL     1       8.008   8.075  17.368  0.00  0.00    +0.000 C 
BRANCH  18  19
ATOM     19  C   UNL     1       8.010   9.448  18.037  0.00  0.00    +0.000 C 
BRANCH  19  20
ATOM     20  O   UNL     1       8.987   9.454  19.080  0.00  0.00    +0.000 OA
BRANCH  20  21
ATOM     21  C   UNL     1       9.707  10.612  19.204  0.00  0.00    +0.000 A 
ATOM     22  C   UNL     1      10.059  11.233  18.004  0.00  0.00    +0.000 A 
ATOM     23  C   UNL     1      10.801  12.415  18.010  0.00  0.00    +0.000 A 
ATOM     24  C   UNL     1      11.173  12.997  19.220  0.00  0.00    +0.000 A 
ATOM     25  C   UNL     1      10.798  12.399  20.421  0.00  0.00    +0.000 A 
ATOM     26  C   UNL     1      10.066  11.209  20.414  0.00  0.00    +0.000 A 
ENDBRANCH  20  21
ENDBRANCH  19  20
ENDBRANCH  18  19
ENDBRANCH  17  18
ENDBRANCH   7  17
TORSDOF 7
ENDMDL
MODEL 9
REMARK VINA RESULT:      -6.9      6.018      8.941
REMARK  Name = 
REMARK  7 active torsions:
REMARK  status: ('A' for Active; 'I' for Inactive)
REMARK    1  A    between atoms: C_7  and  O_8
REMARK    2  A    between atoms: O_8  and  C_9
REMARK    3  A    between atoms: C_9  and  C_10
REMARK    4  A    between atoms: C_10  and  O_11
REMARK    5  A    between atoms: O_11  and  C_12
REMARK    6  A    between atoms: C_20  and  O_21
REMARK    7  A    between atoms: C_22  and  N_23
REMARK                            x       y       z     vdW  Elec       q    Type
REMARK                         _______ _______ _______ _____ _____    ______ ____
ROOT
ATOM      1  O   UNL     1       3.531   2.053  19.013  0.00  0.00    +0.000 OA
ATOM      2  C   UNL     1       3.937   3.177  18.757  0.00  0.00    +0.000 A 
ATOM      3  O   UNL     1       5.301   3.462  18.767  0.00  0.00    +0.000 OA
ATOM      4  C   UNL     1       5.803   4.733  18.419  0.00  0.00    +0.000 A 
ATOM      5  C   UNL     1       7.189   4.855  18.451  0.00  0.00    +0.000 A 
ATOM      6  C   UNL     1       7.777   6.067  18.106  0.00  0.00    +0.000 A 
ATOM      7  C   UNL     1       6.978   7.148  17.733  0.00  0.00    +0.000 A 
ATOM      8  C   UNL     1       5.577   7.001  17.705  0.00  0.00    +0.000 A 
ATOM      9  C   UNL     1       4.961   5.789  18.057  0.00  0.00    +0.000 A 
ATOM     10  C   UNL     1       3.506   5.537  18.086  0.00  0.00    +0.000 A 
ATOM     11  C   UNL     1       3.089   4.309  18.423  0.00  0.00    +0.000 A 
ENDROOT
BRANCH  11  12
ATOM     12  N   UNL     1       1.683   4.070  18.492  0.00  0.00    +0.000 N 
ATOM     13  O   UNL     1       1.142   4.203  19.600  0.00  0.00    +0.000 OA
ATOM     14  O   UNL     1       1.116   3.756  17.439  0.00  0.00    +0.000 OA
ENDBRANCH  11  12
BRANCH  10  15
ATOM     15  O   UNL     1       2.631   6.565  17.788  0.00  0.00    +0.000 OA
ATOM     16  H   UNL     1       1.772   6.445  18.222  0.00  0.00    +0.000 HD
ENDBRANCH  10  15
BRANCH   7  17
ATOM     17  O   UNL     1       7.436   8.389  17.378  0.00  0.00    +0.000 OA
BRANCH  17  18
ATOM     18  C   UNL     1       8.423   9.014  18.208  0.00  0.00    +0.000 C 
BRANCH  18  19
ATOM     19  C   UNL     1       8.474  10.521  17.961  0.00  0.00    +0.000 C 
BRANCH  19  20
ATOM     20  O   UNL     1       9.245  11.135  18.996  0.00  0.00    +0.000 OA
BRANCH  20  21
ATOM     21  C   UNL     1      10.221  11.996  18.569  0.00  0.00    +0.000 A 
ATOM     22  C   UNL     1      11.285  12.184  19.453  0.00  0.00    +0.000 A 
ATOM     23  C   UNL     1      12.332  13.048  19.126  0.00  0.00    +0.000 A 
ATOM     24  C   UNL     1      12.332  13.708  17.899  0.00  0.00    +0.000 A 
ATOM     25  C   UNL     1      11.289  13.500  17.001  0.00  0.00    +0.000 A 
ATOM     26  C   UNL     1      10.235  12.646  17.333  0.00  0.00    +0.000 A 
ENDBRANCH  20  21
ENDBRANCH  19  20
ENDBRANCH  18  19
ENDBRANCH  17  18
ENDBRANCH   7  17
TORSDOF 7
ENDMDL
