MODEL 1
REMARK VINA RESULT:      -7.9      0.000      0.000
REMARK  Name = 
REMARK  8 active torsions:
REMARK  status: ('A' for Active; 'I' for Inactive)
REMARK    1  A    between atoms: C_1  and  O_2
REMARK    2  A    between atoms: O_2  and  C_3
REMARK    3  A    between atoms: C_5  and  N_6
REMARK    4  A    between atoms: N_6  and  C_7
REMARK    5  A    between atoms: C_16  and  O_17
REMARK    6  A    between atoms: O_17  and  C_18
REMARK    7  A    between atoms: C_23  and  O_24
REMARK    8  A    between atoms: O_24  and  C_25
REMARK                            x       y       z     vdW  Elec       q    Type
REMARK                         _______ _______ _______ _____ _____    ______ ____
ROOT
ATOM      1  C   UNL     1       2.038   7.846  19.728  0.00  0.00    +0.000 A 
ATOM      2  N   UNL     1       2.276   8.064  18.409  0.00  0.00    +0.000 NA
ATOM      3  C   UNL     1       1.732   9.123  17.805  0.00  0.00    +0.000 A 
ATOM      4  N   UNL     1       0.886   9.995  18.341  0.00  0.00    +0.000 NA
ATOM      5  C   UNL     1       0.674   9.818  19.669  0.00  0.00    +0.000 A 
ATOM      6  C   UNL     1       1.285   8.812  20.408  0.00  0.00    +0.000 A 
ATOM      7  S   UNL     1       0.955   9.012  22.083  0.00  0.00    +0.000 S 
ATOM      8  C   UNL     1      -0.122  10.332  21.809  0.00  0.00    +0.000 A 
ATOM      9  C   UNL     1      -0.842  11.086  22.760  0.00  0.00    +0.000 A 
ATOM     10  C   UNL     1      -1.807  12.005  22.320  0.00  0.00    +0.000 A 
ATOM     11  C   UNL     1      -2.020  12.191  20.960  0.00  0.00    +0.000 A 
ATOM     12  C   UNL     1      -1.231  11.518  20.026  0.00  0.00    +0.000 A 
ATOM     13  C   UNL     1      -0.256  10.584  20.445  0.00  0.00    +0.000 A 
ENDROOT
BRANCH   1  14
ATOM     14  N   UNL     1       2.493   6.656  20.320  0.00  0.00    +0.000 N 
ATOM     15  H   UNL     1       2.848   6.763  21.262  0.00  0.00    +0.000 HD
BRANCH  14  18
ATOM     16  C   UNL     1       2.705   3.525  18.320  0.00  0.00    +0.000 A 
ATOM     17  C   UNL     1       2.191   4.607  19.035  0.00  0.00    +0.000 A 
ATOM     18  C   UNL     1       3.032   5.551  19.632  0.00  0.00    +0.000 A 
ATOM     19  C   UNL     1       4.414   5.410  19.473  0.00  0.00    +0.000 A 
ATOM     20  C   UNL     1       4.945   4.322  18.769  0.00  0.00    +0.000 A 
ATOM     21  C   UNL     1       4.086   3.379  18.196  0.00  0.00    +0.000 A 
BRANCH  16  23
ATOM     22  C   UNL     1       0.736   2.241  18.676  0.00  0.00    +0.000 C 
ATOM     23  O   UNL     1       1.747   2.706  17.794  0.00  0.00    +0.000 OA
ENDBRANCH  16  23
BRANCH  20  24
ATOM     24  O   UNL     1       6.316   4.287  18.704  0.00  0.00    +0.000 OA
ATOM     25  C   UNL     1       6.911   4.713  17.484  0.00  0.00    +0.000 C 
ENDBRANCH  20  24
ENDBRANCH  14  18
ENDBRANCH   1  14
BRANCH  10  26
ATOM     26  O   UNL     1      -2.490  12.650  23.317  0.00  0.00    +0.000 OA
ATOM     27  C   UNL     1      -3.897  12.788  23.136  0.00  0.00    +0.000 C 
ENDBRANCH  10  26
TORSDOF 5
ENDMDL
MODEL 2
REMARK VINA RESULT:      -7.9      0.232      2.538
REMARK  Name = 
REMARK  8 active torsions:
REMARK  status: ('A' for Active; 'I' for Inactive)
REMARK    1  A    between atoms: C_1  and  O_2
REMARK    2  A    between atoms: O_2  and  C_3
REMARK    3  A    between atoms: C_5  and  N_6
REMARK    4  A    between atoms: N_6  and  C_7
REMARK    5  A    between atoms: C_16  and  O_17
REMARK    6  A    between atoms: O_17  and  C_18
REMARK    7  A    between atoms: C_23  and  O_24
REMARK    8  A    between atoms: O_24  and  C_25
REMARK                            x       y       z     vdW  Elec       q    Type
REMARK                         _______ _______ _______ _____ _____    ______ ____
ROOT
ATOM      1  C   UNL     1       2.033   7.798  19.716  0.00  0.00    +0.000 A 
ATOM      2  N   UNL     1       2.262   8.024  18.397  0.00  0.00    +0.000 NA
ATOM      3  C   UNL     1       1.730   9.097  17.807  0.00  0.00    +0.000 A 
ATOM      4  N   UNL     1       0.904   9.978  18.358  0.00  0.00    +0.000 NA
ATOM      5  C   UNL     1       0.701   9.792  19.687  0.00  0.00    +0.000 A 
ATOM      6  C   UNL     1       1.302   8.770  20.412  0.00  0.00    +0.000 A 
ATOM      7  S   UNL     1       0.990   8.961  22.091  0.00  0.00    +0.000 S 
ATOM      8  C   UNL     1      -0.067  10.300  21.838  0.00  0.00    +0.000 A 
ATOM      9  C   UNL     1      -0.766  11.058  22.802  0.00  0.00    +0.000 A 
ATOM     10  C   UNL     1      -1.719  11.997  22.379  0.00  0.00    +0.000 A 
ATOM     11  C   UNL     1      -1.941  12.198  21.023  0.00  0.00    +0.000 A 
ATOM     12  C   UNL     1      -1.172  11.521  20.076  0.00  0.00    +0.000 A 
ATOM     13  C   UNL     1      -0.209  10.567  20.478  0.00  0.00    +0.000 A 
ENDROOT
BRANCH   1  14
ATOM     14  N   UNL     1       2.473   6.595  20.294  0.00  0.00    +0.000 N 
ATOM     15  H   UNL     1       2.810   6.683  21.244  0.00  0.00    +0.000 HD
BRANCH  14  18
ATOM     16  C   UNL     1       4.971   4.274  18.803  0.00  0.00    +0.000 A 
ATOM     17  C   UNL     1       4.408   5.367  19.461  0.00  0.00    +0.000 A 
ATOM     18  C   UNL     1       3.022   5.502  19.595  0.00  0.00    +0.000 A 
ATOM     19  C   UNL     1       2.200   4.496  19.078  0.00  0.00    +0.000 A 
ATOM     20  C   UNL     1       2.751   3.400  18.403  0.00  0.00    +0.000 A 
ATOM     21  C   UNL     1       4.139   3.294  18.264  0.00  0.00    +0.000 A 
BRANCH  16  23
ATOM     22  C   UNL     1       6.958   5.452  18.237  0.00  0.00    +0.000 C 
ATOM     23  O   UNL     1       6.336   4.293  18.772  0.00  0.00    +0.000 OA
ENDBRANCH  16  23
BRANCH  20  24
ATOM     24  O   UNL     1       1.836   2.495  17.925  0.00  0.00    +0.000 OA
ATOM     25  C   UNL     1       0.666   2.290  18.709  0.00  0.00    +0.000 C 
ENDBRANCH  20  24
ENDBRANCH  14  18
ENDBRANCH   1  14
BRANCH  10  26
ATOM     26  O   UNL     1      -2.383  12.644  23.388  0.00  0.00    +0.000 OA
ATOM     27  C   UNL     1      -3.805  12.650  23.310  0.00  0.00    +0.000 C 
ENDBRANCH  10  26
TORSDOF 5
ENDMDL
MODEL 3
REMARK VINA RESULT:      -7.7      3.201      5.010
REMARK  Name = 
REMARK  8 active torsions:
REMARK  status: ('A' for Active; 'I' for Inactive)
REMARK    1  A    between atoms: C_1  and  O_2
REMARK    2  A    between atoms: O_2  and  C_3
REMARK    3  A    between atoms: C_5  and  N_6
REMARK    4  A    between atoms: N_6  and  C_7
REMARK    5  A    between atoms: C_16  and  O_17
REMARK    6  A    between atoms: O_17  and  C_18
REMARK    7  A    between atoms: C_23  and  O_24
REMARK    8  A    between atoms: O_24  and  C_25
REMARK                            x       y       z     vdW  Elec       q    Type
REMARK                         _______ _______ _______ _____ _____    ______ ____
ROOT
ATOM      1  C   UNL     1       4.038   3.788  19.464  0.00  0.00    +0.000 A 
ATOM      2  N   UNL     1       3.580   2.894  20.378  0.00  0.00    +0.000 NA
ATOM      3  C   UNL     1       2.564   3.227  21.177  0.00  0.00    +0.000 A 
ATOM      4  N   UNL     1       1.960   4.408  21.244  0.00  0.00    +0.000 NA
ATOM      5  C   UNL     1       2.376   5.297  20.307  0.00  0.00    +0.000 A 
ATOM      6  C   UNL     1       3.348   5.003  19.359  0.00  0.00    +0.000 A 
ATOM      7  S   UNL     1       3.473   6.276  18.212  0.00  0.00    +0.000 S 
ATOM      8  C   UNL     1       2.355   7.278  19.062  0.00  0.00    +0.000 A 
ATOM      9  C   UNL     1       1.905   8.571  18.722  0.00  0.00    +0.000 A 
ATOM     10  C   UNL     1       1.130   9.293  19.642  0.00  0.00    +0.000 A 
ATOM     11  C   UNL     1       0.782   8.719  20.858  0.00  0.00    +0.000 A 
ATOM     12  C   UNL     1       1.142   7.402  21.143  0.00  0.00    +0.000 A 
ATOM     13  C   UNL     1       1.928   6.656  20.233  0.00  0.00    +0.000 A 
ENDROOT
BRANCH   1  14
ATOM     14  N   UNL     1       5.197   3.486  18.729  0.00  0.00    +0.000 N 
ATOM     15  H   UNL     1       5.732   2.706  19.088  0.00  0.00    +0.000 HD
BRANCH  14  18
ATOM     16  C   UNL     1       6.629   5.347  15.841  0.00  0.00    +0.000 A 
ATOM     17  C   UNL     1       5.905   4.419  16.591  0.00  0.00    +0.000 A 
ATOM     18  C   UNL     1       5.962   4.408  17.988  0.00  0.00    +0.000 A 
ATOM     19  C   UNL     1       6.742   5.373  18.632  0.00  0.00    +0.000 A 
ATOM     20  C   UNL     1       7.483   6.303  17.893  0.00  0.00    +0.000 A 
ATOM     21  C   UNL     1       7.427   6.284  16.496  0.00  0.00    +0.000 A 
BRANCH  16  23
ATOM     22  C   UNL     1       6.220   3.920  13.984  0.00  0.00    +0.000 C 
ATOM     23  O   UNL     1       6.452   5.225  14.493  0.00  0.00    +0.000 OA
ENDBRANCH  16  23
BRANCH  20  24
ATOM     24  O   UNL     1       8.224   7.182  18.644  0.00  0.00    +0.000 OA
ATOM     25  C   UNL     1       8.273   8.530  18.189  0.00  0.00    +0.000 C 
ENDBRANCH  20  24
ENDBRANCH  14  18
ENDBRANCH   1  14
BRANCH  10  26
ATOM     26  O   UNL     1       0.786  10.559  19.244  0.00  0.00    +0.000 OA
ATOM     27  C   UNL     1      -0.557  10.961  19.502  0.00  0.00    +0.000 C 
ENDBRANCH  10  26
TORSDOF 5
ENDMDL
MODEL 4
REMARK VINA RESULT:      -7.7      3.087      8.708
REMARK  Name = 
REMARK  8 active torsions:
REMARK  status: ('A' for Active; 'I' for Inactive)
REMARK    1  A    between atoms: C_1  and  O_2
REMARK    2  A    between atoms: O_2  and  C_3
REMARK    3  A    between atoms: C_5  and  N_6
REMARK    4  A    between atoms: N_6  and  C_7
REMARK    5  A    between atoms: C_16  and  O_17
REMARK    6  A    between atoms: O_17  and  C_18
REMARK    7  A    between atoms: C_23  and  O_24
REMARK    8  A    between atoms: O_24  and  C_25
REMARK                            x       y       z     vdW  Elec       q    Type
REMARK                         _______ _______ _______ _____ _____    ______ ____
ROOT
ATOM      1  C   UNL     1       2.788   5.012  19.464  0.00  0.00    +0.000 A 
ATOM      2  N   UNL     1       1.878   4.009  19.368  0.00  0.00    +0.000 NA
ATOM      3  C   UNL     1       1.972   3.124  18.374  0.00  0.00    +0.000 A 
ATOM      4  N   UNL     1       2.845   3.141  17.374  0.00  0.00    +0.000 NA
ATOM      5  C   UNL     1       3.790   4.110  17.480  0.00  0.00    +0.000 A 
ATOM      6  C   UNL     1       3.841   5.008  18.540  0.00  0.00    +0.000 A 
ATOM      7  S   UNL     1       5.276   5.950  18.459  0.00  0.00    +0.000 S 
ATOM      8  C   UNL     1       5.744   5.279  16.941  0.00  0.00    +0.000 A 
ATOM      9  C   UNL     1       6.892   5.567  16.173  0.00  0.00    +0.000 A 
ATOM     10  C   UNL     1       7.000   5.044  14.875  0.00  0.00    +0.000 A 
ATOM     11  C   UNL     1       5.999   4.221  14.373  0.00  0.00    +0.000 A 
ATOM     12  C   UNL     1       4.919   3.856  15.176  0.00  0.00    +0.000 A 
ATOM     13  C   UNL     1       4.786   4.375  16.485  0.00  0.00    +0.000 A 
ENDROOT
BRANCH   1  14
ATOM     14  N   UNL     1       2.600   6.021  20.424  0.00  0.00    +0.000 N 
ATOM     15  H   UNL     1       2.555   5.690  21.379  0.00  0.00    +0.000 HD
BRANCH  14  18
ATOM     16  C   UNL     1       0.368   8.946  20.984  0.00  0.00    +0.000 A 
ATOM     17  C   UNL     1       1.020   7.725  21.160  0.00  0.00    +0.000 A 
ATOM     18  C   UNL     1       1.926   7.239  20.211  0.00  0.00    +0.000 A 
ATOM     19  C   UNL     1       2.195   8.021  19.084  0.00  0.00    +0.000 A 
ATOM     20  C   UNL     1       1.539   9.242  18.887  0.00  0.00    +0.000 A 
ATOM     21  C   UNL     1       0.623   9.700  19.839  0.00  0.00    +0.000 A 
BRANCH  16  23
ATOM     22  C   UNL     1       0.112   9.499  23.282  0.00  0.00    +0.000 C 
ATOM     23  O   UNL     1      -0.473   9.274  22.008  0.00  0.00    +0.000 OA
ENDBRANCH  16  23
BRANCH  20  24
ATOM     24  O   UNL     1       1.876   9.901  17.731  0.00  0.00    +0.000 OA
ATOM     25  C   UNL     1       2.256  11.267  17.859  0.00  0.00    +0.000 C 
ENDBRANCH  20  24
ENDBRANCH  14  18
ENDBRANCH   1  14
BRANCH  10  26
ATOM     26  O   UNL     1       8.124   5.422  14.189  0.00  0.00    +0.000 OA
ATOM     27  C   UNL     1       8.042   5.383  12.767  0.00  0.00    +0.000 C 
ENDBRANCH  10  26
TORSDOF 5
ENDMDL
MODEL 5
REMARK VINA RESULT:      -7.6      3.267      5.313
REMARK  Name = 
REMARK  8 active torsions:
REMARK  status: ('A' for Active; 'I' for Inactive)
REMARK    1  A    between atoms: C_1  and  O_2
REMARK    2  A    between atoms: O_2  and  C_3
REMARK    3  A    between atoms: C_5  and  N_6
REMARK    4  A    between atoms: N_6  and  C_7
REMARK    5  A    between atoms: C_16  and  O_17
REMARK    6  A    between atoms: O_17  and  C_18
REMARK    7  A    between atoms: C_23  and  O_24
REMARK    8  A    between atoms: O_24  and  C_25
REMARK                            x       y       z     vdW  Elec       q    Type
REMARK                         _______ _______ _______ _____ _____    ______ ____
ROOT
ATOM      1  C   UNL     1       4.059   3.812  19.427  0.00  0.00    +0.000 A 
ATOM      2  N   UNL     1       3.594   2.922  20.341  0.00  0.00    +0.000 NA
ATOM      3  C   UNL     1       2.573   3.259  21.133  0.00  0.00    +0.000 A 
ATOM      4  N   UNL     1       1.970   4.441  21.191  0.00  0.00    +0.000 NA
ATOM      5  C   UNL     1       2.393   5.326  20.253  0.00  0.00    +0.000 A 
ATOM      6  C   UNL     1       3.371   5.026  19.313  0.00  0.00    +0.000 A 
ATOM      7  S   UNL     1       3.504   6.295  18.161  0.00  0.00    +0.000 S 
ATOM      8  C   UNL     1       2.382   7.301  18.999  0.00  0.00    +0.000 A 
ATOM      9  C   UNL     1       1.936   8.594  18.651  0.00  0.00    +0.000 A 
ATOM     10  C   UNL     1       1.155   9.320  19.563  0.00  0.00    +0.000 A 
ATOM     11  C   UNL     1       0.799   8.751  20.779  0.00  0.00    +0.000 A 
ATOM     12  C   UNL     1       1.156   7.435  21.071  0.00  0.00    +0.000 A 
ATOM     13  C   UNL     1       1.947   6.685  20.170  0.00  0.00    +0.000 A 
ENDROOT
BRANCH   1  14
ATOM     14  N   UNL     1       5.222   3.505  18.701  0.00  0.00    +0.000 N 
ATOM     15  H   UNL     1       5.966   3.095  19.251  0.00  0.00    +0.000 HD
BRANCH  14  18
ATOM     16  C   UNL     1       7.080   5.882  16.522  0.00  0.00    +0.000 A 
ATOM     17  C   UNL     1       6.597   5.224  17.653  0.00  0.00    +0.000 A 
ATOM     18  C   UNL     1       5.672   4.180  17.549  0.00  0.00    +0.000 A 
ATOM     19  C   UNL     1       5.257   3.780  16.275  0.00  0.00    +0.000 A 
ATOM     20  C   UNL     1       5.723   4.439  15.131  0.00  0.00    +0.000 A 
ATOM     21  C   UNL     1       6.633   5.494  15.259  0.00  0.00    +0.000 A 
BRANCH  16  23
ATOM     22  C   UNL     1       7.509   7.998  17.516  0.00  0.00    +0.000 C 
ATOM     23  O   UNL     1       7.983   6.868  16.800  0.00  0.00    +0.000 OA
ENDBRANCH  16  23
BRANCH  20  24
ATOM     24  O   UNL     1       5.223   3.965  13.944  0.00  0.00    +0.000 OA
ATOM     25  C   UNL     1       6.170   3.653  12.928  0.00  0.00    +0.000 C 
ENDBRANCH  20  24
ENDBRANCH  14  18
ENDBRANCH   1  14
BRANCH  10  26
ATOM     26  O   UNL     1       0.815  10.584  19.157  0.00  0.00    +0.000 OA
ATOM     27  C   UNL     1      -0.517  10.762  18.685  0.00  0.00    +0.000 C 
ENDBRANCH  10  26
TORSDOF 5
ENDMDL
MODEL 6
REMARK VINA RESULT:      -7.5      3.240      8.535
REMARK  Name = 
REMARK  8 active torsions:
REMARK  status: ('A' for Active; 'I' for Inactive)
REMARK    1  A    between atoms: C_1  and  O_2
REMARK    2  A    between atoms: O_2  and  C_3
REMARK    3  A    between atoms: C_5  and  N_6
REMARK    4  A    between atoms: N_6  and  C_7
REMARK    5  A    between atoms: C_16  and  O_17
REMARK    6  A    between atoms: O_17  and  C_18
REMARK    7  A    between atoms: C_23  and  O_24
REMARK    8  A    between atoms: O_24  and  C_25
REMARK                            x       y       z     vdW  Elec       q    Type
REMARK                         _______ _______ _______ _____ _____    ______ ____
ROOT
ATOM      1  C   UNL     1       0.227  10.368  19.912  0.00  0.00    +0.000 A 
ATOM      2  N   UNL     1      -0.112  10.220  21.218  0.00  0.00    +0.000 NA
ATOM      3  C   UNL     1       0.370   9.189  21.914  0.00  0.00    +0.000 A 
ATOM      4  N   UNL     1       1.121   8.198  21.448  0.00  0.00    +0.000 NA
ATOM      5  C   UNL     1       1.507   8.355  20.157  0.00  0.00    +0.000 A 
ATOM      6  C   UNL     1       1.148   9.453  19.385  0.00  0.00    +0.000 A 
ATOM      7  S   UNL     1       1.977   9.426  17.880  0.00  0.00    +0.000 S 
ATOM      8  C   UNL     1       2.683   7.883  18.190  0.00  0.00    +0.000 A 
ATOM      9  C   UNL     1       3.554   7.138  17.367  0.00  0.00    +0.000 A 
ATOM     10  C   UNL     1       3.876   5.819  17.723  0.00  0.00    +0.000 A 
ATOM     11  C   UNL     1       3.368   5.273  18.895  0.00  0.00    +0.000 A 
ATOM     12  C   UNL     1       2.593   6.051  19.756  0.00  0.00    +0.000 A 
ATOM     13  C   UNL     1       2.251   7.380  19.415  0.00  0.00    +0.000 A 
ENDROOT
BRANCH   1  14
ATOM     14  N   UNL     1      -0.397  11.370  19.149  0.00  0.00    +0.000 N 
ATOM     15  H   UNL     1      -0.192  12.315  19.447  0.00  0.00    +0.000 HD
BRANCH  14  18
ATOM     16  C   UNL     1      -2.928  10.333  16.626  0.00  0.00    +0.000 A 
ATOM     17  C   UNL     1      -1.713  10.501  17.290  0.00  0.00    +0.000 A 
ATOM     18  C   UNL     1      -1.627  11.240  18.474  0.00  0.00    +0.000 A 
ATOM     19  C   UNL     1      -2.798  11.789  19.006  0.00  0.00    +0.000 A 
ATOM     20  C   UNL     1      -4.022  11.639  18.343  0.00  0.00    +0.000 A 
ATOM     21  C   UNL     1      -4.083  10.912  17.150  0.00  0.00    +0.000 A 
BRANCH  16  23
ATOM     22  C   UNL     1      -3.469  10.077  14.325  0.00  0.00    +0.000 C 
ATOM     23  O   UNL     1      -2.837   9.576  15.493  0.00  0.00    +0.000 OA
ENDBRANCH  16  23
BRANCH  20  24
ATOM     24  O   UNL     1      -5.091  12.244  18.957  0.00  0.00    +0.000 OA
ATOM     25  C   UNL     1      -4.833  12.904  20.192  0.00  0.00    +0.000 C 
ENDBRANCH  20  24
ENDBRANCH  14  18
ENDBRANCH   1  14
BRANCH  10  26
ATOM     26  O   UNL     1       4.685   5.160  16.835  0.00  0.00    +0.000 OA
ATOM     27  C   UNL     1       5.351   5.964  15.866  0.00  0.00    +0.000 C 
ENDBRANCH  10  26
TORSDOF 5
ENDMDL
MODEL 7
REMARK VINA RESULT:      -7.4      3.329      8.500
REMARK  Name = 
REMARK  8 active torsions:
REMARK  status: ('A' for Active; 'I' for Inactive)
REMARK    1  A    between atoms: C_1  and  O_2
REMARK    2  A    between atoms: O_2  and  C_3
REMARK    3  A    between atoms: C_5  and  N_6
REMARK    4  A    between atoms: N_6  and  C_7
REMARK    5  A    between atoms: C_16  and  O_17
REMARK    6  A    between atoms: O_17  and  C_18
REMARK    7  A    between atoms: C_23  and  O_24
REMARK    8  A    between atoms: O_24  and  C_25
REMARK                            x       y       z     vdW  Elec       q    Type
REMARK                         _______ _______ _______ _____ _____    ______ ____
ROOT
ATOM      1  C   UNL     1       0.285  10.090  19.748  0.00  0.00    +0.000 A 
ATOM      2  N   UNL     1      -0.125   9.969  21.037  0.00  0.00    +0.000 NA
ATOM      3  C   UNL     1       0.328   8.959  21.783  0.00  0.00    +0.000 A 
ATOM      4  N   UNL     1       1.114   7.966  21.383  0.00  0.00    +0.000 NA
ATOM      5  C   UNL     1       1.569   8.097  20.111  0.00  0.00    +0.000 A 
ATOM      6  C   UNL     1       1.243   9.173  19.295  0.00  0.00    +0.000 A 
ATOM      7  S   UNL     1       2.154   9.120  17.839  0.00  0.00    +0.000 S 
ATOM      8  C   UNL     1       2.858   7.593  18.224  0.00  0.00    +0.000 A 
ATOM      9  C   UNL     1       3.780   6.839  17.469  0.00  0.00    +0.000 A 
ATOM     10  C   UNL     1       4.095   5.533  17.873  0.00  0.00    +0.000 A 
ATOM     11  C   UNL     1       3.527   5.008  19.028  0.00  0.00    +0.000 A 
ATOM     12  C   UNL     1       2.699   5.797  19.826  0.00  0.00    +0.000 A 
ATOM     13  C   UNL     1       2.363   7.114  19.436  0.00  0.00    +0.000 A 
ENDROOT
BRANCH   1  14
ATOM     14  N   UNL     1      -0.305  11.067  18.929  0.00  0.00    +0.000 N 
ATOM     15  H   UNL     1      -0.027  12.016  19.139  0.00  0.00    +0.000 HD
BRANCH  14  18
ATOM     16  C   UNL     1      -3.935  11.545  18.259  0.00  0.00    +0.000 A 
ATOM     17  C   UNL     1      -2.683  11.604  18.871  0.00  0.00    +0.000 A 
ATOM     18  C   UNL     1      -1.569  10.967  18.314  0.00  0.00    +0.000 A 
ATOM     19  C   UNL     1      -1.725  10.287  17.102  0.00  0.00    +0.000 A 
ATOM     20  C   UNL     1      -2.978  10.209  16.483  0.00  0.00    +0.000 A 
ATOM     21  C   UNL     1      -4.083  10.837  17.067  0.00  0.00    +0.000 A 
BRANCH  16  23
ATOM     22  C   UNL     1      -6.176  11.602  19.050  0.00  0.00    +0.000 C 
ATOM     23  O   UNL     1      -4.908  12.229  18.929  0.00  0.00    +0.000 OA
ENDBRANCH  16  23
BRANCH  20  24
ATOM     24  O   UNL     1      -3.002   9.495  15.310  0.00  0.00    +0.000 OA
ATOM     25  C   UNL     1      -3.613  10.124  14.189  0.00  0.00    +0.000 C 
ENDBRANCH  20  24
ENDBRANCH  14  18
ENDBRANCH   1  14
BRANCH  10  26
ATOM     26  O   UNL     1       4.958   4.861  17.048  0.00  0.00    +0.000 OA
ATOM     27  C   UNL     1       5.443   5.581  15.917  0.00  0.00    +0.000 C 
ENDBRANCH  10  26
TORSDOF 5
ENDMDL
MODEL 8
REMARK VINA RESULT:      -7.3      2.599      3.846
REMARK  Name = 
REMARK  8 active torsions:
REMARK  status: ('A' for Active; 'I' for Inactive)
REMARK    1  A    between atoms: C_1  and  O_2
REMARK    2  A    between atoms: O_2  and  C_3
REMARK    3  A    between atoms: C_5  and  N_6
REMARK    4  A    between atoms: N_6  and  C_7
REMARK    5  A    between atoms: C_16  and  O_17
REMARK    6  A    between atoms: O_17  and  C_18
REMARK    7  A    between atoms: C_23  and  O_24
REMARK    8  A    between atoms: O_24  and  C_25
REMARK                            x       y       z     vdW  Elec       q    Type
REMARK                         _______ _______ _______ _____ _____    ______ ____
ROOT
ATOM      1  C   UNL     1       3.127   6.467  18.208  0.00  0.00    +0.000 A 
ATOM      2  N   UNL     1       3.122   5.272  18.852  0.00  0.00    +0.000 NA
ATOM      3  C   UNL     1       2.455   5.142  20.001  0.00  0.00    +0.000 A 
ATOM      4  N   UNL     1       1.823   6.102  20.665  0.00  0.00    +0.000 NA
ATOM      5  C   UNL     1       1.780   7.291  20.013  0.00  0.00    +0.000 A 
ATOM      6  C   UNL     1       2.348   7.492  18.761  0.00  0.00    +0.000 A 
ATOM      7  S   UNL     1       1.925   9.042  18.151  0.00  0.00    +0.000 S 
ATOM      8  C   UNL     1       1.127   9.502  19.609  0.00  0.00    +0.000 A 
ATOM      9  C   UNL     1       0.474  10.717  19.904  0.00  0.00    +0.000 A 
ATOM     10  C   UNL     1       0.042  10.965  21.216  0.00  0.00    +0.000 A 
ATOM     11  C   UNL     1       0.225  10.002  22.201  0.00  0.00    +0.000 A 
ATOM     12  C   UNL     1       0.775   8.762  21.878  0.00  0.00    +0.000 A 
ATOM     13  C   UNL     1       1.223   8.491  20.564  0.00  0.00    +0.000 A 
ENDROOT
BRANCH   1  14
ATOM     14  N   UNL     1       3.947   6.636  17.080  0.00  0.00    +0.000 N 
ATOM     15  H   UNL     1       3.460   6.944  16.248  0.00  0.00    +0.000 HD
BRANCH  14  18
ATOM     16  C   UNL     1       6.635   4.855  15.221  0.00  0.00    +0.000 A 
ATOM     17  C   UNL     1       5.449   5.530  15.509  0.00  0.00    +0.000 A 
ATOM     18  C   UNL     1       5.134   5.925  16.814  0.00  0.00    +0.000 A 
ATOM     19  C   UNL     1       6.052   5.656  17.833  0.00  0.00    +0.000 A 
ATOM     20  C   UNL     1       7.241   4.969  17.561  0.00  0.00    +0.000 A 
ATOM     21  C   UNL     1       7.527   4.566  16.252  0.00  0.00    +0.000 A 
BRANCH  16  23
ATOM     22  C   UNL     1       5.767   3.787  13.283  0.00  0.00    +0.000 C 
ATOM     23  O   UNL     1       6.790   4.554  13.899  0.00  0.00    +0.000 OA
ENDBRANCH  16  23
BRANCH  20  24
ATOM     24  O   UNL     1       8.046   4.748  18.651  0.00  0.00    +0.000 OA
ATOM     25  C   UNL     1       7.865   5.613  19.767  0.00  0.00    +0.000 C 
ENDBRANCH  20  24
ENDBRANCH  14  18
ENDBRANCH   1  14
BRANCH  10  26
ATOM     26  O   UNL     1      -0.532  12.193  21.416  0.00  0.00    +0.000 OA
ATOM     27  C   UNL     1      -0.756  12.985  20.253  0.00  0.00    +0.000 C 
ENDBRANCH  10  26
TORSDOF 5
ENDMDL
MODEL 9
REMARK VINA RESULT:      -7.3      3.226      8.507
REMARK  Name = 
REMARK  8 active torsions:
REMARK  status: ('A' for Active; 'I' for Inactive)
REMARK    1  A    between atoms: C_1  and  O_2
REMARK    2  A    between atoms: O_2  and  C_3
REMARK    3  A    between atoms: C_5  and  N_6
REMARK    4  A    between atoms: N_6  and  C_7
REMARK    5  A    between atoms: C_16  and  O_17
REMARK    6  A    between atoms: O_17  and  C_18
REMARK    7  A    between atoms: C_23  and  O_24
REMARK    8  A    between atoms: O_24  and  C_25
REMARK                            x       y       z     vdW  Elec       q    Type
REMARK                         _______ _______ _______ _____ _____    ______ ____
ROOT
ATOM      1  C   UNL     1       0.303  10.568  20.023  0.00  0.00    +0.000 A 
ATOM      2  N   UNL     1       0.036  10.680  21.349  0.00  0.00    +0.000 NA
ATOM      3  C   UNL     1       0.442   9.725  22.189  0.00  0.00    +0.000 A 
ATOM      4  N   UNL     1       1.044   8.586  21.865  0.00  0.00    +0.000 NA
ATOM      5  C   UNL     1       1.358   8.480  20.549  0.00  0.00    +0.000 A 
ATOM      6  C   UNL     1       1.077   9.473  19.619  0.00  0.00    +0.000 A 
ATOM      7  S   UNL     1       1.796   9.097  18.104  0.00  0.00    +0.000 S 
ATOM      8  C   UNL     1       2.342   7.551  18.640  0.00  0.00    +0.000 A 
ATOM      9  C   UNL     1       3.066   6.579  17.918  0.00  0.00    +0.000 A 
ATOM     10  C   UNL     1       3.259   5.308  18.479  0.00  0.00    +0.000 A 
ATOM     11  C   UNL     1       2.770   5.028  19.749  0.00  0.00    +0.000 A 
ATOM     12  C   UNL     1       2.147   6.026  20.499  0.00  0.00    +0.000 A 
ATOM     13  C   UNL     1       1.937   7.313  19.952  0.00  0.00    +0.000 A 
ENDROOT
BRANCH   1  14
ATOM     14  N   UNL     1      -0.252  11.500  19.129  0.00  0.00    +0.000 N 
ATOM     15  H   UNL     1       0.016  12.460  19.302  0.00  0.00    +0.000 HD
BRANCH  14  18
ATOM     16  C   UNL     1      -2.795  10.492  16.606  0.00  0.00    +0.000 A 
ATOM     17  C   UNL     1      -1.575  10.665  17.259  0.00  0.00    +0.000 A 
ATOM     18  C   UNL     1      -1.488  11.366  18.467  0.00  0.00    +0.000 A 
ATOM     19  C   UNL     1      -2.664  11.869  19.033  0.00  0.00    +0.000 A 
ATOM     20  C   UNL     1      -3.894  11.714  18.382  0.00  0.00    +0.000 A 
ATOM     21  C   UNL     1      -3.955  11.027  17.165  0.00  0.00    +0.000 A 
BRANCH  16  23
ATOM     22  C   UNL     1      -3.636  10.080  14.421  0.00  0.00    +0.000 C 
ATOM     23  O   UNL     1      -2.703   9.776  15.447  0.00  0.00    +0.000 OA
ENDBRANCH  16  23
BRANCH  20  24
ATOM     24  O   UNL     1      -4.967  12.273  19.030  0.00  0.00    +0.000 OA
ATOM     25  C   UNL     1      -6.104  12.587  18.234  0.00  0.00    +0.000 C 
ENDBRANCH  20  24
ENDBRANCH  14  18
ENDBRANCH   1  14
BRANCH  10  26
ATOM     26  O   UNL     1       3.927   4.416  17.681  0.00  0.00    +0.000 OA
ATOM     27  C   UNL     1       4.090   3.099  18.199  0.00  0.00    +0.000 C 
ENDBRANCH  10  26
TORSDOF 5
ENDMDL
