MODEL 1
REMARK VINA RESULT:      -6.2      0.000      0.000
REMARK  Name = 
REMARK  4 active torsions:
REMARK  status: ('A' for Active; 'I' for Inactive)
REMARK    1  A    between atoms: C_2  and  O_3
REMARK    2  A    between atoms: C_2  and  C_4
REMARK    3  A    between atoms: C_4  and  S_5
REMARK    4  A    between atoms: C_6  and  C_7
REMARK                            x       y       z     vdW  Elec       q    Type
REMARK                         _______ _______ _______ _____ _____    ______ ____
ROOT
ATOM      1  C   UNL     1       5.873   4.585  17.458  0.00  0.00    +0.000 C 
ATOM      2  C   UNL     1       5.593   4.872  18.744  0.00  0.00    +0.000 C 
ENDROOT
BRANCH   2   3
ATOM      3  C   UNL     1       4.246   4.890  19.348  0.00  0.00    +0.000 A 
ATOM      4  C   UNL     1       3.520   6.091  19.324  0.00  0.00    +0.000 A 
ATOM      5  C   UNL     1       2.253   6.166  19.904  0.00  0.00    +0.000 A 
ATOM      6  C   UNL     1       1.697   5.039  20.511  0.00  0.00    +0.000 A 
ATOM      7  C   UNL     1       2.405   3.833  20.533  0.00  0.00    +0.000 A 
ATOM      8 CL   UNL     1       1.644   2.485  21.307  0.00  0.00    +0.000 Cl
ATOM      9  C   UNL     1       3.680   3.751  19.955  0.00  0.00    +0.000 A 
ATOM     10 CL   UNL     1       4.577   2.263  19.999  0.00  0.00    +0.000 Cl
ENDBRANCH   2   3
BRANCH   1  12
ATOM     11  O   UNL     1       7.595   4.840  15.810  0.00  0.00    +0.000 OA
ATOM     12  C   UNL     1       7.280   4.502  16.942  0.00  0.00    +0.000 C 
BRANCH  12  13
ATOM     13  O   UNL     1       8.196   4.056  17.828  0.00  0.00    +0.000 OA
ATOM     14  H   UNL     1       9.120   4.301  17.649  0.00  0.00    +0.000 HD
ENDBRANCH  12  13
ENDBRANCH   1  12
BRANCH   1  15
ATOM     15  S   UNL     1       4.646   4.176  16.290  0.00  0.00    +0.000 S 
ATOM     16  H   UNL     1       4.643   2.847  16.508  0.00  0.00    +0.000 HD
ENDBRANCH   1  15
TORSDOF 4
ENDMDL
MODEL 2
REMARK VINA RESULT:      -6.1      1.702      1.905
REMARK  Name = 
REMARK  4 active torsions:
REMARK  status: ('A' for Active; 'I' for Inactive)
REMARK    1  A    between atoms: C_2  and  O_3
REMARK    2  A    between atoms: C_2  and  C_4
REMARK    3  A    between atoms: C_4  and  S_5
REMARK    4  A    between atoms: C_6  and  C_7
REMARK                            x       y       z     vdW  Elec       q    Type
REMARK                         _______ _______ _______ _____ _____    ______ ____
ROOT
ATOM      1  C   UNL     1       5.967   4.612  16.440  0.00  0.00    +0.000 C 
ATOM      2  C   UNL     1       4.621   4.630  16.490  0.00  0.00    +0.000 C 
ENDROOT
BRANCH   2   3
ATOM      3  C   UNL     1       3.808   4.812  17.709  0.00  0.00    +0.000 A 
ATOM      4  C   UNL     1       3.554   6.119  18.153  0.00  0.00    +0.000 A 
ATOM      5  C   UNL     1       2.812   6.342  19.314  0.00  0.00    +0.000 A 
ATOM      6  C   UNL     1       2.312   5.260  20.040  0.00  0.00    +0.000 A 
ATOM      7  C   UNL     1       2.548   3.953  19.602  0.00  0.00    +0.000 A 
ATOM      8 CL   UNL     1       1.893   2.670  20.562  0.00  0.00    +0.000 Cl
ATOM      9  C   UNL     1       3.296   3.720  18.439  0.00  0.00    +0.000 A 
ATOM     10 CL   UNL     1       3.614   2.098  17.901  0.00  0.00    +0.000 Cl
ENDBRANCH   2   3
BRANCH   1  12
ATOM     11  O   UNL     1       7.626   5.276  14.841  0.00  0.00    +0.000 OA
ATOM     12  C   UNL     1       6.721   4.511  15.147  0.00  0.00    +0.000 C 
BRANCH  12  13
ATOM     13  O   UNL     1       6.359   3.488  14.344  0.00  0.00    +0.000 OA
ATOM     14  H   UNL     1       5.797   2.805  14.749  0.00  0.00    +0.000 HD
ENDBRANCH  12  13
ENDBRANCH   1  12
BRANCH   1  15
ATOM     15  S   UNL     1       6.970   4.811  17.852  0.00  0.00    +0.000 S 
ATOM     16  H   UNL     1       7.123   6.146  17.762  0.00  0.00    +0.000 HD
ENDBRANCH   1  15
TORSDOF 4
ENDMDL
MODEL 3
REMARK VINA RESULT:      -5.9      2.208      2.390
REMARK  Name = 
REMARK  4 active torsions:
REMARK  status: ('A' for Active; 'I' for Inactive)
REMARK    1  A    between atoms: C_2  and  O_3
REMARK    2  A    between atoms: C_2  and  C_4
REMARK    3  A    between atoms: C_4  and  S_5
REMARK    4  A    between atoms: C_6  and  C_7
REMARK                            x       y       z     vdW  Elec       q    Type
REMARK                         _______ _______ _______ _____ _____    ______ ____
ROOT
ATOM      1  C   UNL     1       5.296   5.983  17.750  0.00  0.00    +0.000 C 
ATOM      2  C   UNL     1       3.960   6.120  17.641  0.00  0.00    +0.000 C 
ENDROOT
BRANCH   2   3
ATOM      3  C   UNL     1       2.958   5.538  18.556  0.00  0.00    +0.000 A 
ATOM      4  C   UNL     1       2.613   6.257  19.712  0.00  0.00    +0.000 A 
ATOM      5  C   UNL     1       1.691   5.739  20.621  0.00  0.00    +0.000 A 
ATOM      6  C   UNL     1       1.099   4.497  20.382  0.00  0.00    +0.000 A 
ATOM      7  C   UNL     1       1.426   3.775  19.230  0.00  0.00    +0.000 A 
ATOM      8 CL   UNL     1       0.647   2.245  19.011  0.00  0.00    +0.000 Cl
ATOM      9  C   UNL     1       2.355   4.288  18.313  0.00  0.00    +0.000 A 
ATOM     10 CL   UNL     1       2.783   3.387  16.890  0.00  0.00    +0.000 Cl
ENDBRANCH   2   3
BRANCH   1  12
ATOM     11  O   UNL     1       6.896   7.667  17.156  0.00  0.00    +0.000 OA
ATOM     12  C   UNL     1       6.252   6.680  16.827  0.00  0.00    +0.000 C 
BRANCH  12  13
ATOM     13  O   UNL     1       6.386   6.124  15.605  0.00  0.00    +0.000 OA
ATOM     14  H   UNL     1       5.781   6.452  14.917  0.00  0.00    +0.000 HD
ENDBRANCH  12  13
ENDBRANCH   1  12
BRANCH   1  15
ATOM     15  S   UNL     1       6.053   5.076  19.031  0.00  0.00    +0.000 S 
ATOM     16  H   UNL     1       5.975   6.028  19.980  0.00  0.00    +0.000 HD
ENDBRANCH   1  15
TORSDOF 4
ENDMDL
MODEL 4
REMARK VINA RESULT:      -5.9      1.416      1.646
REMARK  Name = 
REMARK  4 active torsions:
REMARK  status: ('A' for Active; 'I' for Inactive)
REMARK    1  A    between atoms: C_2  and  O_3
REMARK    2  A    between atoms: C_2  and  C_4
REMARK    3  A    between atoms: C_4  and  S_5
REMARK    4  A    between atoms: C_6  and  C_7
REMARK                            x       y       z     vdW  Elec       q    Type
REMARK                         _______ _______ _______ _____ _____    ______ ____
ROOT
ATOM      1  C   UNL     1       5.779   5.199  17.694  0.00  0.00    +0.000 C 
ATOM      2  C   UNL     1       5.288   4.439  18.692  0.00  0.00    +0.000 C 
ENDROOT
BRANCH   2   3
ATOM      3  C   UNL     1       3.878   4.394  19.126  0.00  0.00    +0.000 A 
ATOM      4  C   UNL     1       3.402   5.423  19.954  0.00  0.00    +0.000 A 
ATOM      5  C   UNL     1       2.083   5.412  20.413  0.00  0.00    +0.000 A 
ATOM      6  C   UNL     1       1.226   4.374  20.043  0.00  0.00    +0.000 A 
ATOM      7  C   UNL     1       1.685   3.349  19.210  0.00  0.00    +0.000 A 
ATOM      8 CL   UNL     1       0.557   2.101  18.802  0.00  0.00    +0.000 Cl
ATOM      9  C   UNL     1       3.009   3.351  18.748  0.00  0.00    +0.000 A 
ATOM     10 CL   UNL     1       3.593   2.068  17.731  0.00  0.00    +0.000 Cl
ENDBRANCH   2   3
BRANCH   1  12
ATOM     11  O   UNL     1       8.027   4.369  17.772  0.00  0.00    +0.000 OA
ATOM     12  C   UNL     1       7.212   5.122  17.256  0.00  0.00    +0.000 C 
BRANCH  12  13
ATOM     13  O   UNL     1       7.544   5.920  16.220  0.00  0.00    +0.000 OA
ATOM     14  H   UNL     1       7.446   5.533  15.333  0.00  0.00    +0.000 HD
ENDBRANCH  12  13
ENDBRANCH   1  12
BRANCH   1  15
ATOM     15  S   UNL     1       4.785   6.269  16.742  0.00  0.00    +0.000 S 
ATOM     16  H   UNL     1       5.023   5.698  15.546  0.00  0.00    +0.000 HD
ENDBRANCH   1  15
TORSDOF 4
ENDMDL
MODEL 5
REMARK VINA RESULT:      -5.9      1.307      1.373
REMARK  Name = 
REMARK  4 active torsions:
REMARK  status: ('A' for Active; 'I' for Inactive)
REMARK    1  A    between atoms: C_2  and  O_3
REMARK    2  A    between atoms: C_2  and  C_4
REMARK    3  A    between atoms: C_4  and  S_5
REMARK    4  A    between atoms: C_6  and  C_7
REMARK                            x       y       z     vdW  Elec       q    Type
REMARK                         _______ _______ _______ _____ _____    ______ ____
ROOT
ATOM      1  C   UNL     1       5.861   5.128  17.493  0.00  0.00    +0.000 C 
ATOM      2  C   UNL     1       4.525   4.981  17.410  0.00  0.00    +0.000 C 
ENDROOT
BRANCH   2   3
ATOM      3  C   UNL     1       3.577   5.071  18.539  0.00  0.00    +0.000 A 
ATOM      4  C   UNL     1       3.043   6.329  18.863  0.00  0.00    +0.000 A 
ATOM      5  C   UNL     1       2.164   6.470  19.937  0.00  0.00    +0.000 A 
ATOM      6  C   UNL     1       1.805   5.355  20.696  0.00  0.00    +0.000 A 
ATOM      7  C   UNL     1       2.321   4.095  20.377  0.00  0.00    +0.000 A 
ATOM      8 CL   UNL     1       1.826   2.765  21.369  0.00  0.00    +0.000 Cl
ATOM      9  C   UNL     1       3.209   3.945  19.301  0.00  0.00    +0.000 A 
ATOM     10 CL   UNL     1       3.873   2.386  18.913  0.00  0.00    +0.000 Cl
ENDBRANCH   2   3
BRANCH   1  12
ATOM     11  O   UNL     1       6.467   5.689  15.242  0.00  0.00    +0.000 OA
ATOM     12  C   UNL     1       6.748   5.109  16.283  0.00  0.00    +0.000 C 
BRANCH  12  13
ATOM     13  O   UNL     1       7.907   4.432  16.425  0.00  0.00    +0.000 OA
ATOM     14  H   UNL     1       8.716   4.915  16.185  0.00  0.00    +0.000 HD
ENDBRANCH  12  13
ENDBRANCH   1  12
BRANCH   1  15
ATOM     15  S   UNL     1       6.686   5.458  18.993  0.00  0.00    +0.000 S 
ATOM     16  H   UNL     1       6.376   6.767  19.069  0.00  0.00    +0.000 HD
ENDBRANCH   1  15
TORSDOF 4
ENDMDL
MODEL 6
REMARK VINA RESULT:      -5.8      2.530      3.057
REMARK  Name = 
REMARK  4 active torsions:
REMARK  status: ('A' for Active; 'I' for Inactive)
REMARK    1  A    between atoms: C_2  and  O_3
REMARK    2  A    between atoms: C_2  and  C_4
REMARK    3  A    between atoms: C_4  and  S_5
REMARK    4  A    between atoms: C_6  and  C_7
REMARK                            x       y       z     vdW  Elec       q    Type
REMARK                         _______ _______ _______ _____ _____    ______ ____
ROOT
ATOM      1  C   UNL     1       6.110   4.484  16.052  0.00  0.00    +0.000 C 
ATOM      2  C   UNL     1       4.781   4.293  16.166  0.00  0.00    +0.000 C 
ENDROOT
BRANCH   2   3
ATOM      3  C   UNL     1       4.019   4.273  17.430  0.00  0.00    +0.000 A 
ATOM      4  C   UNL     1       3.733   3.030  18.017  0.00  0.00    +0.000 A 
ATOM      5  C   UNL     1       2.994   2.956  19.198  0.00  0.00    +0.000 A 
ATOM      6  C   UNL     1       2.537   4.125  19.808  0.00  0.00    +0.000 A 
ATOM      7  C   UNL     1       2.824   5.371  19.241  0.00  0.00    +0.000 A 
ATOM      8 CL   UNL     1       2.219   6.770  20.061  0.00  0.00    +0.000 Cl
ATOM      9  C   UNL     1       3.563   5.453  18.052  0.00  0.00    +0.000 A 
ATOM     10 CL   UNL     1       3.905   6.996  17.327  0.00  0.00    +0.000 Cl
ENDBRANCH   2   3
BRANCH   1  12
ATOM     11  O   UNL     1       6.436   3.947  13.739  0.00  0.00    +0.000 OA
ATOM     12  C   UNL     1       6.796   4.580  14.722  0.00  0.00    +0.000 C 
BRANCH  12  13
ATOM     13  O   UNL     1       7.831   5.444  14.665  0.00  0.00    +0.000 OA
ATOM     14  H   UNL     1       7.916   6.060  15.414  0.00  0.00    +0.000 HD
ENDBRANCH  12  13
ENDBRANCH   1  12
BRANCH   1  15
ATOM     15  S   UNL     1       7.149   4.746  17.427  0.00  0.00    +0.000 S 
ATOM     16  H   UNL     1       6.222   5.291  18.237  0.00  0.00    +0.000 HD
ENDBRANCH   1  15
TORSDOF 4
ENDMDL
MODEL 7
REMARK VINA RESULT:      -5.8      1.721      1.988
REMARK  Name = 
REMARK  4 active torsions:
REMARK  status: ('A' for Active; 'I' for Inactive)
REMARK    1  A    between atoms: C_2  and  O_3
REMARK    2  A    between atoms: C_2  and  C_4
REMARK    3  A    between atoms: C_4  and  S_5
REMARK    4  A    between atoms: C_6  and  C_7
REMARK                            x       y       z     vdW  Elec       q    Type
REMARK                         _______ _______ _______ _____ _____    ______ ____
ROOT
ATOM      1  C   UNL     1       5.521   4.363  17.137  0.00  0.00    +0.000 C 
ATOM      2  C   UNL     1       4.628   3.359  17.237  0.00  0.00    +0.000 C 
ENDROOT
BRANCH   2   3
ATOM      3  C   UNL     1       3.384   3.390  18.032  0.00  0.00    +0.000 A 
ATOM      4  C   UNL     1       2.225   3.914  17.438  0.00  0.00    +0.000 A 
ATOM      5  C   UNL     1       1.031   3.989  18.156  0.00  0.00    +0.000 A 
ATOM      6  C   UNL     1       0.982   3.534  19.475  0.00  0.00    +0.000 A 
ATOM      7  C   UNL     1       2.127   3.000  20.076  0.00  0.00    +0.000 A 
ATOM      8 CL   UNL     1       1.979   2.462  21.714  0.00  0.00    +0.000 Cl
ATOM      9  C   UNL     1       3.331   2.925  19.362  0.00  0.00    +0.000 A 
ATOM     10 CL   UNL     1       4.764   2.284  20.108  0.00  0.00    +0.000 Cl
ENDBRANCH   2   3
BRANCH   1  12
ATOM     11  O   UNL     1       7.863   4.455  16.634  0.00  0.00    +0.000 OA
ATOM     12  C   UNL     1       6.719   4.285  16.237  0.00  0.00    +0.000 C 
BRANCH  12  13
ATOM     13  O   UNL     1       6.455   3.979  14.949  0.00  0.00    +0.000 OA
ATOM     14  H   UNL     1       5.529   3.770  14.739  0.00  0.00    +0.000 HD
ENDBRANCH  12  13
ENDBRANCH   1  12
BRANCH   1  15
ATOM     15  S   UNL     1       5.325   5.889  17.956  0.00  0.00    +0.000 S 
ATOM     16  H   UNL     1       5.645   6.681  16.914  0.00  0.00    +0.000 HD
ENDBRANCH   1  15
TORSDOF 4
ENDMDL
MODEL 8
REMARK VINA RESULT:      -5.8      2.414      2.917
REMARK  Name = 
REMARK  4 active torsions:
REMARK  status: ('A' for Active; 'I' for Inactive)
REMARK    1  A    between atoms: C_2  and  O_3
REMARK    2  A    between atoms: C_2  and  C_4
REMARK    3  A    between atoms: C_4  and  S_5
REMARK    4  A    between atoms: C_6  and  C_7
REMARK                            x       y       z     vdW  Elec       q    Type
REMARK                         _______ _______ _______ _____ _____    ______ ____
ROOT
ATOM      1  C   UNL     1       5.938   5.510  17.549  0.00  0.00    +0.000 C 
ATOM      2  C   UNL     1       4.802   4.989  17.047  0.00  0.00    +0.000 C 
ENDROOT
BRANCH   2   3
ATOM      3  C   UNL     1       3.857   4.121  17.778  0.00  0.00    +0.000 A 
ATOM      4  C   UNL     1       3.923   2.735  17.565  0.00  0.00    +0.000 A 
ATOM      5  C   UNL     1       3.035   1.874  18.212  0.00  0.00    +0.000 A 
ATOM      6  C   UNL     1       2.074   2.391  19.082  0.00  0.00    +0.000 A 
ATOM      7  C   UNL     1       2.004   3.769  19.312  0.00  0.00    +0.000 A 
ATOM      8 CL   UNL     1       0.782   4.325  20.404  0.00  0.00    +0.000 Cl
ATOM      9  C   UNL     1       2.890   4.640  18.663  0.00  0.00    +0.000 A 
ATOM     10 CL   UNL     1       2.794   6.356  18.924  0.00  0.00    +0.000 Cl
ENDBRANCH   2   3
BRANCH   1  12
ATOM     11  O   UNL     1       6.925   7.639  17.058  0.00  0.00    +0.000 OA
ATOM     12  C   UNL     1       6.800   6.457  16.768  0.00  0.00    +0.000 C 
BRANCH  12  13
ATOM     13  O   UNL     1       7.467   5.910  15.730  0.00  0.00    +0.000 OA
ATOM     14  H   UNL     1       7.525   6.452  14.925  0.00  0.00    +0.000 HD
ENDBRANCH  12  13
ENDBRANCH   1  12
BRANCH   1  15
ATOM     15  S   UNL     1       6.467   5.227  19.186  0.00  0.00    +0.000 S 
ATOM     16  H   UNL     1       5.785   4.083  19.387  0.00  0.00    +0.000 HD
ENDBRANCH   1  15
TORSDOF 4
ENDMDL
MODEL 9
REMARK VINA RESULT:      -5.7      3.696      5.361
REMARK  Name = 
REMARK  4 active torsions:
REMARK  status: ('A' for Active; 'I' for Inactive)
REMARK    1  A    between atoms: C_2  and  O_3
REMARK    2  A    between atoms: C_2  and  C_4
REMARK    3  A    between atoms: C_4  and  S_5
REMARK    4  A    between atoms: C_6  and  C_7
REMARK                            x       y       z     vdW  Elec       q    Type
REMARK                         _______ _______ _______ _____ _____    ______ ____
ROOT
ATOM      1  C   UNL     1       3.377   3.791  20.209  0.00  0.00    +0.000 C 
ATOM      2  C   UNL     1       3.879   4.859  19.560  0.00  0.00    +0.000 C 
ENDROOT
BRANCH   2   3
ATOM      3  C   UNL     1       5.074   4.856  18.693  0.00  0.00    +0.000 A 
ATOM      4  C   UNL     1       6.280   5.348  19.216  0.00  0.00    +0.000 A 
ATOM      5  C   UNL     1       7.431   5.390  18.427  0.00  0.00    +0.000 A 
ATOM      6  C   UNL     1       7.388   4.936  17.108  0.00  0.00    +0.000 A 
ATOM      7  C   UNL     1       6.196   4.433  16.578  0.00  0.00    +0.000 A 
ATOM      8 CL   UNL     1       6.230   3.892  14.934  0.00  0.00    +0.000 Cl
ATOM      9  C   UNL     1       5.034   4.391  17.362  0.00  0.00    +0.000 A 
ATOM     10 CL   UNL     1       3.543   3.790  16.703  0.00  0.00    +0.000 Cl
ENDBRANCH   2   3
BRANCH   1  12
ATOM     11  O   UNL     1       1.076   4.359  20.570  0.00  0.00    +0.000 OA
ATOM     12  C   UNL     1       2.105   3.858  21.002  0.00  0.00    +0.000 C 
BRANCH  12  13
ATOM     13  O   UNL     1       2.157   3.294  22.227  0.00  0.00    +0.000 OA
ATOM     14  H   UNL     1       1.857   3.849  22.967  0.00  0.00    +0.000 HD
ENDBRANCH  12  13
ENDBRANCH   1  12
BRANCH   1  15
ATOM     15  S   UNL     1       4.088   2.202  20.109  0.00  0.00    +0.000 S 
ATOM     16  H   UNL     1       5.224   2.485  20.773  0.00  0.00    +0.000 HD
ENDBRANCH   1  15
TORSDOF 4
ENDMDL
