MODEL 1
REMARK VINA RESULT:      -6.9      0.000      0.000
REMARK  Name = 
REMARK  11 active torsions:
REMARK  status: ('A' for Active; 'I' for Inactive)
REMARK    1  A    between atoms: C_1  and  O_2
REMARK    2  A    between atoms: O_2  and  C_3
REMARK    3  A    between atoms: C_4  and  N_5
REMARK    4  A    between atoms: N_5  and  C_6
REMARK    5  A    between atoms: C_6  and  C_7
REMARK    6  A    between atoms: C_6  and  C_8
REMARK    7  A    between atoms: C_8  and  C_9
REMARK    8  A    between atoms: C_9  and  N_10
REMARK    9  A    between atoms: C_12  and  O_13
REMARK   10  A    between atoms: O_13  and  C_14
REMARK   11  A    between atoms: C_16  and  C_17
REMARK                            x       y       z     vdW  Elec       q    Type
REMARK                         _______ _______ _______ _____ _____    ______ ____
ROOT
ATOM      1  C   UNL     1       3.680   6.829  17.733  0.00  0.00    +0.000 A 
ATOM      2  C   UNL     1       4.823   6.854  16.778  0.00  0.00    +0.000 A 
ATOM      3  C   UNL     1       5.073   5.645  16.162  0.00  0.00    +0.000 A 
ATOM      4  C   UNL     1       4.452   4.463  16.632  0.00  0.00    +0.000 A 
ATOM      5  C   UNL     1       3.505   4.430  17.745  0.00  0.00    +0.000 A 
ATOM      6  C   UNL     1       2.832   3.355  18.444  0.00  0.00    +0.000 A 
ATOM      7  C   UNL     1       2.602   1.989  17.894  0.00  0.00    +0.000 C 
ATOM      8  C   UNL     1       2.132   3.551  19.659  0.00  0.00    +0.000 A 
ATOM      9  C   UNL     1       2.079   4.795  20.188  0.00  0.00    +0.000 A 
ATOM     10  N   UNL     1       2.585   5.828  19.516  0.00  0.00    +0.000 NA
ATOM     11  C   UNL     1       3.243   5.655  18.324  0.00  0.00    +0.000 A 
ENDROOT
BRANCH   1  13
ATOM     12  C   UNL     1       2.167   8.879  17.800  0.00  0.00    +0.000 C 
ATOM     13  O   UNL     1       2.985   7.846  18.356  0.00  0.00    +0.000 OA
ENDBRANCH   1  13
BRANCH   2  14
ATOM     14  N   UNL     1       6.100   7.629  16.854  0.00  0.00    +0.000 N 
ATOM     15  H   UNL     1       6.232   8.039  15.932  0.00  0.00    +0.000 HD
BRANCH  14  16
ATOM     16  C   UNL     1       7.493   7.151  17.213  0.00  0.00    +0.000 C 
ATOM     17  C   UNL     1       8.187   8.174  18.114  0.00  0.00    +0.000 C 
BRANCH  16  18
ATOM     18  C   UNL     1       7.560   5.779  18.050  0.00  0.00    +0.000 C 
BRANCH  18  19
ATOM     19  C   UNL     1       6.996   5.695  19.481  0.00  0.00    +0.000 C 
BRANCH  19  20
ATOM     20  N   UNL     1       8.060   5.374  20.462  0.00  0.00    +0.000 NA
ATOM     21  H   UNL     1       8.859   4.936  19.998  0.00  0.00    +0.000 HD
ATOM     22  H   UNL     1       7.721   4.670  21.122  0.00  0.00    +0.000 HD
ENDBRANCH  19  20
ENDBRANCH  18  19
ENDBRANCH  16  18
ENDBRANCH  14  16
ENDBRANCH   2  14
BRANCH   4  23
ATOM     23  O   UNL     1       5.161   3.360  16.222  0.00  0.00    +0.000 OA
ATOM     24  C   UNL     1       6.165   3.651  15.279  0.00  0.00    +0.000 C 
ENDBRANCH   4  23
TORSDOF 7
ENDMDL
MODEL 2
REMARK VINA RESULT:      -6.4      1.452      2.111
REMARK  Name = 
REMARK  11 active torsions:
REMARK  status: ('A' for Active; 'I' for Inactive)
REMARK    1  A    between atoms: C_1  and  O_2
REMARK    2  A    between atoms: O_2  and  C_3
REMARK    3  A    between atoms: C_4  and  N_5
REMARK    4  A    between atoms: N_5  and  C_6
REMARK    5  A    between atoms: C_6  and  C_7
REMARK    6  A    between atoms: C_6  and  C_8
REMARK    7  A    between atoms: C_8  and  C_9
REMARK    8  A    between atoms: C_9  and  N_10
REMARK    9  A    between atoms: C_12  and  O_13
REMARK   10  A    between atoms: O_13  and  C_14
REMARK   11  A    between atoms: C_16  and  C_17
REMARK                            x       y       z     vdW  Elec       q    Type
REMARK                         _______ _______ _______ _____ _____    ______ ____
ROOT
ATOM      1  C   UNL     1       3.271   6.137  17.929  0.00  0.00    +0.000 A 
ATOM      2  C   UNL     1       4.145   5.493  16.910  0.00  0.00    +0.000 A 
ATOM      3  C   UNL     1       3.799   4.192  16.607  0.00  0.00    +0.000 A 
ATOM      4  C   UNL     1       2.868   3.496  17.414  0.00  0.00    +0.000 A 
ATOM      5  C   UNL     1       2.196   4.083  18.572  0.00  0.00    +0.000 A 
ATOM      6  C   UNL     1       1.299   3.550  19.576  0.00  0.00    +0.000 A 
ATOM      7  C   UNL     1       0.470   2.322  19.416  0.00  0.00    +0.000 C 
ATOM      8  C   UNL     1       0.958   4.258  20.753  0.00  0.00    +0.000 A 
ATOM      9  C   UNL     1       1.480   5.491  20.946  0.00  0.00    +0.000 A 
ATOM     10  N   UNL     1       2.214   6.062  19.992  0.00  0.00    +0.000 NA
ATOM     11  C   UNL     1       2.531   5.395  18.836  0.00  0.00    +0.000 A 
ENDROOT
BRANCH   1  13
ATOM     12  C   UNL     1       2.468   8.544  17.691  0.00  0.00    +0.000 C 
ATOM     13  O   UNL     1       3.142   7.453  18.324  0.00  0.00    +0.000 OA
ENDBRANCH   1  13
BRANCH   2  14
ATOM     14  N   UNL     1       5.613   5.666  16.680  0.00  0.00    +0.000 N 
ATOM     15  H   UNL     1       5.698   6.205  15.821  0.00  0.00    +0.000 HD
BRANCH  14  16
ATOM     16  C   UNL     1       6.691   4.612  16.525  0.00  0.00    +0.000 C 
ATOM     17  C   UNL     1       7.448   4.821  15.211  0.00  0.00    +0.000 C 
BRANCH  16  18
ATOM     18  C   UNL     1       7.842   4.628  17.649  0.00  0.00    +0.000 C 
BRANCH  18  19
ATOM     19  C   UNL     1       7.737   5.549  18.879  0.00  0.00    +0.000 C 
BRANCH  19  20
ATOM     20  N   UNL     1       6.510   5.267  19.661  0.00  0.00    +0.000 NA
ATOM     21  H   UNL     1       5.741   5.866  19.355  0.00  0.00    +0.000 HD
ATOM     22  H   UNL     1       6.661   5.514  20.642  0.00  0.00    +0.000 HD
ENDBRANCH  19  20
ENDBRANCH  18  19
ENDBRANCH  16  18
ENDBRANCH  14  16
ENDBRANCH   2  14
BRANCH   4  23
ATOM     23  O   UNL     1       3.014   2.140  17.245  0.00  0.00    +0.000 OA
ATOM     24  C   UNL     1       3.816   1.530  18.229  0.00  0.00    +0.000 C 
ENDBRANCH   4  23
TORSDOF 7
ENDMDL
MODEL 3
REMARK VINA RESULT:      -6.3      1.839      5.692
REMARK  Name = 
REMARK  11 active torsions:
REMARK  status: ('A' for Active; 'I' for Inactive)
REMARK    1  A    between atoms: C_1  and  O_2
REMARK    2  A    between atoms: O_2  and  C_3
REMARK    3  A    between atoms: C_4  and  N_5
REMARK    4  A    between atoms: N_5  and  C_6
REMARK    5  A    between atoms: C_6  and  C_7
REMARK    6  A    between atoms: C_6  and  C_8
REMARK    7  A    between atoms: C_8  and  C_9
REMARK    8  A    between atoms: C_9  and  N_10
REMARK    9  A    between atoms: C_12  and  O_13
REMARK   10  A    between atoms: O_13  and  C_14
REMARK   11  A    between atoms: C_16  and  C_17
REMARK                            x       y       z     vdW  Elec       q    Type
REMARK                         _______ _______ _______ _____ _____    ______ ____
ROOT
ATOM      1  C   UNL     1       3.916   4.157  18.466  0.00  0.00    +0.000 A 
ATOM      2  C   UNL     1       2.586   4.828  18.485  0.00  0.00    +0.000 A 
ATOM      3  C   UNL     1       2.588   6.104  17.960  0.00  0.00    +0.000 A 
ATOM      4  C   UNL     1       3.811   6.765  17.696  0.00  0.00    +0.000 A 
ATOM      5  C   UNL     1       5.124   6.163  17.918  0.00  0.00    +0.000 A 
ATOM      6  C   UNL     1       6.478   6.667  17.811  0.00  0.00    +0.000 A 
ATOM      7  C   UNL     1       6.890   7.847  17.000  0.00  0.00    +0.000 C 
ATOM      8  C   UNL     1       7.600   5.962  18.310  0.00  0.00    +0.000 A 
ATOM      9  C   UNL     1       7.404   4.762  18.902  0.00  0.00    +0.000 A 
ATOM     10  N   UNL     1       6.191   4.213  18.914  0.00  0.00    +0.000 NA
ATOM     11  C   UNL     1       5.100   4.875  18.411  0.00  0.00    +0.000 A 
ENDROOT
BRANCH   1  13
ATOM     12  C   UNL     1       3.807   1.643  18.061  0.00  0.00    +0.000 C 
ATOM     13  O   UNL     1       4.282   2.843  18.678  0.00  0.00    +0.000 OA
ENDBRANCH   1  13
BRANCH   2  14
ATOM     14  N   UNL     1       1.492   4.726  19.501  0.00  0.00    +0.000 N 
ATOM     15  H   UNL     1       1.912   4.990  20.389  0.00  0.00    +0.000 HD
BRANCH  14  16
ATOM     16  C   UNL     1       0.637   3.532  19.874  0.00  0.00    +0.000 C 
ATOM     17  C   UNL     1       0.612   2.521  18.725  0.00  0.00    +0.000 C 
BRANCH  16  18
ATOM     18  C   UNL     1       1.151   2.680  21.138  0.00  0.00    +0.000 C 
BRANCH  18  19
ATOM     19  C   UNL     1       2.434   3.075  21.893  0.00  0.00    +0.000 C 
BRANCH  19  20
ATOM     20  N   UNL     1       3.573   2.207  21.512  0.00  0.00    +0.000 NA
ATOM     21  H   UNL     1       4.393   2.770  21.278  0.00  0.00    +0.000 HD
ATOM     22  H   UNL     1       3.349   1.699  20.653  0.00  0.00    +0.000 HD
ENDBRANCH  19  20
ENDBRANCH  18  19
ENDBRANCH  16  18
ENDBRANCH  14  16
ENDBRANCH   2  14
BRANCH   4  23
ATOM     23  O   UNL     1       3.612   8.123  17.636  0.00  0.00    +0.000 OA
ATOM     24  C   UNL     1       2.273   8.509  17.833  0.00  0.00    +0.000 C 
ENDBRANCH   4  23
TORSDOF 7
ENDMDL
MODEL 4
REMARK VINA RESULT:      -6.2      1.493      2.248
REMARK  Name = 
REMARK  11 active torsions:
REMARK  status: ('A' for Active; 'I' for Inactive)
REMARK    1  A    between atoms: C_1  and  O_2
REMARK    2  A    between atoms: O_2  and  C_3
REMARK    3  A    between atoms: C_4  and  N_5
REMARK    4  A    between atoms: N_5  and  C_6
REMARK    5  A    between atoms: C_6  and  C_7
REMARK    6  A    between atoms: C_6  and  C_8
REMARK    7  A    between atoms: C_8  and  C_9
REMARK    8  A    between atoms: C_9  and  N_10
REMARK    9  A    between atoms: C_12  and  O_13
REMARK   10  A    between atoms: O_13  and  C_14
REMARK   11  A    between atoms: C_16  and  C_17
REMARK                            x       y       z     vdW  Elec       q    Type
REMARK                         _______ _______ _______ _____ _____    ______ ____
ROOT
ATOM      1  C   UNL     1       3.227   6.681  18.088  0.00  0.00    +0.000 A 
ATOM      2  C   UNL     1       4.277   6.216  17.139  0.00  0.00    +0.000 A 
ATOM      3  C   UNL     1       4.139   4.902  16.742  0.00  0.00    +0.000 A 
ATOM      4  C   UNL     1       3.233   4.046  17.412  0.00  0.00    +0.000 A 
ATOM      5  C   UNL     1       2.377   4.473  18.517  0.00  0.00    +0.000 A 
ATOM      6  C   UNL     1       1.464   3.770  19.394  0.00  0.00    +0.000 A 
ATOM      7  C   UNL     1       0.826   2.458  19.091  0.00  0.00    +0.000 C 
ATOM      8  C   UNL     1       0.915   4.358  20.559  0.00  0.00    +0.000 A 
ATOM      9  C   UNL     1       1.247   5.633  20.864  0.00  0.00    +0.000 A 
ATOM     10  N   UNL     1       1.989   6.350  20.021  0.00  0.00    +0.000 NA
ATOM     11  C   UNL     1       2.506   5.799  18.875  0.00  0.00    +0.000 A 
ENDROOT
BRANCH   1  13
ATOM     12  C   UNL     1       2.248   9.021  17.833  0.00  0.00    +0.000 C 
ATOM     13  O   UNL     1       2.885   7.945  18.527  0.00  0.00    +0.000 OA
ENDBRANCH   1  13
BRANCH   2  14
ATOM     14  N   UNL     1       5.724   6.590  17.075  0.00  0.00    +0.000 N 
ATOM     15  H   UNL     1       5.988   6.514  16.095  0.00  0.00    +0.000 HD
BRANCH  14  16
ATOM     16  C   UNL     1       6.907   5.969  17.790  0.00  0.00    +0.000 C 
ATOM     17  C   UNL     1       6.503   5.538  19.202  0.00  0.00    +0.000 C 
BRANCH  16  18
ATOM     18  C   UNL     1       7.496   4.629  17.122  0.00  0.00    +0.000 C 
BRANCH  18  19
ATOM     19  C   UNL     1       7.195   4.276  15.654  0.00  0.00    +0.000 C 
BRANCH  19  20
ATOM     20  N   UNL     1       7.535   5.400  14.748  0.00  0.00    +0.000 NA
ATOM     21  H   UNL     1       7.179   5.225  13.807  0.00  0.00    +0.000 HD
ATOM     22  H   UNL     1       8.551   5.460  14.639  0.00  0.00    +0.000 HD
ENDBRANCH  19  20
ENDBRANCH  18  19
ENDBRANCH  16  18
ENDBRANCH  14  16
ENDBRANCH   2  14
BRANCH   4  23
ATOM     23  O   UNL     1       3.575   2.733  17.197  0.00  0.00    +0.000 OA
ATOM     24  C   UNL     1       4.285   2.150  18.264  0.00  0.00    +0.000 C 
ENDBRANCH   4  23
TORSDOF 7
ENDMDL
MODEL 5
REMARK VINA RESULT:      -6.1      2.268      4.518
REMARK  Name = 
REMARK  11 active torsions:
REMARK  status: ('A' for Active; 'I' for Inactive)
REMARK    1  A    between atoms: C_1  and  O_2
REMARK    2  A    between atoms: O_2  and  C_3
REMARK    3  A    between atoms: C_4  and  N_5
REMARK    4  A    between atoms: N_5  and  C_6
REMARK    5  A    between atoms: C_6  and  C_7
REMARK    6  A    between atoms: C_6  and  C_8
REMARK    7  A    between atoms: C_8  and  C_9
REMARK    8  A    between atoms: C_9  and  N_10
REMARK    9  A    between atoms: C_12  and  O_13
REMARK   10  A    between atoms: O_13  and  C_14
REMARK   11  A    between atoms: C_16  and  C_17
REMARK                            x       y       z     vdW  Elec       q    Type
REMARK                         _______ _______ _______ _____ _____    ______ ____
ROOT
ATOM      1  C   UNL     1       5.774   5.081  18.284  0.00  0.00    +0.000 A 
ATOM      2  C   UNL     1       5.587   6.063  17.180  0.00  0.00    +0.000 A 
ATOM      3  C   UNL     1       4.410   6.780  17.253  0.00  0.00    +0.000 A 
ATOM      4  C   UNL     1       3.391   6.387  18.154  0.00  0.00    +0.000 A 
ATOM      5  C   UNL     1       3.508   5.254  19.069  0.00  0.00    +0.000 A 
ATOM      6  C   UNL     1       2.586   4.624  19.991  0.00  0.00    +0.000 A 
ATOM      7  C   UNL     1       1.375   5.273  20.568  0.00  0.00    +0.000 C 
ATOM      8  C   UNL     1       2.851   3.377  20.608  0.00  0.00    +0.000 A 
ATOM      9  C   UNL     1       4.018   2.751  20.336  0.00  0.00    +0.000 A 
ATOM     10  N   UNL     1       4.940   3.353  19.587  0.00  0.00    +0.000 NA
ATOM     11  C   UNL     1       4.706   4.572  19.004  0.00  0.00    +0.000 A 
ENDROOT
BRANCH   1  13
ATOM     12  C   UNL     1       8.257   4.506  18.335  0.00  0.00    +0.000 C 
ATOM     13  O   UNL     1       6.879   4.360  18.689  0.00  0.00    +0.000 OA
ENDBRANCH   1  13
BRANCH   2  14
ATOM     14  N   UNL     1       6.001   5.962  15.745  0.00  0.00    +0.000 N 
ATOM     15  H   UNL     1       5.168   6.174  15.201  0.00  0.00    +0.000 HD
BRANCH  14  16
ATOM     16  C   UNL     1       6.601   4.787  15.001  0.00  0.00    +0.000 C 
ATOM     17  C   UNL     1       5.938   3.483  15.451  0.00  0.00    +0.000 C 
BRANCH  16  18
ATOM     18  C   UNL     1       6.397   4.801  13.404  0.00  0.00    +0.000 C 
BRANCH  18  19
ATOM     19  C   UNL     1       5.723   3.620  12.680  0.00  0.00    +0.000 C 
BRANCH  19  20
ATOM     20  N   UNL     1       6.718   2.792  11.958  0.00  0.00    +0.000 NA
ATOM     21  H   UNL     1       7.290   3.371  11.340  0.00  0.00    +0.000 HD
ATOM     22  H   UNL     1       6.237   2.139  11.335  0.00  0.00    +0.000 HD
ENDBRANCH  19  20
ENDBRANCH  18  19
ENDBRANCH  16  18
ENDBRANCH  14  16
ENDBRANCH   2  14
BRANCH   4  23
ATOM     23  O   UNL     1       2.182   6.904  17.755  0.00  0.00    +0.000 OA
ATOM     24  C   UNL     1       2.112   8.308  17.833  0.00  0.00    +0.000 C 
ENDBRANCH   4  23
TORSDOF 7
ENDMDL
MODEL 6
REMARK VINA RESULT:      -6.1      1.396      1.904
REMARK  Name = 
REMARK  11 active torsions:
REMARK  status: ('A' for Active; 'I' for Inactive)
REMARK    1  A    between atoms: C_1  and  O_2
REMARK    2  A    between atoms: O_2  and  C_3
REMARK    3  A    between atoms: C_4  and  N_5
REMARK    4  A    between atoms: N_5  and  C_6
REMARK    5  A    between atoms: C_6  and  C_7
REMARK    6  A    between atoms: C_6  and  C_8
REMARK    7  A    between atoms: C_8  and  C_9
REMARK    8  A    between atoms: C_9  and  N_10
REMARK    9  A    between atoms: C_12  and  O_13
REMARK   10  A    between atoms: O_13  and  C_14
REMARK   11  A    between atoms: C_16  and  C_17
REMARK                            x       y       z     vdW  Elec       q    Type
REMARK                         _______ _______ _______ _____ _____    ______ ____
ROOT
ATOM      1  C   UNL     1       3.883   5.847  17.775  0.00  0.00    +0.000 A 
ATOM      2  C   UNL     1       4.737   4.990  16.907  0.00  0.00    +0.000 A 
ATOM      3  C   UNL     1       4.242   3.717  16.705  0.00  0.00    +0.000 A 
ATOM      4  C   UNL     1       3.167   3.238  17.491  0.00  0.00    +0.000 A 
ATOM      5  C   UNL     1       2.495   4.029  18.519  0.00  0.00    +0.000 A 
ATOM      6  C   UNL     1       1.460   3.728  19.487  0.00  0.00    +0.000 A 
ATOM      7  C   UNL     1       0.487   2.604  19.376  0.00  0.00    +0.000 C 
ATOM      8  C   UNL     1       1.129   4.599  20.552  0.00  0.00    +0.000 A 
ATOM      9  C   UNL     1       1.797   5.769  20.668  0.00  0.00    +0.000 A 
ATOM     10  N   UNL     1       2.672   6.135  19.732  0.00  0.00    +0.000 NA
ATOM     11  C   UNL     1       2.982   5.310  18.681  0.00  0.00    +0.000 A 
ENDROOT
BRANCH   1  13
ATOM     12  C   UNL     1       2.993   8.230  17.620  0.00  0.00    +0.000 C 
ATOM     13  O   UNL     1       3.903   7.205  18.024  0.00  0.00    +0.000 OA
ENDBRANCH   1  13
BRANCH   2  14
ATOM     14  N   UNL     1       6.228   4.950  16.794  0.00  0.00    +0.000 N 
ATOM     15  H   UNL     1       6.537   4.225  17.438  0.00  0.00    +0.000 HD
BRANCH  14  16
ATOM     16  C   UNL     1       7.238   6.056  17.023  0.00  0.00    +0.000 C 
ATOM     17  C   UNL     1       6.685   7.389  16.513  0.00  0.00    +0.000 C 
BRANCH  16  18
ATOM     18  C   UNL     1       7.609   6.347  18.562  0.00  0.00    +0.000 C 
BRANCH  18  19
ATOM     19  C   UNL     1       7.191   5.371  19.677  0.00  0.00    +0.000 C 
BRANCH  19  20
ATOM     20  N   UNL     1       8.230   5.277  20.730  0.00  0.00    +0.000 NA
ATOM     21  H   UNL     1       7.824   4.955  21.610  0.00  0.00    +0.000 HD
ATOM     22  H   UNL     1       8.599   6.209  20.936  0.00  0.00    +0.000 HD
ENDBRANCH  19  20
ENDBRANCH  18  19
ENDBRANCH  16  18
ENDBRANCH  14  16
ENDBRANCH   2  14
BRANCH   4  23
ATOM     23  O   UNL     1       3.142   1.864  17.471  0.00  0.00    +0.000 OA
ATOM     24  C   UNL     1       3.884   1.269  18.508  0.00  0.00    +0.000 C 
ENDBRANCH   4  23
TORSDOF 7
ENDMDL
MODEL 7
REMARK VINA RESULT:      -6.0      1.208      1.892
REMARK  Name = 
REMARK  11 active torsions:
REMARK  status: ('A' for Active; 'I' for Inactive)
REMARK    1  A    between atoms: C_1  and  O_2
REMARK    2  A    between atoms: O_2  and  C_3
REMARK    3  A    between atoms: C_4  and  N_5
REMARK    4  A    between atoms: N_5  and  C_6
REMARK    5  A    between atoms: C_6  and  C_7
REMARK    6  A    between atoms: C_6  and  C_8
REMARK    7  A    between atoms: C_8  and  C_9
REMARK    8  A    between atoms: C_9  and  N_10
REMARK    9  A    between atoms: C_12  and  O_13
REMARK   10  A    between atoms: O_13  and  C_14
REMARK   11  A    between atoms: C_16  and  C_17
REMARK                            x       y       z     vdW  Elec       q    Type
REMARK                         _______ _______ _______ _____ _____    ______ ____
ROOT
ATOM      1  C   UNL     1       3.768   6.788  17.693  0.00  0.00    +0.000 A 
ATOM      2  C   UNL     1       4.887   6.831  16.711  0.00  0.00    +0.000 A 
ATOM      3  C   UNL     1       5.148   5.624  16.097  0.00  0.00    +0.000 A 
ATOM      4  C   UNL     1       4.564   4.432  16.589  0.00  0.00    +0.000 A 
ATOM      5  C   UNL     1       3.645   4.387  17.724  0.00  0.00    +0.000 A 
ATOM      6  C   UNL     1       3.011   3.303  18.446  0.00  0.00    +0.000 A 
ATOM      7  C   UNL     1       2.798   1.929  17.910  0.00  0.00    +0.000 C 
ATOM      8  C   UNL     1       2.336   3.492  19.676  0.00  0.00    +0.000 A 
ATOM      9  C   UNL     1       2.269   4.738  20.197  0.00  0.00    +0.000 A 
ATOM     10  N   UNL     1       2.737   5.776  19.507  0.00  0.00    +0.000 NA
ATOM     11  C   UNL     1       3.370   5.609  18.302  0.00  0.00    +0.000 A 
ENDROOT
BRANCH   1  13
ATOM     12  C   UNL     1       2.322   8.886  17.777  0.00  0.00    +0.000 C 
ATOM     13  O   UNL     1       3.066   7.795  18.326  0.00  0.00    +0.000 OA
ENDBRANCH   1  13
BRANCH   2  14
ATOM     14  N   UNL     1       6.149   7.634  16.752  0.00  0.00    +0.000 N 
ATOM     15  H   UNL     1       6.768   7.214  16.062  0.00  0.00    +0.000 HD
BRANCH  14  16
ATOM     16  C   UNL     1       7.078   7.903  17.919  0.00  0.00    +0.000 C 
ATOM     17  C   UNL     1       7.797   6.616  18.328  0.00  0.00    +0.000 C 
BRANCH  16  18
ATOM     18  C   UNL     1       8.269   8.946  17.631  0.00  0.00    +0.000 C 
BRANCH  18  19
ATOM     19  C   UNL     1       8.874   9.792  18.767  0.00  0.00    +0.000 C 
BRANCH  19  20
ATOM     20  N   UNL     1       9.102  11.191  18.334  0.00  0.00    +0.000 NA
ATOM     21  H   UNL     1       9.845  11.236  17.634  0.00  0.00    +0.000 HD
ATOM     22  H   UNL     1       9.449  11.744  19.122  0.00  0.00    +0.000 HD
ENDBRANCH  19  20
ENDBRANCH  18  19
ENDBRANCH  16  18
ENDBRANCH  14  16
ENDBRANCH   2  14
BRANCH   4  23
ATOM     23  O   UNL     1       5.286   3.342  16.169  0.00  0.00    +0.000 OA
ATOM     24  C   UNL     1       6.223   3.637  15.161  0.00  0.00    +0.000 C 
ENDBRANCH   4  23
TORSDOF 7
ENDMDL
MODEL 8
REMARK VINA RESULT:      -6.0      2.223      4.959
REMARK  Name = 
REMARK  11 active torsions:
REMARK  status: ('A' for Active; 'I' for Inactive)
REMARK    1  A    between atoms: C_1  and  O_2
REMARK    2  A    between atoms: O_2  and  C_3
REMARK    3  A    between atoms: C_4  and  N_5
REMARK    4  A    between atoms: N_5  and  C_6
REMARK    5  A    between atoms: C_6  and  C_7
REMARK    6  A    between atoms: C_6  and  C_8
REMARK    7  A    between atoms: C_8  and  C_9
REMARK    8  A    between atoms: C_9  and  N_10
REMARK    9  A    between atoms: C_12  and  O_13
REMARK   10  A    between atoms: O_13  and  C_14
REMARK   11  A    between atoms: C_16  and  C_17
REMARK                            x       y       z     vdW  Elec       q    Type
REMARK                         _______ _______ _______ _____ _____    ______ ____
ROOT
ATOM      1  C   UNL     1       3.428   6.709  18.370  0.00  0.00    +0.000 A 
ATOM      2  C   UNL     1       2.940   5.892  19.516  0.00  0.00    +0.000 A 
ATOM      3  C   UNL     1       3.853   4.968  19.982  0.00  0.00    +0.000 A 
ATOM      4  C   UNL     1       5.019   4.678  19.235  0.00  0.00    +0.000 A 
ATOM      5  C   UNL     1       5.358   5.331  17.971  0.00  0.00    +0.000 A 
ATOM      6  C   UNL     1       6.422   5.137  17.008  0.00  0.00    +0.000 A 
ATOM      7  C   UNL     1       7.729   4.482  17.297  0.00  0.00    +0.000 C 
ATOM      8  C   UNL     1       6.414   5.737  15.726  0.00  0.00    +0.000 A 
ATOM      9  C   UNL     1       5.375   6.534  15.387  0.00  0.00    +0.000 A 
ATOM     10  N   UNL     1       4.439   6.830  16.286  0.00  0.00    +0.000 NA
ATOM     11  C   UNL     1       4.449   6.276  17.541  0.00  0.00    +0.000 A 
ENDROOT
BRANCH   1  13
ATOM     12  C   UNL     1       1.824   8.680  18.167  0.00  0.00    +0.000 C 
ATOM     13  O   UNL     1       2.928   7.856  17.785  0.00  0.00    +0.000 OA
ENDBRANCH   1  13
BRANCH   2  14
ATOM     14  N   UNL     1       1.559   5.387  19.795  0.00  0.00    +0.000 N 
ATOM     15  H   UNL     1       1.504   5.274  20.805  0.00  0.00    +0.000 HD
BRANCH  14  16
ATOM     16  C   UNL     1       0.869   4.141  19.277  0.00  0.00    +0.000 C 
ATOM     17  C   UNL     1       1.414   3.773  17.895  0.00  0.00    +0.000 C 
BRANCH  16  18
ATOM     18  C   UNL     1       1.091   2.811  20.155  0.00  0.00    +0.000 C 
BRANCH  18  19
ATOM     19  C   UNL     1       1.245   2.888  21.686  0.00  0.00    +0.000 C 
BRANCH  19  20
ATOM     20  N   UNL     1       2.599   2.462  22.113  0.00  0.00    +0.000 NA
ATOM     21  H   UNL     1       2.979   3.110  22.805  0.00  0.00    +0.000 HD
ATOM     22  H   UNL     1       3.244   2.514  21.321  0.00  0.00    +0.000 HD
ENDBRANCH  19  20
ENDBRANCH  18  19
ENDBRANCH  16  18
ENDBRANCH  14  16
ENDBRANCH   2  14
BRANCH   4  23
ATOM     23  O   UNL     1       5.526   3.456  19.603  0.00  0.00    +0.000 OA
ATOM     24  C   UNL     1       4.619   2.392  19.435  0.00  0.00    +0.000 C 
ENDBRANCH   4  23
TORSDOF 7
ENDMDL
MODEL 9
REMARK VINA RESULT:      -5.9      1.735      2.696
REMARK  Name = 
REMARK  11 active torsions:
REMARK  status: ('A' for Active; 'I' for Inactive)
REMARK    1  A    between atoms: C_1  and  O_2
REMARK    2  A    between atoms: O_2  and  C_3
REMARK    3  A    between atoms: C_4  and  N_5
REMARK    4  A    between atoms: N_5  and  C_6
REMARK    5  A    between atoms: C_6  and  C_7
REMARK    6  A    between atoms: C_6  and  C_8
REMARK    7  A    between atoms: C_8  and  C_9
REMARK    8  A    between atoms: C_9  and  N_10
REMARK    9  A    between atoms: C_12  and  O_13
REMARK   10  A    between atoms: O_13  and  C_14
REMARK   11  A    between atoms: C_16  and  C_17
REMARK                            x       y       z     vdW  Elec       q    Type
REMARK                         _______ _______ _______ _____ _____    ______ ____
ROOT
ATOM      1  C   UNL     1       4.020   5.312  17.692  0.00  0.00    +0.000 A 
ATOM      2  C   UNL     1       4.758   4.158  17.107  0.00  0.00    +0.000 A 
ATOM      3  C   UNL     1       4.128   2.941  17.272  0.00  0.00    +0.000 A 
ATOM      4  C   UNL     1       3.028   2.821  18.155  0.00  0.00    +0.000 A 
ATOM      5  C   UNL     1       2.469   3.938  18.913  0.00  0.00    +0.000 A 
ATOM      6  C   UNL     1       1.433   4.035  19.921  0.00  0.00    +0.000 A 
ATOM      7  C   UNL     1       0.346   3.037  20.127  0.00  0.00    +0.000 C 
ATOM      8  C   UNL     1       1.221   5.202  20.693  0.00  0.00    +0.000 A 
ATOM      9  C   UNL     1       2.011   6.278  20.477  0.00  0.00    +0.000 A 
ATOM     10  N   UNL     1       2.894   6.269  19.480  0.00  0.00    +0.000 NA
ATOM     11  C   UNL     1       3.091   5.152  18.708  0.00  0.00    +0.000 A 
ENDROOT
BRANCH   1  13
ATOM     12  C   UNL     1       4.475   7.448  16.378  0.00  0.00    +0.000 C 
ATOM     13  O   UNL     1       4.188   6.675  17.546  0.00  0.00    +0.000 OA
ENDBRANCH   1  13
BRANCH   2  14
ATOM     14  N   UNL     1       6.233   3.928  17.018  0.00  0.00    +0.000 N 
ATOM     15  H   UNL     1       6.565   3.874  17.979  0.00  0.00    +0.000 HD
BRANCH  14  16
ATOM     16  C   UNL     1       7.296   4.770  16.342  0.00  0.00    +0.000 C 
ATOM     17  C   UNL     1       6.931   5.002  14.874  0.00  0.00    +0.000 C 
BRANCH  16  18
ATOM     18  C   UNL     1       7.490   6.252  16.939  0.00  0.00    +0.000 C 
BRANCH  18  19
ATOM     19  C   UNL     1       7.724   6.476  18.444  0.00  0.00    +0.000 C 
BRANCH  19  20
ATOM     20  N   UNL     1       7.767   5.191  19.181  0.00  0.00    +0.000 NA
ATOM     21  H   UNL     1       8.608   5.134  19.758  0.00  0.00    +0.000 HD
ATOM     22  H   UNL     1       7.849   4.415  18.519  0.00  0.00    +0.000 HD
ENDBRANCH  19  20
ENDBRANCH  18  19
ENDBRANCH  16  18
ENDBRANCH  14  16
ENDBRANCH   2  14
BRANCH   4  23
ATOM     23  O   UNL     1       2.859   1.509  18.525  0.00  0.00    +0.000 OA
ATOM     24  C   UNL     1       4.049   0.879  18.937  0.00  0.00    +0.000 C 
ENDBRANCH   4  23
TORSDOF 7
ENDMDL
