MODEL 1
REMARK VINA RESULT:      -7.5      0.000      0.000
REMARK  Name = 
REMARK  9 active torsions:
REMARK  status: ('A' for Active; 'I' for Inactive)
REMARK    1  A    between atoms: C_1  and  C_2
REMARK    2  A    between atoms: C_2  and  C_3
REMARK    3  A    between atoms: N_5  and  C_6
REMARK    4  A    between atoms: C_6  and  C_7
REMARK    5  A    between atoms: C_7  and  C_8
REMARK    6  A    between atoms: C_8  and  C_9
REMARK    7  A    between atoms: N_14  and  C_15
REMARK    8  A    between atoms: C_18  and  O_19
REMARK    9  A    between atoms: O_19  and  C_20
REMARK                            x       y       z     vdW  Elec       q    Type
REMARK                         _______ _______ _______ _____ _____    ______ ____
ROOT
ATOM      1  C   UNL     1       2.056   5.901  19.600  0.00  0.00    +0.000 C 
ENDROOT
BRANCH   1   2
ATOM      2  C   UNL     1       3.348   5.095  19.763  0.00  0.00    +0.000 C 
BRANCH   2   5
ATOM      3  C   UNL     1       6.035   5.972  17.508  0.00  0.00    +0.000 A 
ATOM      4  N   UNL     1       5.237   5.957  18.532  0.00  0.00    +0.000 NA
ATOM      5  N   UNL     1       4.153   5.083  18.539  0.00  0.00    +0.000 N 
ATOM      6  C   UNL     1       3.846   4.190  17.500  0.00  0.00    +0.000 A 
ATOM      7  O   UNL     1       2.885   3.425  17.527  0.00  0.00    +0.000 OA
ATOM      8  C   UNL     1       4.767   4.243  16.385  0.00  0.00    +0.000 A 
ATOM      9  C   UNL     1       4.812   3.483  15.226  0.00  0.00    +0.000 A 
ATOM     10  C   UNL     1       5.910   4.013  14.532  0.00  0.00    +0.000 A 
ATOM     11  O   UNL     1       6.544   3.794  13.355  0.00  0.00    +0.000 OA
ATOM     12  C   UNL     1       7.540   4.727  13.323  0.00  0.00    +0.000 A 
ATOM     13  C   UNL     1       7.561   5.527  14.440  0.00  0.00    +0.000 A 
ATOM     14  C   UNL     1       6.495   5.019  15.220  0.00  0.00    +0.000 A 
ATOM     15  N   UNL     1       5.812   5.149  16.411  0.00  0.00    +0.000 N 
BRANCH   3  17
ATOM     16  C   UNL     1       8.089   6.811  18.712  0.00  0.00    +0.000 C 
ATOM     17  C   UNL     1       7.263   6.843  17.436  0.00  0.00    +0.000 C 
ENDBRANCH   3  17
ENDBRANCH   2   5
ENDBRANCH   1   2
BRANCH   1  18
ATOM     18  C   UNL     1       1.919   7.037  20.625  0.00  0.00    +0.000 C 
BRANCH  18  19
ATOM     19  C   UNL     1       1.582   8.382  19.997  0.00  0.00    +0.000 C 
ATOM     20  O   UNL     1       1.758   8.585  18.796  0.00  0.00    +0.000 OA
ATOM     21  N   UNL     1       1.036   9.352  20.819  0.00  0.00    +0.000 N 
ATOM     22  C   UNL     1       0.625  10.633  20.227  0.00  0.00    +0.000 C 
ATOM     23  C   UNL     1      -0.806  11.012  20.651  0.00  0.00    +0.000 C 
ATOM     24  N   UNL     1      -0.895  10.998  22.120  0.00  0.00    +0.000 N 
ATOM     25  C   UNL     1      -0.505   9.726  22.754  0.00  0.00    +0.000 C 
ATOM     26  C   UNL     1       0.905   9.300  22.285  0.00  0.00    +0.000 C 
BRANCH  24  27
ATOM     27  C   UNL     1      -1.499  12.023  22.819  0.00  0.00    +0.000 A 
ATOM     28  C   UNL     1      -2.789  11.905  23.354  0.00  0.00    +0.000 A 
ATOM     29  C   UNL     1      -3.427  12.979  23.987  0.00  0.00    +0.000 A 
ATOM     30  C   UNL     1      -2.781  14.205  24.122  0.00  0.00    +0.000 A 
ATOM     31  C   UNL     1      -1.498  14.348  23.608  0.00  0.00    +0.000 A 
ATOM     32  C   UNL     1      -0.869  13.267  22.973  0.00  0.00    +0.000 A 
BRANCH  30  33
ATOM     33  O   UNL     1      -3.518  15.193  24.712  0.00  0.00    +0.000 OA
ATOM     34  C   UNL     1      -2.777  16.301  25.211  0.00  0.00    +0.000 C 
ENDBRANCH  30  33
ENDBRANCH  24  27
ENDBRANCH  18  19
ENDBRANCH   1  18
TORSDOF 7
ENDMDL
MODEL 2
REMARK VINA RESULT:      -7.4      1.180      1.316
REMARK  Name = 
REMARK  9 active torsions:
REMARK  status: ('A' for Active; 'I' for Inactive)
REMARK    1  A    between atoms: C_1  and  C_2
REMARK    2  A    between atoms: C_2  and  C_3
REMARK    3  A    between atoms: N_5  and  C_6
REMARK    4  A    between atoms: C_6  and  C_7
REMARK    5  A    between atoms: C_7  and  C_8
REMARK    6  A    between atoms: C_8  and  C_9
REMARK    7  A    between atoms: N_14  and  C_15
REMARK    8  A    between atoms: C_18  and  O_19
REMARK    9  A    between atoms: O_19  and  C_20
REMARK                            x       y       z     vdW  Elec       q    Type
REMARK                         _______ _______ _______ _____ _____    ______ ____
ROOT
ATOM      1  C   UNL     1       1.796   4.923  20.338  0.00  0.00    +0.000 C 
ENDROOT
BRANCH   1   2
ATOM      2  C   UNL     1       2.997   3.974  20.275  0.00  0.00    +0.000 C 
BRANCH   2   5
ATOM      3  C   UNL     1       5.716   5.317  18.307  0.00  0.00    +0.000 A 
ATOM      4  N   UNL     1       4.894   5.091  19.286  0.00  0.00    +0.000 NA
ATOM      5  N   UNL     1       3.831   4.212  19.095  0.00  0.00    +0.000 N 
ATOM      6  C   UNL     1       3.571   3.529  17.896  0.00  0.00    +0.000 A 
ATOM      7  O   UNL     1       2.629   2.755  17.749  0.00  0.00    +0.000 OA
ATOM      8  C   UNL     1       4.518   3.812  16.838  0.00  0.00    +0.000 A 
ATOM      9  C   UNL     1       4.609   3.289  15.557  0.00  0.00    +0.000 A 
ATOM     10  C   UNL     1       5.711   3.963  15.009  0.00  0.00    +0.000 A 
ATOM     11  O   UNL     1       6.378   3.986  13.830  0.00  0.00    +0.000 OA
ATOM     12  C   UNL     1       7.352   4.926  14.006  0.00  0.00    +0.000 A 
ATOM     13  C   UNL     1       7.326   5.497  15.255  0.00  0.00    +0.000 A 
ATOM     14  C   UNL     1       6.255   4.830  15.893  0.00  0.00    +0.000 A 
ATOM     15  N   UNL     1       5.540   4.716  17.067  0.00  0.00    +0.000 N 
BRANCH   3  17
ATOM     16  C   UNL     1       7.948   5.679  19.428  0.00  0.00    +0.000 C 
ATOM     17  C   UNL     1       6.925   6.209  18.438  0.00  0.00    +0.000 C 
ENDBRANCH   3  17
ENDBRANCH   2   5
ENDBRANCH   1   2
BRANCH   1  18
ATOM     18  C   UNL     1       2.135   6.288  20.955  0.00  0.00    +0.000 C 
BRANCH  18  19
ATOM     19  C   UNL     1       1.923   7.454  20.000  0.00  0.00    +0.000 C 
ATOM     20  O   UNL     1       2.221   7.363  18.810  0.00  0.00    +0.000 OA
ATOM     21  N   UNL     1       1.349   8.604  20.513  0.00  0.00    +0.000 N 
ATOM     22  C   UNL     1       1.056   9.717  19.600  0.00  0.00    +0.000 C 
ATOM     23  C   UNL     1      -0.388  10.220  19.775  0.00  0.00    +0.000 C 
ATOM     24  N   UNL     1      -0.616  10.556  21.190  0.00  0.00    +0.000 N 
ATOM     25  C   UNL     1      -0.348   9.460  22.139  0.00  0.00    +0.000 C 
ATOM     26  C   UNL     1       1.078   8.902  21.929  0.00  0.00    +0.000 C 
BRANCH  24  27
ATOM     27  C   UNL     1      -1.234  11.731  21.566  0.00  0.00    +0.000 A 
ATOM     28  C   UNL     1      -1.149  12.237  22.870  0.00  0.00    +0.000 A 
ATOM     29  C   UNL     1      -1.849  13.384  23.264  0.00  0.00    +0.000 A 
ATOM     30  C   UNL     1      -2.644  14.075  22.355  0.00  0.00    +0.000 A 
ATOM     31  C   UNL     1      -2.740  13.601  21.052  0.00  0.00    +0.000 A 
ATOM     32  C   UNL     1      -2.038  12.448  20.668  0.00  0.00    +0.000 A 
BRANCH  30  33
ATOM     33  O   UNL     1      -3.316  15.150  22.863  0.00  0.00    +0.000 OA
ATOM     34  C   UNL     1      -2.512  16.266  23.227  0.00  0.00    +0.000 C 
ENDBRANCH  30  33
ENDBRANCH  24  27
ENDBRANCH  18  19
ENDBRANCH   1  18
TORSDOF 7
ENDMDL
MODEL 3
REMARK VINA RESULT:      -7.4      6.236      8.047
REMARK  Name = 
REMARK  9 active torsions:
REMARK  status: ('A' for Active; 'I' for Inactive)
REMARK    1  A    between atoms: C_1  and  C_2
REMARK    2  A    between atoms: C_2  and  C_3
REMARK    3  A    between atoms: N_5  and  C_6
REMARK    4  A    between atoms: C_6  and  C_7
REMARK    5  A    between atoms: C_7  and  C_8
REMARK    6  A    between atoms: C_8  and  C_9
REMARK    7  A    between atoms: N_14  and  C_15
REMARK    8  A    between atoms: C_18  and  O_19
REMARK    9  A    between atoms: O_19  and  C_20
REMARK                            x       y       z     vdW  Elec       q    Type
REMARK                         _______ _______ _______ _____ _____    ______ ____
ROOT
ATOM      1  C   UNL     1       7.750   8.951  17.849  0.00  0.00    +0.000 C 
ENDROOT
BRANCH   1   2
ATOM      2  C   UNL     1       7.894   7.441  17.635  0.00  0.00    +0.000 C 
BRANCH   2   5
ATOM      3  C   UNL     1       4.335   6.814  17.545  0.00  0.00    +0.000 A 
ATOM      4  N   UNL     1       5.489   7.398  17.436  0.00  0.00    +0.000 NA
ATOM      5  N   UNL     1       6.635   6.726  17.856  0.00  0.00    +0.000 N 
ATOM      6  C   UNL     1       6.642   5.432  18.400  0.00  0.00    +0.000 A 
ATOM      7  O   UNL     1       7.664   4.856  18.762  0.00  0.00    +0.000 OA
ATOM      8  C   UNL     1       5.331   4.825  18.495  0.00  0.00    +0.000 A 
ATOM      9  C   UNL     1       4.962   3.558  18.923  0.00  0.00    +0.000 A 
ATOM     10  C   UNL     1       3.564   3.570  18.804  0.00  0.00    +0.000 A 
ATOM     11  O   UNL     1       2.539   2.716  19.037  0.00  0.00    +0.000 OA
ATOM     12  C   UNL     1       1.420   3.429  18.715  0.00  0.00    +0.000 A 
ATOM     13  C   UNL     1       1.702   4.702  18.283  0.00  0.00    +0.000 A 
ATOM     14  C   UNL     1       3.114   4.754  18.334  0.00  0.00    +0.000 A 
ATOM     15  N   UNL     1       4.220   5.543  18.093  0.00  0.00    +0.000 N 
BRANCH   3  17
ATOM     16  C   UNL     1       2.445   8.402  18.078  0.00  0.00    +0.000 C 
ATOM     17  C   UNL     1       3.049   7.441  17.067  0.00  0.00    +0.000 C 
ENDBRANCH   3  17
ENDBRANCH   2   5
ENDBRANCH   1   2
BRANCH   1  18
ATOM     18  C   UNL     1       8.926   9.567  18.622  0.00  0.00    +0.000 C 
BRANCH  18  19
ATOM     19  C   UNL     1       8.981  11.085  18.532  0.00  0.00    +0.000 C 
ATOM     20  O   UNL     1       8.823  11.664  17.457  0.00  0.00    +0.000 OA
ATOM     21  N   UNL     1       9.178  11.788  19.707  0.00  0.00    +0.000 N 
ATOM     22  C   UNL     1       9.155  13.257  19.666  0.00  0.00    +0.000 C 
ATOM     23  C   UNL     1       8.227  13.833  20.750  0.00  0.00    +0.000 C 
ATOM     24  N   UNL     1       8.623  13.296  22.063  0.00  0.00    +0.000 N 
ATOM     25  C   UNL     1       8.644  11.825  22.151  0.00  0.00    +0.000 C 
ATOM     26  C   UNL     1       9.521  11.230  21.026  0.00  0.00    +0.000 C 
BRANCH  24  27
ATOM     27  C   UNL     1       8.753  14.110  23.169  0.00  0.00    +0.000 A 
ATOM     28  C   UNL     1       9.437  15.332  23.123  0.00  0.00    +0.000 A 
ATOM     29  C   UNL     1       9.638  16.110  24.270  0.00  0.00    +0.000 A 
ATOM     30  C   UNL     1       9.140  15.696  25.501  0.00  0.00    +0.000 A 
ATOM     31  C   UNL     1       8.450  14.492  25.576  0.00  0.00    +0.000 A 
ATOM     32  C   UNL     1       8.257  13.718  24.422  0.00  0.00    +0.000 A 
BRANCH  30  33
ATOM     33  O   UNL     1       9.438  16.510  26.557  0.00  0.00    +0.000 OA
ATOM     34  C   UNL     1       8.479  16.533  27.609  0.00  0.00    +0.000 C 
ENDBRANCH  30  33
ENDBRANCH  24  27
ENDBRANCH  18  19
ENDBRANCH   1  18
TORSDOF 7
ENDMDL
MODEL 4
REMARK VINA RESULT:      -7.4      1.444      1.854
REMARK  Name = 
REMARK  9 active torsions:
REMARK  status: ('A' for Active; 'I' for Inactive)
REMARK    1  A    between atoms: C_1  and  C_2
REMARK    2  A    between atoms: C_2  and  C_3
REMARK    3  A    between atoms: N_5  and  C_6
REMARK    4  A    between atoms: C_6  and  C_7
REMARK    5  A    between atoms: C_7  and  C_8
REMARK    6  A    between atoms: C_8  and  C_9
REMARK    7  A    between atoms: N_14  and  C_15
REMARK    8  A    between atoms: C_18  and  O_19
REMARK    9  A    between atoms: O_19  and  C_20
REMARK                            x       y       z     vdW  Elec       q    Type
REMARK                         _______ _______ _______ _____ _____    ______ ____
ROOT
ATOM      1  C   UNL     1       2.902   4.576  20.768  0.00  0.00    +0.000 C 
ENDROOT
BRANCH   1   2
ATOM      2  C   UNL     1       3.529   3.351  20.094  0.00  0.00    +0.000 C 
BRANCH   2   5
ATOM      3  C   UNL     1       6.322   4.595  18.164  0.00  0.00    +0.000 A 
ATOM      4  N   UNL     1       5.544   4.296  19.160  0.00  0.00    +0.000 NA
ATOM      5  N   UNL     1       4.307   3.709  18.906  0.00  0.00    +0.000 N 
ATOM      6  C   UNL     1       3.822   3.403  17.624  0.00  0.00    +0.000 A 
ATOM      7  O   UNL     1       2.728   2.882  17.422  0.00  0.00    +0.000 OA
ATOM      8  C   UNL     1       4.728   3.752  16.551  0.00  0.00    +0.000 A 
ATOM      9  C   UNL     1       4.613   3.552  15.184  0.00  0.00    +0.000 A 
ATOM     10  C   UNL     1       5.790   4.119  14.672  0.00  0.00    +0.000 A 
ATOM     11  O   UNL     1       6.359   4.303  13.457  0.00  0.00    +0.000 OA
ATOM     12  C   UNL     1       7.521   4.969  13.721  0.00  0.00    +0.000 A 
ATOM     13  C   UNL     1       7.709   5.210  15.060  0.00  0.00    +0.000 A 
ATOM     14  C   UNL     1       6.568   4.622  15.656  0.00  0.00    +0.000 A 
ATOM     15  N   UNL     1       5.933   4.361  16.852  0.00  0.00    +0.000 N 
BRANCH   3  17
ATOM     16  C   UNL     1       7.694   6.701  18.406  0.00  0.00    +0.000 C 
ATOM     17  C   UNL     1       7.699   5.182  18.346  0.00  0.00    +0.000 C 
ENDBRANCH   3  17
ENDBRANCH   2   5
ENDBRANCH   1   2
BRANCH   1  18
ATOM     18  C   UNL     1       1.722   5.161  19.978  0.00  0.00    +0.000 C 
BRANCH  18  19
ATOM     19  C   UNL     1       2.041   6.491  19.309  0.00  0.00    +0.000 C 
ATOM     20  O   UNL     1       2.529   6.532  18.180  0.00  0.00    +0.000 OA
ATOM     21  N   UNL     1       1.726   7.646  20.000  0.00  0.00    +0.000 N 
ATOM     22  C   UNL     1       1.946   8.945  19.348  0.00  0.00    +0.000 C 
ATOM     23  C   UNL     1       0.698   9.840  19.447  0.00  0.00    +0.000 C 
ATOM     24  N   UNL     1       0.300   9.962  20.860  0.00  0.00    +0.000 N 
ATOM     25  C   UNL     1       0.055   8.682  21.548  0.00  0.00    +0.000 C 
ATOM     26  C   UNL     1       1.277   7.747  21.399  0.00  0.00    +0.000 C 
BRANCH  24  27
ATOM     27  C   UNL     1      -0.021  11.181  21.420  0.00  0.00    +0.000 A 
ATOM     28  C   UNL     1      -0.906  11.299  22.499  0.00  0.00    +0.000 A 
ATOM     29  C   UNL     1      -1.293  12.546  23.006  0.00  0.00    +0.000 A 
ATOM     30  C   UNL     1      -0.786  13.720  22.456  0.00  0.00    +0.000 A 
ATOM     31  C   UNL     1       0.100  13.633  21.390  0.00  0.00    +0.000 A 
ATOM     32  C   UNL     1       0.478  12.379  20.888  0.00  0.00    +0.000 A 
BRANCH  30  33
ATOM     33  O   UNL     1      -1.270  14.876  22.999  0.00  0.00    +0.000 OA
ATOM     34  C   UNL     1      -1.767  15.834  22.070  0.00  0.00    +0.000 C 
ENDBRANCH  30  33
ENDBRANCH  24  27
ENDBRANCH  18  19
ENDBRANCH   1  18
TORSDOF 7
ENDMDL
MODEL 5
REMARK VINA RESULT:      -7.3      2.790     12.208
REMARK  Name = 
REMARK  9 active torsions:
REMARK  status: ('A' for Active; 'I' for Inactive)
REMARK    1  A    between atoms: C_1  and  C_2
REMARK    2  A    between atoms: C_2  and  C_3
REMARK    3  A    between atoms: N_5  and  C_6
REMARK    4  A    between atoms: C_6  and  C_7
REMARK    5  A    between atoms: C_7  and  C_8
REMARK    6  A    between atoms: C_8  and  C_9
REMARK    7  A    between atoms: N_14  and  C_15
REMARK    8  A    between atoms: C_18  and  O_19
REMARK    9  A    between atoms: O_19  and  C_20
REMARK                            x       y       z     vdW  Elec       q    Type
REMARK                         _______ _______ _______ _____ _____    ______ ____
ROOT
ATOM      1  C   UNL     1       0.262  11.152  21.298  0.00  0.00    +0.000 C 
ENDROOT
BRANCH   1   2
ATOM      2  C   UNL     1      -0.289  12.451  20.701  0.00  0.00    +0.000 C 
BRANCH   2   5
ATOM      3  C   UNL     1      -3.417  13.122  22.385  0.00  0.00    +0.000 A 
ATOM      4  N   UNL     1      -2.152  12.940  22.155  0.00  0.00    +0.000 NA
ATOM      5  N   UNL     1      -1.738  12.572  20.877  0.00  0.00    +0.000 N 
ATOM      6  C   UNL     1      -2.601  12.381  19.787  0.00  0.00    +0.000 A 
ATOM      7  O   UNL     1      -2.215  12.060  18.666  0.00  0.00    +0.000 OA
ATOM      8  C   UNL     1      -3.998  12.601  20.095  0.00  0.00    +0.000 A 
ATOM      9  C   UNL     1      -5.113  12.560  19.270  0.00  0.00    +0.000 A 
ATOM     10  C   UNL     1      -6.174  12.837  20.144  0.00  0.00    +0.000 A 
ATOM     11  O   UNL     1      -7.522  12.954  20.067  0.00  0.00    +0.000 OA
ATOM     12  C   UNL     1      -7.916  13.215  21.348  0.00  0.00    +0.000 A 
ATOM     13  C   UNL     1      -6.866  13.269  22.232  0.00  0.00    +0.000 A 
ATOM     14  C   UNL     1      -5.739  13.039  21.408  0.00  0.00    +0.000 A 
ATOM     15  N   UNL     1      -4.364  12.936  21.386  0.00  0.00    +0.000 N 
BRANCH   3  17
ATOM     16  C   UNL     1      -4.246  12.419  24.664  0.00  0.00    +0.000 C 
ATOM     17  C   UNL     1      -3.952  13.574  23.720  0.00  0.00    +0.000 C 
ENDBRANCH   3  17
ENDBRANCH   2   5
ENDBRANCH   1   2
BRANCH   1  18
ATOM     18  C   UNL     1      -0.135   9.903  20.498  0.00  0.00    +0.000 C 
BRANCH  18  19
ATOM     19  C   UNL     1       0.561   8.634  20.970  0.00  0.00    +0.000 C 
ATOM     20  O   UNL     1       0.229   8.080  22.017  0.00  0.00    +0.000 OA
ATOM     21  N   UNL     1       1.552   8.110  20.160  0.00  0.00    +0.000 N 
ATOM     22  C   UNL     1       2.187   6.842  20.547  0.00  0.00    +0.000 C 
ATOM     23  C   UNL     1       2.210   5.846  19.374  0.00  0.00    +0.000 C 
ATOM     24  N   UNL     1       2.850   6.483  18.210  0.00  0.00    +0.000 N 
ATOM     25  C   UNL     1       2.235   7.751  17.780  0.00  0.00    +0.000 C 
ATOM     26  C   UNL     1       2.145   8.737  18.966  0.00  0.00    +0.000 C 
BRANCH  24  27
ATOM     27  C   UNL     1       3.810   5.830  17.464  0.00  0.00    +0.000 A 
ATOM     28  C   UNL     1       4.707   6.516  16.635  0.00  0.00    +0.000 A 
ATOM     29  C   UNL     1       5.621   5.841  15.816  0.00  0.00    +0.000 A 
ATOM     30  C   UNL     1       5.677   4.451  15.817  0.00  0.00    +0.000 A 
ATOM     31  C   UNL     1       4.805   3.744  16.635  0.00  0.00    +0.000 A 
ATOM     32  C   UNL     1       3.891   4.430  17.449  0.00  0.00    +0.000 A 
BRANCH  30  33
ATOM     33  O   UNL     1       6.572   3.900  14.944  0.00  0.00    +0.000 OA
ATOM     34  C   UNL     1       7.022   4.756  13.899  0.00  0.00    +0.000 C 
ENDBRANCH  30  33
ENDBRANCH  24  27
ENDBRANCH  18  19
ENDBRANCH   1  18
TORSDOF 7
ENDMDL
MODEL 6
REMARK VINA RESULT:      -7.2      3.355      4.988
REMARK  Name = 
REMARK  9 active torsions:
REMARK  status: ('A' for Active; 'I' for Inactive)
REMARK    1  A    between atoms: C_1  and  C_2
REMARK    2  A    between atoms: C_2  and  C_3
REMARK    3  A    between atoms: N_5  and  C_6
REMARK    4  A    between atoms: C_6  and  C_7
REMARK    5  A    between atoms: C_7  and  C_8
REMARK    6  A    between atoms: C_8  and  C_9
REMARK    7  A    between atoms: N_14  and  C_15
REMARK    8  A    between atoms: C_18  and  O_19
REMARK    9  A    between atoms: O_19  and  C_20
REMARK                            x       y       z     vdW  Elec       q    Type
REMARK                         _______ _______ _______ _____ _____    ______ ____
ROOT
ATOM      1  C   UNL     1       0.657   9.512  17.869  0.00  0.00    +0.000 C 
ENDROOT
BRANCH   1   2
ATOM      2  C   UNL     1       2.047   9.365  18.494  0.00  0.00    +0.000 C 
BRANCH   2   5
ATOM      3  C   UNL     1       3.706   6.237  17.765  0.00  0.00    +0.000 A 
ATOM      4  N   UNL     1       3.269   7.456  17.667  0.00  0.00    +0.000 NA
ATOM      5  N   UNL     1       2.436   7.963  18.661  0.00  0.00    +0.000 N 
ATOM      6  C   UNL     1       2.021   7.243  19.792  0.00  0.00    +0.000 A 
ATOM      7  O   UNL     1       1.287   7.711  20.660  0.00  0.00    +0.000 OA
ATOM      8  C   UNL     1       2.538   5.893  19.856  0.00  0.00    +0.000 A 
ATOM      9  C   UNL     1       2.389   4.924  20.837  0.00  0.00    +0.000 A 
ATOM     10  C   UNL     1       3.100   3.829  20.322  0.00  0.00    +0.000 A 
ATOM     11  O   UNL     1       3.385   2.560  20.702  0.00  0.00    +0.000 OA
ATOM     12  C   UNL     1       4.117   2.050  19.669  0.00  0.00    +0.000 A 
ATOM     13  C   UNL     1       4.307   2.952  18.650  0.00  0.00    +0.000 A 
ATOM     14  C   UNL     1       3.647   4.112  19.119  0.00  0.00    +0.000 A 
ATOM     15  N   UNL     1       3.338   5.424  18.830  0.00  0.00    +0.000 N 
BRANCH   3  17
ATOM     16  C   UNL     1       6.078   6.138  16.906  0.00  0.00    +0.000 C 
ATOM     17  C   UNL     1       4.655   5.622  16.767  0.00  0.00    +0.000 C 
ENDBRANCH   3  17
ENDBRANCH   2   5
ENDBRANCH   1   2
BRANCH   1  18
ATOM     18  C   UNL     1      -0.335  10.264  18.769  0.00  0.00    +0.000 C 
BRANCH  18  19
ATOM     19  C   UNL     1      -1.676  10.532  18.102  0.00  0.00    +0.000 C 
ATOM     20  O   UNL     1      -2.072   9.834  17.168  0.00  0.00    +0.000 OA
ATOM     21  N   UNL     1      -2.447  11.563  18.608  0.00  0.00    +0.000 N 
ATOM     22  C   UNL     1      -3.782  11.795  18.039  0.00  0.00    +0.000 C 
ATOM     23  C   UNL     1      -4.850  11.907  19.142  0.00  0.00    +0.000 C 
ATOM     24  N   UNL     1      -4.443  12.942  20.107  0.00  0.00    +0.000 N 
ATOM     25  C   UNL     1      -3.116  12.739  20.713  0.00  0.00    +0.000 C 
ATOM     26  C   UNL     1      -2.043  12.559  19.614  0.00  0.00    +0.000 C 
BRANCH  24  27
ATOM     27  C   UNL     1      -5.328  13.900  20.557  0.00  0.00    +0.000 A 
ATOM     28  C   UNL     1      -6.443  14.300  19.808  0.00  0.00    +0.000 A 
ATOM     29  C   UNL     1      -7.287  15.333  20.233  0.00  0.00    +0.000 A 
ATOM     30  C   UNL     1      -7.051  15.988  21.438  0.00  0.00    +0.000 A 
ATOM     31  C   UNL     1      -5.958  15.607  22.206  0.00  0.00    +0.000 A 
ATOM     32  C   UNL     1      -5.116  14.573  21.769  0.00  0.00    +0.000 A 
BRANCH  30  33
ATOM     33  O   UNL     1      -7.910  17.010  21.727  0.00  0.00    +0.000 OA
ATOM     34  C   UNL     1      -7.329  18.308  21.786  0.00  0.00    +0.000 C 
ENDBRANCH  30  33
ENDBRANCH  24  27
ENDBRANCH  18  19
ENDBRANCH   1  18
TORSDOF 7
ENDMDL
MODEL 7
REMARK VINA RESULT:      -7.2      4.662      6.563
REMARK  Name = 
REMARK  9 active torsions:
REMARK  status: ('A' for Active; 'I' for Inactive)
REMARK    1  A    between atoms: C_1  and  C_2
REMARK    2  A    between atoms: C_2  and  C_3
REMARK    3  A    between atoms: N_5  and  C_6
REMARK    4  A    between atoms: C_6  and  C_7
REMARK    5  A    between atoms: C_7  and  C_8
REMARK    6  A    between atoms: C_8  and  C_9
REMARK    7  A    between atoms: N_14  and  C_15
REMARK    8  A    between atoms: C_18  and  O_19
REMARK    9  A    between atoms: O_19  and  C_20
REMARK                            x       y       z     vdW  Elec       q    Type
REMARK                         _______ _______ _______ _____ _____    ______ ____
ROOT
ATOM      1  C   UNL     1       0.670   9.870  18.102  0.00  0.00    +0.000 C 
ENDROOT
BRANCH   1   2
ATOM      2  C   UNL     1       1.508   9.482  19.325  0.00  0.00    +0.000 C 
BRANCH   2   5
ATOM      3  C   UNL     1       3.327   6.615  18.084  0.00  0.00    +0.000 A 
ATOM      4  N   UNL     1       2.820   7.806  18.189  0.00  0.00    +0.000 NA
ATOM      5  N   UNL     1       1.979   8.098  19.260  0.00  0.00    +0.000 N 
ATOM      6  C   UNL     1       1.628   7.183  20.265  0.00  0.00    +0.000 A 
ATOM      7  O   UNL     1       0.886   7.461  21.204  0.00  0.00    +0.000 OA
ATOM      8  C   UNL     1       2.222   5.873  20.105  0.00  0.00    +0.000 A 
ATOM      9  C   UNL     1       2.148   4.752  20.919  0.00  0.00    +0.000 A 
ATOM     10  C   UNL     1       2.910   3.798  20.228  0.00  0.00    +0.000 A 
ATOM     11  O   UNL     1       3.274   2.504  20.395  0.00  0.00    +0.000 OA
ATOM     12  C   UNL     1       4.013   2.209  19.286  0.00  0.00    +0.000 A 
ATOM     13  C   UNL     1       4.131   3.272  18.423  0.00  0.00    +0.000 A 
ATOM     14  C   UNL     1       3.416   4.301  19.080  0.00  0.00    +0.000 A 
ATOM     15  N   UNL     1       3.027   5.623  19.008  0.00  0.00    +0.000 N 
BRANCH   3  17
ATOM     16  C   UNL     1       5.719   6.653  17.279  0.00  0.00    +0.000 C 
ATOM     17  C   UNL     1       4.289   6.225  16.991  0.00  0.00    +0.000 C 
ENDBRANCH   3  17
ENDBRANCH   2   5
ENDBRANCH   1   2
BRANCH   1  18
ATOM     18  C   UNL     1      -0.433  10.888  18.423  0.00  0.00    +0.000 C 
BRANCH  18  19
ATOM     19  C   UNL     1      -0.128  11.750  19.640  0.00  0.00    +0.000 C 
ATOM     20  O   UNL     1      -0.676  11.539  20.721  0.00  0.00    +0.000 OA
ATOM     21  N   UNL     1       0.814  12.752  19.493  0.00  0.00    +0.000 N 
ATOM     22  C   UNL     1       1.191  13.548  20.670  0.00  0.00    +0.000 C 
ATOM     23  C   UNL     1       2.720  13.627  20.827  0.00  0.00    +0.000 C 
ATOM     24  N   UNL     1       3.311  14.128  19.575  0.00  0.00    +0.000 N 
ATOM     25  C   UNL     1       2.969  13.349  18.372  0.00  0.00    +0.000 C 
ATOM     26  C   UNL     1       1.436  13.206  18.238  0.00  0.00    +0.000 C 
BRANCH  24  27
ATOM     27  C   UNL     1       4.273  15.117  19.573  0.00  0.00    +0.000 A 
ATOM     28  C   UNL     1       4.026  16.401  20.079  0.00  0.00    +0.000 A 
ATOM     29  C   UNL     1       4.979  17.423  19.995  0.00  0.00    +0.000 A 
ATOM     30  C   UNL     1       6.222  17.185  19.416  0.00  0.00    +0.000 A 
ATOM     31  C   UNL     1       6.497  15.919  18.914  0.00  0.00    +0.000 A 
ATOM     32  C   UNL     1       5.534  14.903  19.000  0.00  0.00    +0.000 A 
BRANCH  30  33
ATOM     33  O   UNL     1       7.053  18.268  19.346  0.00  0.00    +0.000 OA
ATOM     34  C   UNL     1       8.406  17.987  19.007  0.00  0.00    +0.000 C 
ENDBRANCH  30  33
ENDBRANCH  24  27
ENDBRANCH  18  19
ENDBRANCH   1  18
TORSDOF 7
ENDMDL
MODEL 8
REMARK VINA RESULT:      -7.1      1.974      2.458
REMARK  Name = 
REMARK  9 active torsions:
REMARK  status: ('A' for Active; 'I' for Inactive)
REMARK    1  A    between atoms: C_1  and  C_2
REMARK    2  A    between atoms: C_2  and  C_3
REMARK    3  A    between atoms: N_5  and  C_6
REMARK    4  A    between atoms: C_6  and  C_7
REMARK    5  A    between atoms: C_7  and  C_8
REMARK    6  A    between atoms: C_8  and  C_9
REMARK    7  A    between atoms: N_14  and  C_15
REMARK    8  A    between atoms: C_18  and  O_19
REMARK    9  A    between atoms: O_19  and  C_20
REMARK                            x       y       z     vdW  Elec       q    Type
REMARK                         _______ _______ _______ _____ _____    ______ ____
ROOT
ATOM      1  C   UNL     1       2.103   4.228  20.008  0.00  0.00    +0.000 C 
ENDROOT
BRANCH   1   2
ATOM      2  C   UNL     1       3.445   3.488  19.996  0.00  0.00    +0.000 C 
BRANCH   2   5
ATOM      3  C   UNL     1       6.256   4.721  18.087  0.00  0.00    +0.000 A 
ATOM      4  N   UNL     1       5.457   4.447  19.073  0.00  0.00    +0.000 NA
ATOM      5  N   UNL     1       4.246   3.811  18.814  0.00  0.00    +0.000 N 
ATOM      6  C   UNL     1       3.809   3.428  17.536  0.00  0.00    +0.000 A 
ATOM      7  O   UNL     1       2.737   2.864  17.329  0.00  0.00    +0.000 OA
ATOM      8  C   UNL     1       4.735   3.752  16.473  0.00  0.00    +0.000 A 
ATOM      9  C   UNL     1       4.667   3.482  15.114  0.00  0.00    +0.000 A 
ATOM     10  C   UNL     1       5.842   4.059  14.609  0.00  0.00    +0.000 A 
ATOM     11  O   UNL     1       6.441   4.201  13.402  0.00  0.00    +0.000 OA
ATOM     12  C   UNL     1       7.575   4.914  13.665  0.00  0.00    +0.000 A 
ATOM     13  C   UNL     1       7.715   5.226  14.996  0.00  0.00    +0.000 A 
ATOM     14  C   UNL     1       6.576   4.633  15.588  0.00  0.00    +0.000 A 
ATOM     15  N   UNL     1       5.913   4.412  16.777  0.00  0.00    +0.000 N 
BRANCH   3  17
ATOM     16  C   UNL     1       7.881   5.752  19.720  0.00  0.00    +0.000 C 
ATOM     17  C   UNL     1       7.609   5.358  18.278  0.00  0.00    +0.000 C 
ENDBRANCH   3  17
ENDBRANCH   2   5
ENDBRANCH   1   2
BRANCH   1  18
ATOM     18  C   UNL     1       2.215   5.673  20.517  0.00  0.00    +0.000 C 
BRANCH  18  19
ATOM     19  C   UNL     1       2.317   6.702  19.400  0.00  0.00    +0.000 C 
ATOM     20  O   UNL     1       2.771   6.400  18.297  0.00  0.00    +0.000 OA
ATOM     21  N   UNL     1       1.846   7.977  19.661  0.00  0.00    +0.000 N 
ATOM     22  C   UNL     1       1.856   8.971  18.579  0.00  0.00    +0.000 C 
ATOM     23  C   UNL     1       0.490   9.668  18.447  0.00  0.00    +0.000 C 
ATOM     24  N   UNL     1       0.106  10.234  19.750  0.00  0.00    +0.000 N 
ATOM     25  C   UNL     1       0.070   9.267  20.861  0.00  0.00    +0.000 C 
ATOM     26  C   UNL     1       1.415   8.512  20.963  0.00  0.00    +0.000 C 
BRANCH  24  27
ATOM     27  C   UNL     1      -0.383  11.519  19.866  0.00  0.00    +0.000 A 
ATOM     28  C   UNL     1       0.188  12.601  19.184  0.00  0.00    +0.000 A 
ATOM     29  C   UNL     1      -0.260  13.914  19.374  0.00  0.00    +0.000 A 
ATOM     30  C   UNL     1      -1.312  14.183  20.243  0.00  0.00    +0.000 A 
ATOM     31  C   UNL     1      -1.903  13.129  20.927  0.00  0.00    +0.000 A 
ATOM     32  C   UNL     1      -1.445  11.817  20.733  0.00  0.00    +0.000 A 
BRANCH  30  33
ATOM     33  O   UNL     1      -1.632  15.504  20.385  0.00  0.00    +0.000 OA
ATOM     34  C   UNL     1      -2.674  15.791  21.310  0.00  0.00    +0.000 C 
ENDBRANCH  30  33
ENDBRANCH  24  27
ENDBRANCH  18  19
ENDBRANCH   1  18
TORSDOF 7
ENDMDL
MODEL 9
REMARK VINA RESULT:      -7.0      4.920      9.846
REMARK  Name = 
REMARK  9 active torsions:
REMARK  status: ('A' for Active; 'I' for Inactive)
REMARK    1  A    between atoms: C_1  and  C_2
REMARK    2  A    between atoms: C_2  and  C_3
REMARK    3  A    between atoms: N_5  and  C_6
REMARK    4  A    between atoms: C_6  and  C_7
REMARK    5  A    between atoms: C_7  and  C_8
REMARK    6  A    between atoms: C_8  and  C_9
REMARK    7  A    between atoms: N_14  and  C_15
REMARK    8  A    between atoms: C_18  and  O_19
REMARK    9  A    between atoms: O_19  and  C_20
REMARK                            x       y       z     vdW  Elec       q    Type
REMARK                         _______ _______ _______ _____ _____    ______ ____
ROOT
ATOM      1  C   UNL     1       0.746  13.025  21.466  0.00  0.00    +0.000 C 
ENDROOT
BRANCH   1   2
ATOM      2  C   UNL     1       1.189  14.491  21.442  0.00  0.00    +0.000 C 
BRANCH   2   5
ATOM      3  C   UNL     1       3.648  15.103  18.863  0.00  0.00    +0.000 A 
ATOM      4  N   UNL     1       2.519  14.888  19.468  0.00  0.00    +0.000 NA
ATOM      5  N   UNL     1       2.514  14.660  20.841  0.00  0.00    +0.000 N 
ATOM      6  C   UNL     1       3.663  14.647  21.648  0.00  0.00    +0.000 A 
ATOM      7  O   UNL     1       3.637  14.448  22.860  0.00  0.00    +0.000 OA
ATOM      8  C   UNL     1       4.893  14.896  20.927  0.00  0.00    +0.000 A 
ATOM      9  C   UNL     1       6.195  15.011  21.392  0.00  0.00    +0.000 A 
ATOM     10  C   UNL     1       6.939  15.231  20.224  0.00  0.00    +0.000 A 
ATOM     11  O   UNL     1       8.239  15.423  19.893  0.00  0.00    +0.000 OA
ATOM     12  C   UNL     1       8.233  15.543  18.533  0.00  0.00    +0.000 A 
ATOM     13  C   UNL     1       6.974  15.436  17.992  0.00  0.00    +0.000 A 
ATOM     14  C   UNL     1       6.150  15.254  19.127  0.00  0.00    +0.000 A 
ATOM     15  N   UNL     1       4.850  15.087  19.558  0.00  0.00    +0.000 N 
BRANCH   3  17
ATOM     16  C   UNL     1       3.003  16.681  17.001  0.00  0.00    +0.000 C 
ATOM     17  C   UNL     1       3.744  15.412  17.390  0.00  0.00    +0.000 C 
ENDBRANCH   3  17
ENDBRANCH   2   5
ENDBRANCH   1   2
BRANCH   1  18
ATOM     18  C   UNL     1      -0.497  12.755  20.605  0.00  0.00    +0.000 C 
BRANCH  18  19
ATOM     19  C   UNL     1      -0.190  12.015  19.311  0.00  0.00    +0.000 C 
ATOM     20  O   UNL     1      -0.202  12.599  18.227  0.00  0.00    +0.000 OA
ATOM     21  N   UNL     1       0.138  10.675  19.404  0.00  0.00    +0.000 N 
ATOM     22  C   UNL     1       0.519   9.952  18.182  0.00  0.00    +0.000 C 
ATOM     23  C   UNL     1       1.831   9.171  18.379  0.00  0.00    +0.000 C 
ATOM     24  N   UNL     1       1.701   8.294  19.554  0.00  0.00    +0.000 N 
ATOM     25  C   UNL     1       1.333   8.981  20.805  0.00  0.00    +0.000 C 
ATOM     26  C   UNL     1       0.053   9.823  20.602  0.00  0.00    +0.000 C 
BRANCH  24  27
ATOM     27  C   UNL     1       2.100   6.973  19.521  0.00  0.00    +0.000 A 
ATOM     28  C   UNL     1       2.812   6.435  18.441  0.00  0.00    +0.000 A 
ATOM     29  C   UNL     1       3.138   5.074  18.376  0.00  0.00    +0.000 A 
ATOM     30  C   UNL     1       2.776   4.211  19.405  0.00  0.00    +0.000 A 
ATOM     31  C   UNL     1       2.076   4.719  20.492  0.00  0.00    +0.000 A 
ATOM     32  C   UNL     1       1.751   6.082  20.546  0.00  0.00    +0.000 A 
BRANCH  30  33
ATOM     33  O   UNL     1       3.104   2.899  19.211  0.00  0.00    +0.000 OA
ATOM     34  C   UNL     1       3.437   2.536  17.876  0.00  0.00    +0.000 C 
ENDBRANCH  30  33
ENDBRANCH  24  27
ENDBRANCH  18  19
ENDBRANCH   1  18
TORSDOF 7
ENDMDL
