MODEL 1
REMARK VINA RESULT:      -9.4      0.000      0.000
REMARK  Name = 
REMARK  6 active torsions:
REMARK  status: ('A' for Active; 'I' for Inactive)
REMARK    1  A    between atoms: C_1  and  C_2
REMARK    2  A    between atoms: C_2  and  C_4
REMARK    3  A    between atoms: C_7  and  O_8
REMARK    4  A    between atoms: O_8  and  C_9
REMARK    5  A    between atoms: C_9  and  C_10
REMARK    6  A    between atoms: C_16  and  C_17
REMARK                            x       y       z     vdW  Elec       q    Type
REMARK                         _______ _______ _______ _____ _____    ______ ____
ROOT
ATOM      1  C   UNL     1       5.810   6.065  17.576  0.00  0.00    +0.000 A 
ATOM      2  C   UNL     1       5.499   4.783  17.137  0.00  0.00    +0.000 A 
ATOM      3  C   UNL     1       4.158   4.369  17.074  0.00  0.00    +0.000 A 
ATOM      4  C   UNL     1       3.087   5.194  17.478  0.00  0.00    +0.000 A 
ATOM      5  C   UNL     1       3.380   6.520  17.870  0.00  0.00    +0.000 A 
ATOM      6  C   UNL     1       4.746   6.907  17.910  0.00  0.00    +0.000 A 
ENDROOT
BRANCH   5   7
ATOM      7  C   UNL     1       2.403   7.577  18.294  0.00  0.00    +0.000 A 
ATOM      8  C   UNL     1       2.004   8.679  17.528  0.00  0.00    +0.000 A 
ATOM      9  C   UNL     1       1.315   9.773  18.124  0.00  0.00    +0.000 A 
ATOM     10  C   UNL     1       0.989   9.818  19.494  0.00  0.00    +0.000 A 
ATOM     11  C   UNL     1       1.327   8.718  20.229  0.00  0.00    +0.000 A 
ATOM     12  C   UNL     1       2.007   7.616  19.641  0.00  0.00    +0.000 A 
ATOM     13  C   UNL     1       1.152   8.640  21.703  0.00  0.00    +0.000 C 
ATOM     14  C   UNL     1       0.285   9.179  22.809  0.00  0.00    +0.000 C 
ATOM     15  C   UNL     1      -0.257  10.541  22.507  0.00  0.00    +0.000 C 
ATOM     16  N   UNL     1      -0.701  10.734  21.129  0.00  0.00    +0.000 NA
ATOM     17  C   UNL     1       0.361  11.022  20.151  0.00  0.00    +0.000 C 
ATOM     18  H   UNL     1      -1.254   9.943  20.806  0.00  0.00    +0.000 HD
ENDBRANCH   5   7
BRANCH   1  20
ATOM     19  C   UNL     1       8.013   6.280  18.923  0.00  0.00    +0.000 C 
ATOM     20  C   UNL     1       7.231   6.527  17.675  0.00  0.00    +0.000 C 
ATOM     21  O   UNL     1       7.738   7.089  16.692  0.00  0.00    +0.000 OA
ENDBRANCH   1  20
BRANCH   4  22
ATOM     22  O   UNL     1       1.783   4.734  17.535  0.00  0.00    +0.000 OA
BRANCH  22  23
ATOM     23  C   UNL     1       1.652   3.335  17.865  0.00  0.00    +0.000 C 
BRANCH  23  24
ATOM     24  C   UNL     1       1.852   2.955  19.324  0.00  0.00    +0.000 A 
ATOM     25  C   UNL     1       0.918   3.295  20.298  0.00  0.00    +0.000 A 
ATOM     26  C   UNL     1       1.243   3.050  21.633  0.00  0.00    +0.000 A 
ATOM     27  C   UNL     1       2.483   2.527  21.960  0.00  0.00    +0.000 A 
ATOM     28  C   UNL     1       3.341   2.226  20.928  0.00  0.00    +0.000 A 
ATOM     29  N   UNL     1       3.069   2.440  19.625  0.00  0.00    +0.000 NA
ENDBRANCH  23  24
ENDBRANCH  22  23
ENDBRANCH   4  22
TORSDOF 5
ENDMDL
MODEL 2
REMARK VINA RESULT:      -8.9      1.057      1.886
REMARK  Name = 
REMARK  6 active torsions:
REMARK  status: ('A' for Active; 'I' for Inactive)
REMARK    1  A    between atoms: C_1  and  C_2
REMARK    2  A    between atoms: C_2  and  C_4
REMARK    3  A    between atoms: C_7  and  O_8
REMARK    4  A    between atoms: O_8  and  C_9
REMARK    5  A    between atoms: C_9  and  C_10
REMARK    6  A    between atoms: C_16  and  C_17
REMARK                            x       y       z     vdW  Elec       q    Type
REMARK                         _______ _______ _______ _____ _____    ______ ____
ROOT
ATOM      1  C   UNL     1       5.926   4.979  17.699  0.00  0.00    +0.000 A 
ATOM      2  C   UNL     1       5.377   4.068  16.804  0.00  0.00    +0.000 A 
ATOM      3  C   UNL     1       3.982   3.973  16.666  0.00  0.00    +0.000 A 
ATOM      4  C   UNL     1       3.087   4.747  17.434  0.00  0.00    +0.000 A 
ATOM      5  C   UNL     1       3.628   5.721  18.304  0.00  0.00    +0.000 A 
ATOM      6  C   UNL     1       5.042   5.797  18.409  0.00  0.00    +0.000 A 
ENDROOT
BRANCH   5   7
ATOM      7  C   UNL     1       2.870   6.678  19.178  0.00  0.00    +0.000 A 
ATOM      8  C   UNL     1       2.301   6.378  20.421  0.00  0.00    +0.000 A 
ATOM      9  C   UNL     1       1.358   7.257  21.025  0.00  0.00    +0.000 A 
ATOM     10  C   UNL     1       0.947   8.466  20.429  0.00  0.00    +0.000 A 
ATOM     11  C   UNL     1       1.546   8.786  19.244  0.00  0.00    +0.000 A 
ATOM     12  C   UNL     1       2.496   7.919  18.637  0.00  0.00    +0.000 A 
ATOM     13  C   UNL     1       1.157   9.968  18.430  0.00  0.00    +0.000 C 
ATOM     14  C   UNL     1       0.582  11.351  18.575  0.00  0.00    +0.000 C 
ATOM     15  C   UNL     1      -0.331  11.477  19.754  0.00  0.00    +0.000 C 
ATOM     16  N   UNL     1       0.125  10.792  20.960  0.00  0.00    +0.000 NA
ATOM     17  C   UNL     1      -0.134   9.344  21.009  0.00  0.00    +0.000 C 
ATOM     18  H   UNL     1       1.114  10.966  21.131  0.00  0.00    +0.000 HD
ENDBRANCH   5   7
BRANCH   1  20
ATOM     19  C   UNL     1       7.979   6.160  18.751  0.00  0.00    +0.000 C 
ATOM     20  C   UNL     1       7.408   5.087  17.884  0.00  0.00    +0.000 C 
ATOM     21  O   UNL     1       8.134   4.252  17.322  0.00  0.00    +0.000 OA
ENDBRANCH   1  20
BRANCH   4  22
ATOM     22  O   UNL     1       1.717   4.555  17.385  0.00  0.00    +0.000 OA
BRANCH  22  23
ATOM     23  C   UNL     1       1.271   3.271  17.867  0.00  0.00    +0.000 C 
BRANCH  23  24
ATOM     24  C   UNL     1       1.645   2.910  19.297  0.00  0.00    +0.000 A 
ATOM     25  C   UNL     1       0.792   3.189  20.362  0.00  0.00    +0.000 A 
ATOM     26  C   UNL     1       1.267   2.972  21.656  0.00  0.00    +0.000 A 
ATOM     27  C   UNL     1       2.567   2.536  21.855  0.00  0.00    +0.000 A 
ATOM     28  C   UNL     1       3.335   2.291  20.739  0.00  0.00    +0.000 A 
ATOM     29  N   UNL     1       2.917   2.480  19.471  0.00  0.00    +0.000 NA
ENDBRANCH  23  24
ENDBRANCH  22  23
ENDBRANCH   4  22
TORSDOF 5
ENDMDL
MODEL 3
REMARK VINA RESULT:      -8.8      2.583      4.991
REMARK  Name = 
REMARK  6 active torsions:
REMARK  status: ('A' for Active; 'I' for Inactive)
REMARK    1  A    between atoms: C_1  and  C_2
REMARK    2  A    between atoms: C_2  and  C_4
REMARK    3  A    between atoms: C_7  and  O_8
REMARK    4  A    between atoms: O_8  and  C_9
REMARK    5  A    between atoms: C_9  and  C_10
REMARK    6  A    between atoms: C_16  and  C_17
REMARK                            x       y       z     vdW  Elec       q    Type
REMARK                         _______ _______ _______ _____ _____    ______ ____
ROOT
ATOM      1  C   UNL     1       3.394   3.584  20.166  0.00  0.00    +0.000 A 
ATOM      2  C   UNL     1       4.495   3.213  19.403  0.00  0.00    +0.000 A 
ATOM      3  C   UNL     1       4.981   4.078  18.408  0.00  0.00    +0.000 A 
ATOM      4  C   UNL     1       4.373   5.316  18.111  0.00  0.00    +0.000 A 
ATOM      5  C   UNL     1       3.291   5.735  18.917  0.00  0.00    +0.000 A 
ATOM      6  C   UNL     1       2.833   4.841  19.922  0.00  0.00    +0.000 A 
ENDROOT
BRANCH   5   7
ATOM      7  C   UNL     1       2.526   7.022  18.812  0.00  0.00    +0.000 A 
ATOM      8  C   UNL     1       2.574   7.919  17.739  0.00  0.00    +0.000 A 
ATOM      9  C   UNL     1       2.053   9.239  17.864  0.00  0.00    +0.000 A 
ATOM     10  C   UNL     1       1.459   9.718  19.049  0.00  0.00    +0.000 A 
ATOM     11  C   UNL     1       1.359   8.824  20.076  0.00  0.00    +0.000 A 
ATOM     12  C   UNL     1       1.869   7.501  19.957  0.00  0.00    +0.000 A 
ATOM     13  C   UNL     1       0.857   9.190  21.426  0.00  0.00    +0.000 C 
ATOM     14  C   UNL     1      -0.075  10.157  22.105  0.00  0.00    +0.000 C 
ATOM     15  C   UNL     1      -0.200  11.455  21.370  0.00  0.00    +0.000 C 
ATOM     16  N   UNL     1      -0.276  11.332  19.916  0.00  0.00    +0.000 NA
ATOM     17  C   UNL     1       1.009  11.147  19.223  0.00  0.00    +0.000 C 
ATOM     18  H   UNL     1      -0.919  10.590  19.643  0.00  0.00    +0.000 HD
ENDBRANCH   5   7
BRANCH   1  20
ATOM     19  C   UNL     1       1.389   2.728  21.567  0.00  0.00    +0.000 C 
ATOM     20  C   UNL     1       2.839   2.674  21.219  0.00  0.00    +0.000 C 
ATOM     21  O   UNL     1       3.608   1.868  21.765  0.00  0.00    +0.000 OA
ENDBRANCH   1  20
BRANCH   4  22
ATOM     22  O   UNL     1       4.779   6.100  17.046  0.00  0.00    +0.000 OA
BRANCH  22  23
ATOM     23  C   UNL     1       6.121   5.843  16.585  0.00  0.00    +0.000 C 
BRANCH  23  24
ATOM     24  C   UNL     1       6.264   5.258  15.187  0.00  0.00    +0.000 A 
ATOM     25  C   UNL     1       5.328   4.364  14.676  0.00  0.00    +0.000 A 
ATOM     26  C   UNL     1       5.606   3.752  13.453  0.00  0.00    +0.000 A 
ATOM     27  C   UNL     1       6.805   4.005  12.806  0.00  0.00    +0.000 A 
ATOM     28  C   UNL     1       7.668   4.903  13.392  0.00  0.00    +0.000 A 
ATOM     29  N   UNL     1       7.440   5.522  14.568  0.00  0.00    +0.000 NA
ENDBRANCH  23  24
ENDBRANCH  22  23
ENDBRANCH   4  22
TORSDOF 5
ENDMDL
MODEL 4
REMARK VINA RESULT:      -8.3      0.812      1.179
REMARK  Name = 
REMARK  6 active torsions:
REMARK  status: ('A' for Active; 'I' for Inactive)
REMARK    1  A    between atoms: C_1  and  C_2
REMARK    2  A    between atoms: C_2  and  C_4
REMARK    3  A    between atoms: C_7  and  O_8
REMARK    4  A    between atoms: O_8  and  C_9
REMARK    5  A    between atoms: C_9  and  C_10
REMARK    6  A    between atoms: C_16  and  C_17
REMARK                            x       y       z     vdW  Elec       q    Type
REMARK                         _______ _______ _______ _____ _____    ______ ____
ROOT
ATOM      1  C   UNL     1       5.744   6.124  17.545  0.00  0.00    +0.000 A 
ATOM      2  C   UNL     1       5.415   4.842  17.122  0.00  0.00    +0.000 A 
ATOM      3  C   UNL     1       4.070   4.436  17.095  0.00  0.00    +0.000 A 
ATOM      4  C   UNL     1       3.014   5.270  17.519  0.00  0.00    +0.000 A 
ATOM      5  C   UNL     1       3.325   6.597  17.895  0.00  0.00    +0.000 A 
ATOM      6  C   UNL     1       4.694   6.976  17.899  0.00  0.00    +0.000 A 
ENDROOT
BRANCH   5   7
ATOM      7  C   UNL     1       2.366   7.664  18.336  0.00  0.00    +0.000 A 
ATOM      8  C   UNL     1       1.997   8.792  17.593  0.00  0.00    +0.000 A 
ATOM      9  C   UNL     1       1.324   9.885  18.210  0.00  0.00    +0.000 A 
ATOM     10  C   UNL     1       0.984   9.902  19.577  0.00  0.00    +0.000 A 
ATOM     11  C   UNL     1       1.292   8.777  20.287  0.00  0.00    +0.000 A 
ATOM     12  C   UNL     1       1.956   7.677  19.679  0.00  0.00    +0.000 A 
ATOM     13  C   UNL     1       1.099   8.667  21.757  0.00  0.00    +0.000 C 
ATOM     14  C   UNL     1       0.232   9.196  22.867  0.00  0.00    +0.000 C 
ATOM     15  C   UNL     1      -0.279  10.576  22.595  0.00  0.00    +0.000 C 
ATOM     16  N   UNL     1      -0.704  10.813  21.217  0.00  0.00    +0.000 NA
ATOM     17  C   UNL     1       0.374  11.103  20.258  0.00  0.00    +0.000 C 
ATOM     18  H   UNL     1      -1.270  10.041  20.869  0.00  0.00    +0.000 HD
ENDBRANCH   5   7
BRANCH   1  20
ATOM     19  C   UNL     1       7.964   6.387  18.856  0.00  0.00    +0.000 C 
ATOM     20  C   UNL     1       7.171   6.578  17.606  0.00  0.00    +0.000 C 
ATOM     21  O   UNL     1       7.671   7.087  16.591  0.00  0.00    +0.000 OA
ENDBRANCH   1  20
BRANCH   4  22
ATOM     22  O   UNL     1       1.710   4.819  17.612  0.00  0.00    +0.000 OA
BRANCH  22  23
ATOM     23  C   UNL     1       1.419   4.055  18.800  0.00  0.00    +0.000 C 
BRANCH  23  24
ATOM     24  C   UNL     1       2.451   3.016  19.215  0.00  0.00    +0.000 A 
ATOM     25  C   UNL     1       3.310   3.235  20.287  0.00  0.00    +0.000 A 
ATOM     26  C   UNL     1       4.330   2.309  20.510  0.00  0.00    +0.000 A 
ATOM     27  C   UNL     1       4.493   1.235  19.649  0.00  0.00    +0.000 A 
ATOM     28  C   UNL     1       3.595   1.105  18.615  0.00  0.00    +0.000 A 
ATOM     29  N   UNL     1       2.592   1.971  18.365  0.00  0.00    +0.000 NA
ENDBRANCH  23  24
ENDBRANCH  22  23
ENDBRANCH   4  22
TORSDOF 5
ENDMDL
MODEL 5
REMARK VINA RESULT:      -8.2      2.655      6.385
REMARK  Name = 
REMARK  6 active torsions:
REMARK  status: ('A' for Active; 'I' for Inactive)
REMARK    1  A    between atoms: C_1  and  C_2
REMARK    2  A    between atoms: C_2  and  C_4
REMARK    3  A    between atoms: C_7  and  O_8
REMARK    4  A    between atoms: O_8  and  C_9
REMARK    5  A    between atoms: C_9  and  C_10
REMARK    6  A    between atoms: C_16  and  C_17
REMARK                            x       y       z     vdW  Elec       q    Type
REMARK                         _______ _______ _______ _____ _____    ______ ____
ROOT
ATOM      1  C   UNL     1       1.326   9.082  19.274  0.00  0.00    +0.000 A 
ATOM      2  C   UNL     1       0.534   8.761  20.370  0.00  0.00    +0.000 A 
ATOM      3  C   UNL     1       0.725   7.540  21.039  0.00  0.00    +0.000 A 
ATOM      4  C   UNL     1       1.677   6.585  20.624  0.00  0.00    +0.000 A 
ATOM      5  C   UNL     1       2.531   6.921  19.549  0.00  0.00    +0.000 A 
ATOM      6  C   UNL     1       2.317   8.168  18.903  0.00  0.00    +0.000 A 
ENDROOT
BRANCH   5   7
ATOM      7  C   UNL     1       3.635   6.085  18.970  0.00  0.00    +0.000 A 
ATOM      8  C   UNL     1       4.659   5.464  19.696  0.00  0.00    +0.000 A 
ATOM      9  C   UNL     1       5.813   4.952  19.038  0.00  0.00    +0.000 A 
ATOM     10  C   UNL     1       5.996   5.025  17.643  0.00  0.00    +0.000 A 
ATOM     11  C   UNL     1       4.970   5.577  16.930  0.00  0.00    +0.000 A 
ATOM     12  C   UNL     1       3.809   6.084  17.577  0.00  0.00    +0.000 A 
ATOM     13  C   UNL     1       5.039   5.826  15.467  0.00  0.00    +0.000 C 
ATOM     14  C   UNL     1       5.693   5.297  14.219  0.00  0.00    +0.000 C 
ATOM     15  C   UNL     1       7.024   4.666  14.485  0.00  0.00    +0.000 C 
ATOM     16  N   UNL     1       7.085   3.848  15.693  0.00  0.00    +0.000 NA
ATOM     17  C   UNL     1       7.265   4.586  16.955  0.00  0.00    +0.000 C 
ATOM     18  H   UNL     1       6.271   3.241  15.769  0.00  0.00    +0.000 HD
ENDBRANCH   5   7
BRANCH   1  20
ATOM     19  C   UNL     1       2.312  11.133  18.034  0.00  0.00    +0.000 C 
ATOM     20  C   UNL     1       1.131  10.366  18.526  0.00  0.00    +0.000 C 
ATOM     21  O   UNL     1      -0.029  10.751  18.311  0.00  0.00    +0.000 OA
ENDBRANCH   1  20
BRANCH   4  22
ATOM     22  O   UNL     1       1.769   5.334  21.208  0.00  0.00    +0.000 OA
BRANCH  22  23
ATOM     23  C   UNL     1       1.021   4.299  20.537  0.00  0.00    +0.000 C 
BRANCH  23  24
ATOM     24  C   UNL     1       1.817   3.329  19.677  0.00  0.00    +0.000 A 
ATOM     25  C   UNL     1       2.884   2.604  20.198  0.00  0.00    +0.000 A 
ATOM     26  C   UNL     1       3.662   1.854  19.315  0.00  0.00    +0.000 A 
ATOM     27  C   UNL     1       3.391   1.881  17.956  0.00  0.00    +0.000 A 
ATOM     28  C   UNL     1       2.316   2.630  17.536  0.00  0.00    +0.000 A 
ATOM     29  N   UNL     1       1.534   3.365  18.352  0.00  0.00    +0.000 NA
ENDBRANCH  23  24
ENDBRANCH  22  23
ENDBRANCH   4  22
TORSDOF 5
ENDMDL
MODEL 6
REMARK VINA RESULT:      -8.2      1.945      4.782
REMARK  Name = 
REMARK  6 active torsions:
REMARK  status: ('A' for Active; 'I' for Inactive)
REMARK    1  A    between atoms: C_1  and  C_2
REMARK    2  A    between atoms: C_2  and  C_4
REMARK    3  A    between atoms: C_7  and  O_8
REMARK    4  A    between atoms: O_8  and  C_9
REMARK    5  A    between atoms: C_9  and  C_10
REMARK    6  A    between atoms: C_16  and  C_17
REMARK                            x       y       z     vdW  Elec       q    Type
REMARK                         _______ _______ _______ _____ _____    ______ ____
ROOT
ATOM      1  C   UNL     1       2.474   3.603  19.235  0.00  0.00    +0.000 A 
ATOM      2  C   UNL     1       3.557   3.255  18.436  0.00  0.00    +0.000 A 
ATOM      3  C   UNL     1       4.180   4.227  17.636  0.00  0.00    +0.000 A 
ATOM      4  C   UNL     1       3.729   5.563  17.571  0.00  0.00    +0.000 A 
ATOM      5  C   UNL     1       2.668   5.948  18.422  0.00  0.00    +0.000 A 
ATOM      6  C   UNL     1       2.070   4.942  19.226  0.00  0.00    +0.000 A 
ENDROOT
BRANCH   5   7
ATOM      7  C   UNL     1       2.060   7.314  18.552  0.00  0.00    +0.000 A 
ATOM      8  C   UNL     1       2.209   8.368  17.642  0.00  0.00    +0.000 A 
ATOM      9  C   UNL     1       1.847   9.698  17.998  0.00  0.00    +0.000 A 
ATOM     10  C   UNL     1       1.320  10.037  19.260  0.00  0.00    +0.000 A 
ATOM     11  C   UNL     1       1.121   9.000  20.126  0.00  0.00    +0.000 A 
ATOM     12  C   UNL     1       1.470   7.666  19.776  0.00  0.00    +0.000 A 
ATOM     13  C   UNL     1       0.672   9.189  21.531  0.00  0.00    +0.000 C 
ATOM     14  C   UNL     1      -0.135  10.129  22.385  0.00  0.00    +0.000 C 
ATOM     15  C   UNL     1      -0.110  11.537  21.879  0.00  0.00    +0.000 C 
ATOM     16  N   UNL     1      -0.209  11.671  20.428  0.00  0.00    +0.000 NA
ATOM     17  C   UNL     1       1.043  11.458  19.681  0.00  0.00    +0.000 C 
ATOM     18  H   UNL     1      -0.935  11.065  20.051  0.00  0.00    +0.000 HD
ENDBRANCH   5   7
BRANCH   1  20
ATOM     19  C   UNL     1       1.696   2.766  21.561  0.00  0.00    +0.000 C 
ATOM     20  C   UNL     1       1.775   2.584  20.082  0.00  0.00    +0.000 C 
ATOM     21  O   UNL     1       1.251   1.611  19.518  0.00  0.00    +0.000 OA
ENDBRANCH   1  20
BRANCH   4  22
ATOM     22  O   UNL     1       4.266   6.480  16.685  0.00  0.00    +0.000 OA
BRANCH  22  23
ATOM     23  C   UNL     1       5.606   6.178  16.244  0.00  0.00    +0.000 C 
BRANCH  23  24
ATOM     24  C   UNL     1       6.744   6.704  17.106  0.00  0.00    +0.000 A 
ATOM     25  C   UNL     1       7.295   5.936  18.127  0.00  0.00    +0.000 A 
ATOM     26  C   UNL     1       8.226   6.541  18.973  0.00  0.00    +0.000 A 
ATOM     27  C   UNL     1       8.543   7.880  18.812  0.00  0.00    +0.000 A 
ATOM     28  C   UNL     1       7.943   8.557  17.776  0.00  0.00    +0.000 A 
ATOM     29  N   UNL     1       7.044   8.014  16.931  0.00  0.00    +0.000 NA
ENDBRANCH  23  24
ENDBRANCH  22  23
ENDBRANCH   4  22
TORSDOF 5
ENDMDL
MODEL 7
REMARK VINA RESULT:      -7.9      1.906      4.711
REMARK  Name = 
REMARK  6 active torsions:
REMARK  status: ('A' for Active; 'I' for Inactive)
REMARK    1  A    between atoms: C_1  and  C_2
REMARK    2  A    between atoms: C_2  and  C_4
REMARK    3  A    between atoms: C_7  and  O_8
REMARK    4  A    between atoms: O_8  and  C_9
REMARK    5  A    between atoms: C_9  and  C_10
REMARK    6  A    between atoms: C_16  and  C_17
REMARK                            x       y       z     vdW  Elec       q    Type
REMARK                         _______ _______ _______ _____ _____    ______ ____
ROOT
ATOM      1  C   UNL     1       3.111   3.411  20.238  0.00  0.00    +0.000 A 
ATOM      2  C   UNL     1       4.043   2.897  19.344  0.00  0.00    +0.000 A 
ATOM      3  C   UNL     1       4.439   3.656  18.230  0.00  0.00    +0.000 A 
ATOM      4  C   UNL     1       3.898   4.927  17.944  0.00  0.00    +0.000 A 
ATOM      5  C   UNL     1       2.995   5.490  18.873  0.00  0.00    +0.000 A 
ATOM      6  C   UNL     1       2.626   4.700  19.994  0.00  0.00    +0.000 A 
ENDROOT
BRANCH   5   7
ATOM      7  C   UNL     1       2.334   6.836  18.796  0.00  0.00    +0.000 A 
ATOM      8  C   UNL     1       2.442   7.742  17.735  0.00  0.00    +0.000 A 
ATOM      9  C   UNL     1       2.030   9.097  17.886  0.00  0.00    +0.000 A 
ATOM     10  C   UNL     1       1.491   9.605  19.084  0.00  0.00    +0.000 A 
ATOM     11  C   UNL     1       1.331   8.706  20.100  0.00  0.00    +0.000 A 
ATOM     12  C   UNL     1       1.731   7.349  19.956  0.00  0.00    +0.000 A 
ATOM     13  C   UNL     1       0.876   9.091  21.461  0.00  0.00    +0.000 C 
ATOM     14  C   UNL     1       0.033  10.119  22.167  0.00  0.00    +0.000 C 
ATOM     15  C   UNL     1       0.004  11.433  21.451  0.00  0.00    +0.000 C 
ATOM     16  N   UNL     1      -0.100  11.339  19.997  0.00  0.00    +0.000 NA
ATOM     17  C   UNL     1       1.159  11.063  19.284  0.00  0.00    +0.000 C 
ATOM     18  H   UNL     1      -0.802  10.655  19.722  0.00  0.00    +0.000 HD
ENDBRANCH   5   7
BRANCH   1  20
ATOM     19  C   UNL     1       1.219   2.649  21.837  0.00  0.00    +0.000 C 
ATOM     20  C   UNL     1       2.652   2.617  21.423  0.00  0.00    +0.000 C 
ATOM     21  O   UNL     1       3.486   1.921  22.023  0.00  0.00    +0.000 OA
ENDBRANCH   1  20
BRANCH   4  22
ATOM     22  O   UNL     1       4.197   5.609  16.777  0.00  0.00    +0.000 OA
BRANCH  22  23
ATOM     23  C   UNL     1       5.594   5.607  16.418  0.00  0.00    +0.000 C 
BRANCH  23  24
ATOM     24  C   UNL     1       6.524   6.442  17.286  0.00  0.00    +0.000 A 
ATOM     25  C   UNL     1       6.788   7.776  16.992  0.00  0.00    +0.000 A 
ATOM     26  C   UNL     1       7.768   8.431  17.739  0.00  0.00    +0.000 A 
ATOM     27  C   UNL     1       8.478   7.742  18.709  0.00  0.00    +0.000 A 
ATOM     28  C   UNL     1       8.146   6.424  18.926  0.00  0.00    +0.000 A 
ATOM     29  N   UNL     1       7.204   5.752  18.233  0.00  0.00    +0.000 NA
ENDBRANCH  23  24
ENDBRANCH  22  23
ENDBRANCH   4  22
TORSDOF 5
ENDMDL
MODEL 8
REMARK VINA RESULT:      -7.8      2.075      4.672
REMARK  Name = 
REMARK  6 active torsions:
REMARK  status: ('A' for Active; 'I' for Inactive)
REMARK    1  A    between atoms: C_1  and  C_2
REMARK    2  A    between atoms: C_2  and  C_4
REMARK    3  A    between atoms: C_7  and  O_8
REMARK    4  A    between atoms: O_8  and  C_9
REMARK    5  A    between atoms: C_9  and  C_10
REMARK    6  A    between atoms: C_16  and  C_17
REMARK                            x       y       z     vdW  Elec       q    Type
REMARK                         _______ _______ _______ _____ _____    ______ ____
ROOT
ATOM      1  C   UNL     1       2.704   3.705  19.704  0.00  0.00    +0.000 A 
ATOM      2  C   UNL     1       4.011   3.551  19.254  0.00  0.00    +0.000 A 
ATOM      3  C   UNL     1       4.718   4.661  18.763  0.00  0.00    +0.000 A 
ATOM      4  C   UNL     1       4.146   5.947  18.665  0.00  0.00    +0.000 A 
ATOM      5  C   UNL     1       2.840   6.133  19.173  0.00  0.00    +0.000 A 
ATOM      6  C   UNL     1       2.159   4.992  19.674  0.00  0.00    +0.000 A 
ENDROOT
BRANCH   5   7
ATOM      7  C   UNL     1       2.057   7.413  19.214  0.00  0.00    +0.000 A 
ATOM      8  C   UNL     1       2.039   8.395  18.216  0.00  0.00    +0.000 A 
ATOM      9  C   UNL     1       1.510   9.691  18.476  0.00  0.00    +0.000 A 
ATOM     10  C   UNL     1       0.974  10.064  19.724  0.00  0.00    +0.000 A 
ATOM     11  C   UNL     1       0.939   9.088  20.679  0.00  0.00    +0.000 A 
ATOM     12  C   UNL     1       1.456   7.787  20.426  0.00  0.00    +0.000 A 
ATOM     13  C   UNL     1       0.504   9.336  22.079  0.00  0.00    +0.000 C 
ATOM     14  C   UNL     1      -0.401  10.230  22.882  0.00  0.00    +0.000 C 
ATOM     15  C   UNL     1      -0.579  11.581  22.263  0.00  0.00    +0.000 C 
ATOM     16  N   UNL     1      -0.731  11.575  20.810  0.00  0.00    +0.000 NA
ATOM     17  C   UNL     1       0.518  11.467  20.038  0.00  0.00    +0.000 C 
ATOM     18  H   UNL     1      -1.379  10.848  20.510  0.00  0.00    +0.000 HD
ENDBRANCH   5   7
BRANCH   1  20
ATOM     19  C   UNL     1       1.524   2.466  21.651  0.00  0.00    +0.000 C 
ATOM     20  C   UNL     1       1.917   2.536  20.212  0.00  0.00    +0.000 C 
ATOM     21  O   UNL     1       1.585   1.654  19.405  0.00  0.00    +0.000 OA
ENDBRANCH   1  20
BRANCH   4  22
ATOM     22  O   UNL     1       4.804   7.003  18.061  0.00  0.00    +0.000 OA
BRANCH  22  23
ATOM     23  C   UNL     1       4.657   7.064  16.627  0.00  0.00    +0.000 C 
BRANCH  23  24
ATOM     24  C   UNL     1       5.465   6.063  15.814  0.00  0.00    +0.000 A 
ATOM     25  C   UNL     1       4.848   5.168  14.944  0.00  0.00    +0.000 A 
ATOM     26  C   UNL     1       5.635   4.180  14.352  0.00  0.00    +0.000 A 
ATOM     27  C   UNL     1       6.980   4.081  14.671  0.00  0.00    +0.000 A 
ATOM     28  C   UNL     1       7.499   5.009  15.544  0.00  0.00    +0.000 A 
ATOM     29  N   UNL     1       6.778   5.984  16.135  0.00  0.00    +0.000 NA
ENDBRANCH  23  24
ENDBRANCH  22  23
ENDBRANCH   4  22
TORSDOF 5
ENDMDL
MODEL 9
REMARK VINA RESULT:      -7.8      2.868      7.579
REMARK  Name = 
REMARK  6 active torsions:
REMARK  status: ('A' for Active; 'I' for Inactive)
REMARK    1  A    between atoms: C_1  and  C_2
REMARK    2  A    between atoms: C_2  and  C_4
REMARK    3  A    between atoms: C_7  and  O_8
REMARK    4  A    between atoms: O_8  and  C_9
REMARK    5  A    between atoms: C_9  and  C_10
REMARK    6  A    between atoms: C_16  and  C_17
REMARK                            x       y       z     vdW  Elec       q    Type
REMARK                         _______ _______ _______ _____ _____    ______ ____
ROOT
ATOM      1  C   UNL     1      -1.856  10.657  17.569  0.00  0.00    +0.000 A 
ATOM      2  C   UNL     1      -1.725  11.986  17.955  0.00  0.00    +0.000 A 
ATOM      3  C   UNL     1      -0.518  12.438  18.515  0.00  0.00    +0.000 A 
ATOM      4  C   UNL     1       0.582  11.585  18.745  0.00  0.00    +0.000 A 
ATOM      5  C   UNL     1       0.487  10.246  18.303  0.00  0.00    +0.000 A 
ATOM      6  C   UNL     1      -0.744   9.826  17.731  0.00  0.00    +0.000 A 
ENDROOT
BRANCH   5   7
ATOM      7  C   UNL     1       1.540   9.181  18.403  0.00  0.00    +0.000 A 
ATOM      8  C   UNL     1       2.590   8.979  17.499  0.00  0.00    +0.000 A 
ATOM      9  C   UNL     1       3.348   7.773  17.517  0.00  0.00    +0.000 A 
ATOM     10  C   UNL     1       3.103   6.728  18.429  0.00  0.00    +0.000 A 
ATOM     11  C   UNL     1       2.118   6.950  19.348  0.00  0.00    +0.000 A 
ATOM     12  C   UNL     1       1.361   8.154  19.345  0.00  0.00    +0.000 A 
ATOM     13  C   UNL     1       1.660   5.917  20.314  0.00  0.00    +0.000 C 
ATOM     14  C   UNL     1       2.159   4.709  21.060  0.00  0.00    +0.000 C 
ATOM     15  C   UNL     1       3.245   3.985  20.329  0.00  0.00    +0.000 C 
ATOM     16  N   UNL     1       4.229   4.846  19.680  0.00  0.00    +0.000 NA
ATOM     17  C   UNL     1       3.827   5.405  18.378  0.00  0.00    +0.000 C 
ATOM     18  H   UNL     1       4.522   5.602  20.297  0.00  0.00    +0.000 HD
ENDBRANCH   5   7
BRANCH   1  20
ATOM     19  C   UNL     1      -4.425  10.350  17.717  0.00  0.00    +0.000 C 
ATOM     20  C   UNL     1      -3.138  10.141  16.991  0.00  0.00    +0.000 C 
ATOM     21  O   UNL     1      -3.098   9.565  15.892  0.00  0.00    +0.000 OA
ENDBRANCH   1  20
BRANCH   4  22
ATOM     22  O   UNL     1       1.716  12.008  19.414  0.00  0.00    +0.000 OA
BRANCH  22  23
ATOM     23  C   UNL     1       1.504  12.363  20.796  0.00  0.00    +0.000 C 
BRANCH  23  24
ATOM     24  C   UNL     1       0.645  11.415  21.620  0.00  0.00    +0.000 A 
ATOM     25  C   UNL     1      -0.575  11.819  22.154  0.00  0.00    +0.000 A 
ATOM     26  C   UNL     1      -1.230  10.949  23.026  0.00  0.00    +0.000 A 
ATOM     27  C   UNL     1      -0.644   9.742  23.373  0.00  0.00    +0.000 A 
ATOM     28  C   UNL     1       0.566   9.432  22.796  0.00  0.00    +0.000 A 
ATOM     29  N   UNL     1       1.232  10.238  21.945  0.00  0.00    +0.000 NA
ENDBRANCH  23  24
ENDBRANCH  22  23
ENDBRANCH   4  22
TORSDOF 5
ENDMDL
