MODEL 1
REMARK VINA RESULT:      -5.6      0.000      0.000
REMARK  Name = 
REMARK  4 active torsions:
REMARK  status: ('A' for Active; 'I' for Inactive)
REMARK    1  A    between atoms: C_1  and  N_2
REMARK    2  A    between atoms: N_2  and  C_3
REMARK    3  A    between atoms: N_2  and  C_10
REMARK    4  A    between atoms: C_3  and  C_4
REMARK                            x       y       z     vdW  Elec       q    Type
REMARK                         _______ _______ _______ _____ _____    ______ ____
ROOT
ATOM      1  C   UNL     1       3.532   2.964  17.958  0.00  0.00    +0.000 C 
ENDROOT
BRANCH   1   2
ATOM      2  C   UNL     1       4.073   4.223  17.312  0.00  0.00    +0.000 A 
ATOM      3  C   UNL     1       4.904   4.156  16.184  0.00  0.00    +0.000 A 
ATOM      4  C   UNL     1       5.414   5.322  15.611  0.00  0.00    +0.000 A 
ATOM      5  C   UNL     1       5.112   6.564  16.166  0.00  0.00    +0.000 A 
ATOM      6  C   UNL     1       4.291   6.646  17.289  0.00  0.00    +0.000 A 
ATOM      7  C   UNL     1       3.770   5.483  17.855  0.00  0.00    +0.000 A 
ENDBRANCH   1   2
BRANCH   1   9
ATOM      8  C   UNL     1       4.286   2.281  20.130  0.00  0.00    +0.000 C 
ATOM      9  N   UNL     1       3.289   3.082  19.413  0.00  0.00    +0.000 NA
BRANCH   9  10
ATOM     10  C   UNL     1       1.915   2.696  19.799  0.00  0.00    +0.000 C 
ATOM     11  C   UNL     1       1.465   2.768  21.236  0.00  0.00    +0.000 C 
ATOM     12  C   UNL     1       0.976   3.785  20.254  0.00  0.00    +0.000 C 
ENDBRANCH   9  10
ENDBRANCH   1   9
TORSDOF 3
ENDMDL
MODEL 2
REMARK VINA RESULT:      -5.6      0.074      1.396
REMARK  Name = 
REMARK  4 active torsions:
REMARK  status: ('A' for Active; 'I' for Inactive)
REMARK    1  A    between atoms: C_1  and  N_2
REMARK    2  A    between atoms: N_2  and  C_3
REMARK    3  A    between atoms: N_2  and  C_10
REMARK    4  A    between atoms: C_3  and  C_4
REMARK                            x       y       z     vdW  Elec       q    Type
REMARK                         _______ _______ _______ _____ _____    ______ ____
ROOT
ATOM      1  C   UNL     1       3.457   2.996  18.004  0.00  0.00    +0.000 C 
ENDROOT
BRANCH   1   2
ATOM      2  C   UNL     1       4.044   4.244  17.377  0.00  0.00    +0.000 A 
ATOM      3  C   UNL     1       3.736   5.517  17.877  0.00  0.00    +0.000 A 
ATOM      4  C   UNL     1       4.265   6.660  17.276  0.00  0.00    +0.000 A 
ATOM      5  C   UNL     1       5.095   6.545  16.163  0.00  0.00    +0.000 A 
ATOM      6  C   UNL     1       5.407   5.286  15.652  0.00  0.00    +0.000 A 
ATOM      7  C   UNL     1       4.889   4.142  16.259  0.00  0.00    +0.000 A 
ENDBRANCH   1   2
BRANCH   1   9
ATOM      8  C   UNL     1       4.293   2.245  20.123  0.00  0.00    +0.000 C 
ATOM      9  N   UNL     1       3.277   3.078  19.471  0.00  0.00    +0.000 NA
BRANCH   9  10
ATOM     10  C   UNL     1       1.916   2.698  19.905  0.00  0.00    +0.000 C 
ATOM     11  C   UNL     1       1.493   2.842  21.344  0.00  0.00    +0.000 C 
ATOM     12  C   UNL     1       0.973   3.799  20.319  0.00  0.00    +0.000 C 
ENDBRANCH   9  10
ENDBRANCH   1   9
TORSDOF 3
ENDMDL
MODEL 3
REMARK VINA RESULT:      -5.4      1.726      5.146
REMARK  Name = 
REMARK  4 active torsions:
REMARK  status: ('A' for Active; 'I' for Inactive)
REMARK    1  A    between atoms: C_1  and  N_2
REMARK    2  A    between atoms: N_2  and  C_3
REMARK    3  A    between atoms: N_2  and  C_10
REMARK    4  A    between atoms: C_3  and  C_4
REMARK                            x       y       z     vdW  Elec       q    Type
REMARK                         _______ _______ _______ _____ _____    ______ ____
ROOT
ATOM      1  C   UNL     1       3.591   5.597  17.833  0.00  0.00    +0.000 C 
ENDROOT
BRANCH   1   2
ATOM      2  C   UNL     1       2.573   4.737  18.555  0.00  0.00    +0.000 A 
ATOM      3  C   UNL     1       2.167   5.043  19.861  0.00  0.00    +0.000 A 
ATOM      4  C   UNL     1       1.245   4.230  20.524  0.00  0.00    +0.000 A 
ATOM      5  C   UNL     1       0.730   3.099  19.893  0.00  0.00    +0.000 A 
ATOM      6  C   UNL     1       1.127   2.781  18.595  0.00  0.00    +0.000 A 
ATOM      7  C   UNL     1       2.039   3.599  17.929  0.00  0.00    +0.000 A 
ENDBRANCH   1   2
BRANCH   1   9
ATOM      8  C   UNL     1       5.791   5.044  18.612  0.00  0.00    +0.000 C 
ATOM      9  N   UNL     1       4.851   4.897  17.496  0.00  0.00    +0.000 NA
BRANCH   9  10
ATOM     10  C   UNL     1       5.448   5.367  16.228  0.00  0.00    +0.000 C 
ATOM     11  C   UNL     1       6.756   4.806  15.733  0.00  0.00    +0.000 C 
ATOM     12  C   UNL     1       5.479   4.409  15.064  0.00  0.00    +0.000 C 
ENDBRANCH   9  10
ENDBRANCH   1   9
TORSDOF 3
ENDMDL
MODEL 4
REMARK VINA RESULT:      -5.4      1.726      4.986
REMARK  Name = 
REMARK  4 active torsions:
REMARK  status: ('A' for Active; 'I' for Inactive)
REMARK    1  A    between atoms: C_1  and  N_2
REMARK    2  A    between atoms: N_2  and  C_3
REMARK    3  A    between atoms: N_2  and  C_10
REMARK    4  A    between atoms: C_3  and  C_4
REMARK                            x       y       z     vdW  Elec       q    Type
REMARK                         _______ _______ _______ _____ _____    ______ ____
ROOT
ATOM      1  C   UNL     1       3.590   5.667  17.858  0.00  0.00    +0.000 C 
ENDROOT
BRANCH   1   2
ATOM      2  C   UNL     1       2.610   4.741  18.548  0.00  0.00    +0.000 A 
ATOM      3  C   UNL     1       2.104   3.609  17.894  0.00  0.00    +0.000 A 
ATOM      4  C   UNL     1       1.184   2.775  18.534  0.00  0.00    +0.000 A 
ATOM      5  C   UNL     1       0.752   3.071  19.824  0.00  0.00    +0.000 A 
ATOM      6  C   UNL     1       1.244   4.195  20.486  0.00  0.00    +0.000 A 
ATOM      7  C   UNL     1       2.172   5.022  19.853  0.00  0.00    +0.000 A 
ENDBRANCH   1   2
BRANCH   1   9
ATOM      8  C   UNL     1       5.858   5.407  18.594  0.00  0.00    +0.000 C 
ATOM      9  N   UNL     1       4.898   5.049  17.545  0.00  0.00    +0.000 NA
BRANCH   9  10
ATOM     10  C   UNL     1       5.405   5.422  16.207  0.00  0.00    +0.000 C 
ATOM     11  C   UNL     1       6.719   4.887  15.700  0.00  0.00    +0.000 C 
ATOM     12  C   UNL     1       5.437   4.356  15.141  0.00  0.00    +0.000 C 
ENDBRANCH   9  10
ENDBRANCH   1   9
TORSDOF 3
ENDMDL
MODEL 5
REMARK VINA RESULT:      -5.3      2.072      5.011
REMARK  Name = 
REMARK  4 active torsions:
REMARK  status: ('A' for Active; 'I' for Inactive)
REMARK    1  A    between atoms: C_1  and  N_2
REMARK    2  A    between atoms: N_2  and  C_3
REMARK    3  A    between atoms: N_2  and  C_10
REMARK    4  A    between atoms: C_3  and  C_4
REMARK                            x       y       z     vdW  Elec       q    Type
REMARK                         _______ _______ _______ _____ _____    ______ ____
ROOT
ATOM      1  C   UNL     1       5.388   4.866  18.262  0.00  0.00    +0.000 C 
ENDROOT
BRANCH   1   2
ATOM      2  C   UNL     1       4.006   4.253  18.169  0.00  0.00    +0.000 A 
ATOM      3  C   UNL     1       2.874   5.054  17.960  0.00  0.00    +0.000 A 
ATOM      4  C   UNL     1       1.603   4.479  17.897  0.00  0.00    +0.000 A 
ATOM      5  C   UNL     1       1.449   3.103  18.057  0.00  0.00    +0.000 A 
ATOM      6  C   UNL     1       2.565   2.295  18.269  0.00  0.00    +0.000 A 
ATOM      7  C   UNL     1       3.836   2.867  18.319  0.00  0.00    +0.000 A 
ENDBRANCH   1   2
BRANCH   1   9
ATOM      8  C   UNL     1       7.701   4.616  17.677  0.00  0.00    +0.000 C 
ATOM      9  N   UNL     1       6.325   4.421  17.207  0.00  0.00    +0.000 NA
BRANCH   9  10
ATOM     10  C   UNL     1       6.101   5.101  15.914  0.00  0.00    +0.000 C 
ATOM     11  C   UNL     1       6.976   4.809  14.723  0.00  0.00    +0.000 C 
ATOM     12  C   UNL     1       5.578   4.278  14.764  0.00  0.00    +0.000 C 
ENDBRANCH   9  10
ENDBRANCH   1   9
TORSDOF 3
ENDMDL
MODEL 6
REMARK VINA RESULT:      -5.3      1.169      4.769
REMARK  Name = 
REMARK  4 active torsions:
REMARK  status: ('A' for Active; 'I' for Inactive)
REMARK    1  A    between atoms: C_1  and  N_2
REMARK    2  A    between atoms: N_2  and  C_3
REMARK    3  A    between atoms: N_2  and  C_10
REMARK    4  A    between atoms: C_3  and  C_4
REMARK                            x       y       z     vdW  Elec       q    Type
REMARK                         _______ _______ _______ _____ _____    ______ ____
ROOT
ATOM      1  C   UNL     1       4.062   3.036  17.857  0.00  0.00    +0.000 C 
ENDROOT
BRANCH   1   2
ATOM      2  C   UNL     1       3.052   2.976  18.985  0.00  0.00    +0.000 A 
ATOM      3  C   UNL     1       1.682   3.139  18.737  0.00  0.00    +0.000 A 
ATOM      4  C   UNL     1       0.764   3.105  19.788  0.00  0.00    +0.000 A 
ATOM      5  C   UNL     1       1.206   2.922  21.097  0.00  0.00    +0.000 A 
ATOM      6  C   UNL     1       2.566   2.763  21.359  0.00  0.00    +0.000 A 
ATOM      7  C   UNL     1       3.482   2.784  20.309  0.00  0.00    +0.000 A 
ENDBRANCH   1   2
BRANCH   1   9
ATOM      8  C   UNL     1       5.005   4.201  15.985  0.00  0.00    +0.000 C 
ATOM      9  N   UNL     1       4.045   4.301  17.089  0.00  0.00    +0.000 NA
BRANCH   9  10
ATOM     10  C   UNL     1       4.318   5.486  17.930  0.00  0.00    +0.000 C 
ATOM     11  C   UNL     1       4.484   6.851  17.313  0.00  0.00    +0.000 C 
ATOM     12  C   UNL     1       3.231   6.524  18.062  0.00  0.00    +0.000 C 
ENDBRANCH   9  10
ENDBRANCH   1   9
TORSDOF 3
ENDMDL
MODEL 7
REMARK VINA RESULT:      -5.3      1.172      4.778
REMARK  Name = 
REMARK  4 active torsions:
REMARK  status: ('A' for Active; 'I' for Inactive)
REMARK    1  A    between atoms: C_1  and  N_2
REMARK    2  A    between atoms: N_2  and  C_3
REMARK    3  A    between atoms: N_2  and  C_10
REMARK    4  A    between atoms: C_3  and  C_4
REMARK                            x       y       z     vdW  Elec       q    Type
REMARK                         _______ _______ _______ _____ _____    ______ ____
ROOT
ATOM      1  C   UNL     1       4.055   3.086  17.856  0.00  0.00    +0.000 C 
ENDROOT
BRANCH   1   2
ATOM      2  C   UNL     1       3.061   3.040  18.998  0.00  0.00    +0.000 A 
ATOM      3  C   UNL     1       3.487   2.838  20.319  0.00  0.00    +0.000 A 
ATOM      4  C   UNL     1       2.559   2.776  21.360  0.00  0.00    +0.000 A 
ATOM      5  C   UNL     1       1.198   2.900  21.091  0.00  0.00    +0.000 A 
ATOM      6  C   UNL     1       0.758   3.097  19.783  0.00  0.00    +0.000 A 
ATOM      7  C   UNL     1       1.685   3.172  18.744  0.00  0.00    +0.000 A 
ENDBRANCH   1   2
BRANCH   1   9
ATOM      8  C   UNL     1       5.004   4.248  15.985  0.00  0.00    +0.000 C 
ATOM      9  N   UNL     1       4.037   4.348  17.083  0.00  0.00    +0.000 NA
BRANCH   9  10
ATOM     10  C   UNL     1       4.299   5.538  17.919  0.00  0.00    +0.000 C 
ATOM     11  C   UNL     1       4.421   6.908  17.302  0.00  0.00    +0.000 C 
ATOM     12  C   UNL     1       3.191   6.550  18.076  0.00  0.00    +0.000 C 
ENDBRANCH   9  10
ENDBRANCH   1   9
TORSDOF 3
ENDMDL
MODEL 8
REMARK VINA RESULT:      -5.2      2.064      5.024
REMARK  Name = 
REMARK  4 active torsions:
REMARK  status: ('A' for Active; 'I' for Inactive)
REMARK    1  A    between atoms: C_1  and  N_2
REMARK    2  A    between atoms: N_2  and  C_3
REMARK    3  A    between atoms: N_2  and  C_10
REMARK    4  A    between atoms: C_3  and  C_4
REMARK                            x       y       z     vdW  Elec       q    Type
REMARK                         _______ _______ _______ _____ _____    ______ ____
ROOT
ATOM      1  C   UNL     1       3.748   4.804  17.295  0.00  0.00    +0.000 C 
ENDROOT
BRANCH   1   2
ATOM      2  C   UNL     1       2.758   4.506  18.402  0.00  0.00    +0.000 A 
ATOM      3  C   UNL     1       2.680   5.321  19.540  0.00  0.00    +0.000 A 
ATOM      4  C   UNL     1       1.778   5.022  20.564  0.00  0.00    +0.000 A 
ATOM      5  C   UNL     1       0.957   3.901  20.467  0.00  0.00    +0.000 A 
ATOM      6  C   UNL     1       1.026   3.079  19.343  0.00  0.00    +0.000 A 
ATOM      7  C   UNL     1       1.917   3.384  18.314  0.00  0.00    +0.000 A 
ENDBRANCH   1   2
BRANCH   1   9
ATOM      8  C   UNL     1       4.976   6.729  16.561  0.00  0.00    +0.000 C 
ATOM      9  N   UNL     1       4.799   5.778  17.663  0.00  0.00    +0.000 NA
BRANCH   9  10
ATOM     10  C   UNL     1       6.080   5.133  18.023  0.00  0.00    +0.000 C 
ATOM     11  C   UNL     1       7.347   5.941  18.146  0.00  0.00    +0.000 C 
ATOM     12  C   UNL     1       6.667   5.435  19.379  0.00  0.00    +0.000 C 
ENDBRANCH   9  10
ENDBRANCH   1   9
TORSDOF 3
ENDMDL
MODEL 9
REMARK VINA RESULT:      -5.2      2.038      2.485
REMARK  Name = 
REMARK  4 active torsions:
REMARK  status: ('A' for Active; 'I' for Inactive)
REMARK    1  A    between atoms: C_1  and  N_2
REMARK    2  A    between atoms: N_2  and  C_3
REMARK    3  A    between atoms: N_2  and  C_10
REMARK    4  A    between atoms: C_3  and  C_4
REMARK                            x       y       z     vdW  Elec       q    Type
REMARK                         _______ _______ _______ _____ _____    ______ ____
ROOT
ATOM      1  C   UNL     1       3.857   5.004  17.584  0.00  0.00    +0.000 C 
ENDROOT
BRANCH   1   2
ATOM      2  C   UNL     1       5.221   5.580  17.904  0.00  0.00    +0.000 A 
ATOM      3  C   UNL     1       5.795   6.570  17.094  0.00  0.00    +0.000 A 
ATOM      4  C   UNL     1       7.063   7.076  17.387  0.00  0.00    +0.000 A 
ATOM      5  C   UNL     1       7.774   6.590  18.482  0.00  0.00    +0.000 A 
ATOM      6  C   UNL     1       7.218   5.603  19.294  0.00  0.00    +0.000 A 
ATOM      7  C   UNL     1       5.947   5.106  19.010  0.00  0.00    +0.000 A 
ENDBRANCH   1   2
BRANCH   1   9
ATOM      8  C   UNL     1       3.093   2.814  18.192  0.00  0.00    +0.000 C 
ATOM      9  N   UNL     1       3.270   4.189  18.670  0.00  0.00    +0.000 NA
BRANCH   9  10
ATOM     10  C   UNL     1       1.999   4.744  19.183  0.00  0.00    +0.000 C 
ATOM     11  C   UNL     1       1.158   3.973  20.168  0.00  0.00    +0.000 C 
ATOM     12  C   UNL     1       1.942   5.159  20.631  0.00  0.00    +0.000 C 
ENDBRANCH   9  10
ENDBRANCH   1   9
TORSDOF 3
ENDMDL
