MODEL 1
REMARK VINA RESULT:      -8.5      0.000      0.000
REMARK  Name = 
REMARK  9 active torsions:
REMARK  status: ('A' for Active; 'I' for Inactive)
REMARK    1  A    between atoms: C_1  and  C_2
REMARK    2  A    between atoms: C_2  and  C_3
REMARK    3  A    between atoms: C_3  and  O_4
REMARK    4  A    between atoms: O_4  and  C_5
REMARK    5  A    between atoms: C_8  and  C_9
REMARK    6  A    between atoms: N_23  and  C_24
REMARK    7  A    between atoms: C_24  and  C_25
REMARK    8  A    between atoms: C_25  and  C_26
REMARK    9  A    between atoms: C_26  and  N_27
REMARK                            x       y       z     vdW  Elec       q    Type
REMARK                         _______ _______ _______ _____ _____    ______ ____
ROOT
ATOM      1  C   UNL     1       4.578   4.997  18.660  0.00  0.00    +0.000 C 
ATOM      2  C   UNL     1       4.535   3.167  18.144  0.00  0.00    +0.000 A 
ATOM      3  C   UNL     1       3.086   2.910  17.498  0.00  0.00    +0.000 A 
ATOM      4  O   UNL     1       2.394   1.850  18.154  0.00  0.00    +0.000 OA
ATOM      5  C   UNL     1       2.268   2.409  19.407  0.00  0.00    +0.000 A 
ATOM      6  C   UNL     1       1.793   1.795  20.540  0.00  0.00    +0.000 A 
ATOM      7  C   UNL     1       1.767   2.541  21.719  0.00  0.00    +0.000 A 
ATOM      8  C   UNL     1       2.140   3.894  21.724  0.00  0.00    +0.000 A 
ATOM      9  C   UNL     1       2.632   4.500  20.574  0.00  0.00    +0.000 A 
ATOM     10  C   UNL     1       2.770   3.736  19.394  0.00  0.00    +0.000 A 
ATOM     11  C   UNL     1       3.715   3.994  17.635  0.00  0.00    +0.000 A 
ATOM     12  O   UNL     1       4.054   4.545  16.565  0.00  0.00    +0.000 OA
ATOM     13  C   UNL     1       1.917   4.521  17.411  0.00  0.00    +0.000 C 
ATOM     14  O   UNL     1       0.738   4.566  17.130  0.00  0.00    +0.000 OA
ATOM     15  N   UNL     1       2.939   5.728  18.134  0.00  0.00    +0.000 N 
ENDROOT
BRANCH   1  19
ATOM     16  C   UNL     1       7.882   7.624  17.986  0.00  0.00    +0.000 A 
ATOM     17  C   UNL     1       7.991   6.565  18.896  0.00  0.00    +0.000 A 
ATOM     18  C   UNL     1       6.963   5.660  19.054  0.00  0.00    +0.000 A 
ATOM     19  C   UNL     1       5.800   5.807  18.309  0.00  0.00    +0.000 A 
ATOM     20  C   UNL     1       5.687   6.862  17.389  0.00  0.00    +0.000 A 
ATOM     21  C   UNL     1       6.730   7.765  17.222  0.00  0.00    +0.000 A 
BRANCH  16  22
ATOM     22  O   UNL     1       8.846   8.579  17.792  0.00  0.00    +0.000 OA
BRANCH  22  23
ATOM     23  C   UNL     1       8.421   9.868  18.216  0.00  0.00    +0.000 C 
BRANCH  23  25
ATOM     24  C   UNL     1      10.278  11.471  18.100  0.00  0.00    +0.000 C 
ATOM     25  C   UNL     1       9.497  10.553  19.024  0.00  0.00    +0.000 C 
ENDBRANCH  23  25
ENDBRANCH  22  23
ENDBRANCH  16  22
ENDBRANCH   1  19
BRANCH  15  26
ATOM     26  C   UNL     1       2.375   6.974  18.619  0.00  0.00    +0.000 C 
BRANCH  26  27
ATOM     27  C   UNL     1       2.331   8.130  17.626  0.00  0.00    +0.000 C 
BRANCH  27  28
ATOM     28  C   UNL     1       1.894   9.444  18.278  0.00  0.00    +0.000 C 
BRANCH  28  29
ATOM     29  N   UNL     1       0.619   9.354  19.013  0.00  0.00    +0.000 NA
ATOM     30  C   UNL     1      -0.384  10.258  18.390  0.00  0.00    +0.000 C 
ATOM     31  C   UNL     1      -0.126  11.754  18.650  0.00  0.00    +0.000 C 
ATOM     32  O   UNL     1      -0.047  12.030  20.055  0.00  0.00    +0.000 OA
ATOM     33  C   UNL     1       0.982  11.241  20.666  0.00  0.00    +0.000 C 
ATOM     34  C   UNL     1       0.739   9.739  20.437  0.00  0.00    +0.000 C 
ENDBRANCH  28  29
ENDBRANCH  27  28
ENDBRANCH  26  27
ENDBRANCH  15  26
TORSDOF 8
ENDMDL
MODEL 2
REMARK VINA RESULT:      -8.3      0.546      1.004
REMARK  Name = 
REMARK  9 active torsions:
REMARK  status: ('A' for Active; 'I' for Inactive)
REMARK    1  A    between atoms: C_1  and  C_2
REMARK    2  A    between atoms: C_2  and  C_3
REMARK    3  A    between atoms: C_3  and  O_4
REMARK    4  A    between atoms: O_4  and  C_5
REMARK    5  A    between atoms: C_8  and  C_9
REMARK    6  A    between atoms: N_23  and  C_24
REMARK    7  A    between atoms: C_24  and  C_25
REMARK    8  A    between atoms: C_25  and  C_26
REMARK    9  A    between atoms: C_26  and  N_27
REMARK                            x       y       z     vdW  Elec       q    Type
REMARK                         _______ _______ _______ _____ _____    ______ ____
ROOT
ATOM      1  C   UNL     1       4.542   4.989  18.688  0.00  0.00    +0.000 C 
ATOM      2  C   UNL     1       4.475   3.169  18.139  0.00  0.00    +0.000 A 
ATOM      3  C   UNL     1       3.022   2.942  17.491  0.00  0.00    +0.000 A 
ATOM      4  O   UNL     1       2.319   1.878  18.129  0.00  0.00    +0.000 OA
ATOM      5  C   UNL     1       2.202   2.416  19.392  0.00  0.00    +0.000 A 
ATOM      6  C   UNL     1       1.722   1.786  20.515  0.00  0.00    +0.000 A 
ATOM      7  C   UNL     1       1.708   2.511  21.708  0.00  0.00    +0.000 A 
ATOM      8  C   UNL     1       2.097   3.859  21.737  0.00  0.00    +0.000 A 
ATOM      9  C   UNL     1       2.594   4.480  20.597  0.00  0.00    +0.000 A 
ATOM     10  C   UNL     1       2.720   3.736  19.403  0.00  0.00    +0.000 A 
ATOM     11  C   UNL     1       3.665   4.015  17.647  0.00  0.00    +0.000 A 
ATOM     12  O   UNL     1       4.009   4.581  16.586  0.00  0.00    +0.000 OA
ATOM     13  C   UNL     1       1.872   4.568  17.437  0.00  0.00    +0.000 C 
ATOM     14  O   UNL     1       0.694   4.632  17.159  0.00  0.00    +0.000 OA
ATOM     15  N   UNL     1       2.910   5.749  18.179  0.00  0.00    +0.000 N 
ENDROOT
BRANCH   1  19
ATOM     16  C   UNL     1       7.875   7.589  18.053  0.00  0.00    +0.000 A 
ATOM     17  C   UNL     1       7.971   6.516  18.948  0.00  0.00    +0.000 A 
ATOM     18  C   UNL     1       6.933   5.620  19.093  0.00  0.00    +0.000 A 
ATOM     19  C   UNL     1       5.773   5.790  18.349  0.00  0.00    +0.000 A 
ATOM     20  C   UNL     1       5.672   6.860  17.445  0.00  0.00    +0.000 A 
ATOM     21  C   UNL     1       6.724   7.753  17.291  0.00  0.00    +0.000 A 
BRANCH  16  22
ATOM     22  O   UNL     1       8.849   8.536  17.874  0.00  0.00    +0.000 OA
BRANCH  22  23
ATOM     23  C   UNL     1       8.349   9.859  18.020  0.00  0.00    +0.000 C 
BRANCH  23  25
ATOM     24  C   UNL     1       9.564  10.798  19.935  0.00  0.00    +0.000 C 
ATOM     25  C   UNL     1       9.450  10.811  18.422  0.00  0.00    +0.000 C 
ENDBRANCH  23  25
ENDBRANCH  22  23
ENDBRANCH  16  22
ENDBRANCH   1  19
BRANCH  15  26
ATOM     26  C   UNL     1       2.362   6.992  18.689  0.00  0.00    +0.000 C 
BRANCH  26  27
ATOM     27  C   UNL     1       2.502   8.214  17.788  0.00  0.00    +0.000 C 
BRANCH  27  28
ATOM     28  C   UNL     1       1.330   9.186  17.934  0.00  0.00    +0.000 C 
BRANCH  28  29
ATOM     29  N   UNL     1       1.548  10.241  18.941  0.00  0.00    +0.000 NA
ATOM     30  C   UNL     1       0.942   9.832  20.236  0.00  0.00    +0.000 C 
ATOM     31  C   UNL     1      -0.598   9.877  20.250  0.00  0.00    +0.000 C 
ATOM     32  O   UNL     1      -1.082  11.178  19.892  0.00  0.00    +0.000 OA
ATOM     33  C   UNL     1      -0.591  11.559  18.599  0.00  0.00    +0.000 C 
ATOM     34  C   UNL     1       0.947  11.541  18.563  0.00  0.00    +0.000 C 
ENDBRANCH  28  29
ENDBRANCH  27  28
ENDBRANCH  26  27
ENDBRANCH  15  26
TORSDOF 8
ENDMDL
MODEL 3
REMARK VINA RESULT:      -7.7      0.900      1.080
REMARK  Name = 
REMARK  9 active torsions:
REMARK  status: ('A' for Active; 'I' for Inactive)
REMARK    1  A    between atoms: C_1  and  C_2
REMARK    2  A    between atoms: C_2  and  C_3
REMARK    3  A    between atoms: C_3  and  O_4
REMARK    4  A    between atoms: O_4  and  C_5
REMARK    5  A    between atoms: C_8  and  C_9
REMARK    6  A    between atoms: N_23  and  C_24
REMARK    7  A    between atoms: C_24  and  C_25
REMARK    8  A    between atoms: C_25  and  C_26
REMARK    9  A    between atoms: C_26  and  N_27
REMARK                            x       y       z     vdW  Elec       q    Type
REMARK                         _______ _______ _______ _____ _____    ______ ____
ROOT
ATOM      1  C   UNL     1       4.600   5.012  18.664  0.00  0.00    +0.000 C 
ATOM      2  C   UNL     1       4.783   3.123  18.535  0.00  0.00    +0.000 A 
ATOM      3  C   UNL     1       3.433   2.581  17.851  0.00  0.00    +0.000 A 
ATOM      4  O   UNL     1       2.788   1.598  18.659  0.00  0.00    +0.000 OA
ATOM      5  C   UNL     1       2.490   2.377  19.757  0.00  0.00    +0.000 A 
ATOM      6  C   UNL     1       1.971   1.948  20.955  0.00  0.00    +0.000 A 
ATOM      7  C   UNL     1       1.761   2.905  21.949  0.00  0.00    +0.000 A 
ATOM      8  C   UNL     1       2.000   4.266  21.702  0.00  0.00    +0.000 A 
ATOM      9  C   UNL     1       2.538   4.684  20.490  0.00  0.00    +0.000 A 
ATOM     10  C   UNL     1       2.860   3.723  19.508  0.00  0.00    +0.000 A 
ATOM     11  C   UNL     1       3.939   3.734  17.807  0.00  0.00    +0.000 A 
ATOM     12  O   UNL     1       4.324   4.098  16.675  0.00  0.00    +0.000 OA
ATOM     13  C   UNL     1       2.128   3.998  17.348  0.00  0.00    +0.000 C 
ATOM     14  O   UNL     1       0.983   3.852  16.978  0.00  0.00    +0.000 OA
ATOM     15  N   UNL     1       2.955   5.433  17.879  0.00  0.00    +0.000 N 
ENDROOT
BRANCH   1  19
ATOM     16  C   UNL     1       7.747   7.772  17.801  0.00  0.00    +0.000 A 
ATOM     17  C   UNL     1       7.949   6.728  18.710  0.00  0.00    +0.000 A 
ATOM     18  C   UNL     1       6.971   5.780  18.928  0.00  0.00    +0.000 A 
ATOM     19  C   UNL     1       5.766   5.871  18.244  0.00  0.00    +0.000 A 
ATOM     20  C   UNL     1       5.559   6.912  17.325  0.00  0.00    +0.000 A 
ATOM     21  C   UNL     1       6.551   7.858  17.097  0.00  0.00    +0.000 A 
BRANCH  16  22
ATOM     22  O   UNL     1       8.657   8.766  17.551  0.00  0.00    +0.000 OA
BRANCH  22  23
ATOM     23  C   UNL     1       8.895   9.580  18.693  0.00  0.00    +0.000 C 
BRANCH  23  25
ATOM     24  C   UNL     1      10.511  11.385  19.096  0.00  0.00    +0.000 C 
ATOM     25  C   UNL     1       9.294  10.978  18.285  0.00  0.00    +0.000 C 
ENDBRANCH  23  25
ENDBRANCH  22  23
ENDBRANCH  16  22
ENDBRANCH   1  19
BRANCH  15  26
ATOM     26  C   UNL     1       2.229   6.677  18.054  0.00  0.00    +0.000 C 
BRANCH  26  27
ATOM     27  C   UNL     1       2.490   7.437  19.351  0.00  0.00    +0.000 C 
BRANCH  27  28
ATOM     28  C   UNL     1       1.841   8.821  19.357  0.00  0.00    +0.000 C 
BRANCH  28  29
ATOM     29  N   UNL     1       0.515   8.859  20.002  0.00  0.00    +0.000 NA
ATOM     30  C   UNL     1       0.006  10.256  20.021  0.00  0.00    +0.000 C 
ATOM     31  C   UNL     1       0.726  11.172  21.028  0.00  0.00    +0.000 C 
ATOM     32  O   UNL     1       0.672  10.630  22.354  0.00  0.00    +0.000 OA
ATOM     33  C   UNL     1       1.247   9.317  22.385  0.00  0.00    +0.000 C 
ATOM     34  C   UNL     1       0.533   8.375  21.401  0.00  0.00    +0.000 C 
ENDBRANCH  28  29
ENDBRANCH  27  28
ENDBRANCH  26  27
ENDBRANCH  15  26
TORSDOF 8
ENDMDL
MODEL 4
REMARK VINA RESULT:      -7.7      1.002      1.450
REMARK  Name = 
REMARK  9 active torsions:
REMARK  status: ('A' for Active; 'I' for Inactive)
REMARK    1  A    between atoms: C_1  and  C_2
REMARK    2  A    between atoms: C_2  and  C_3
REMARK    3  A    between atoms: C_3  and  O_4
REMARK    4  A    between atoms: O_4  and  C_5
REMARK    5  A    between atoms: C_8  and  C_9
REMARK    6  A    between atoms: N_23  and  C_24
REMARK    7  A    between atoms: C_24  and  C_25
REMARK    8  A    between atoms: C_25  and  C_26
REMARK    9  A    between atoms: C_26  and  N_27
REMARK                            x       y       z     vdW  Elec       q    Type
REMARK                         _______ _______ _______ _____ _____    ______ ____
ROOT
ATOM      1  C   UNL     1       4.565   4.987  18.665  0.00  0.00    +0.000 C 
ATOM      2  C   UNL     1       4.612   3.123  18.290  0.00  0.00    +0.000 A 
ATOM      3  C   UNL     1       3.193   2.755  17.631  0.00  0.00    +0.000 A 
ATOM      4  O   UNL     1       2.529   1.718  18.350  0.00  0.00    +0.000 OA
ATOM      5  C   UNL     1       2.346   2.365  19.553  0.00  0.00    +0.000 A 
ATOM      6  C   UNL     1       1.866   1.818  20.718  0.00  0.00    +0.000 A 
ATOM      7  C   UNL     1       1.778   2.649  21.836  0.00  0.00    +0.000 A 
ATOM      8  C   UNL     1       2.093   4.014  21.746  0.00  0.00    +0.000 A 
ATOM      9  C   UNL     1       2.591   4.551  20.564  0.00  0.00    +0.000 A 
ATOM     10  C   UNL     1       2.792   3.707  19.451  0.00  0.00    +0.000 A 
ATOM     11  C   UNL     1       3.773   3.873  17.700  0.00  0.00    +0.000 A 
ATOM     12  O   UNL     1       4.118   4.355  16.599  0.00  0.00    +0.000 OA
ATOM     13  C   UNL     1       1.961   4.302  17.393  0.00  0.00    +0.000 C 
ATOM     14  O   UNL     1       0.789   4.274  17.082  0.00  0.00    +0.000 OA
ATOM     15  N   UNL     1       2.911   5.604  18.045  0.00  0.00    +0.000 N 
ENDROOT
BRANCH   1  19
ATOM     16  C   UNL     1       7.800   7.677  17.908  0.00  0.00    +0.000 A 
ATOM     17  C   UNL     1       7.954   6.616  18.808  0.00  0.00    +0.000 A 
ATOM     18  C   UNL     1       6.948   5.691  18.992  0.00  0.00    +0.000 A 
ATOM     19  C   UNL     1       5.761   5.821  18.282  0.00  0.00    +0.000 A 
ATOM     20  C   UNL     1       5.602   6.879  17.372  0.00  0.00    +0.000 A 
ATOM     21  C   UNL     1       6.622   7.801  17.179  0.00  0.00    +0.000 A 
BRANCH  16  22
ATOM     22  O   UNL     1       8.740   8.650  17.690  0.00  0.00    +0.000 OA
BRANCH  22  23
ATOM     23  C   UNL     1       8.342   9.911  18.214  0.00  0.00    +0.000 C 
BRANCH  23  25
ATOM     24  C   UNL     1      10.320  11.341  17.945  0.00  0.00    +0.000 C 
ATOM     25  C   UNL     1       9.481  10.573  18.951  0.00  0.00    +0.000 C 
ENDBRANCH  23  25
ENDBRANCH  22  23
ENDBRANCH  16  22
ENDBRANCH   1  19
BRANCH  15  26
ATOM     26  C   UNL     1       2.283   6.857  18.421  0.00  0.00    +0.000 C 
BRANCH  26  27
ATOM     27  C   UNL     1       2.500   7.320  19.857  0.00  0.00    +0.000 C 
BRANCH  27  28
ATOM     28  C   UNL     1       1.278   8.038  20.431  0.00  0.00    +0.000 C 
BRANCH  28  29
ATOM     29  N   UNL     1       1.591   9.314  21.102  0.00  0.00    +0.000 NA
ATOM     30  C   UNL     1       1.125   9.266  22.513  0.00  0.00    +0.000 C 
ATOM     31  C   UNL     1      -0.406   9.346  22.671  0.00  0.00    +0.000 C 
ATOM     32  O   UNL     1      -0.932  10.519  22.037  0.00  0.00    +0.000 OA
ATOM     33  C   UNL     1      -0.579  10.542  20.648  0.00  0.00    +0.000 C 
ATOM     34  C   UNL     1       0.946  10.483  20.461  0.00  0.00    +0.000 C 
ENDBRANCH  28  29
ENDBRANCH  27  28
ENDBRANCH  26  27
ENDBRANCH  15  26
TORSDOF 8
ENDMDL
MODEL 5
REMARK VINA RESULT:      -7.3      3.449      9.588
REMARK  Name = 
REMARK  9 active torsions:
REMARK  status: ('A' for Active; 'I' for Inactive)
REMARK    1  A    between atoms: C_1  and  C_2
REMARK    2  A    between atoms: C_2  and  C_3
REMARK    3  A    between atoms: C_3  and  O_4
REMARK    4  A    between atoms: O_4  and  C_5
REMARK    5  A    between atoms: C_8  and  C_9
REMARK    6  A    between atoms: N_23  and  C_24
REMARK    7  A    between atoms: C_24  and  C_25
REMARK    8  A    between atoms: C_25  and  C_26
REMARK    9  A    between atoms: C_26  and  N_27
REMARK                            x       y       z     vdW  Elec       q    Type
REMARK                         _______ _______ _______ _____ _____    ______ ____
ROOT
ATOM      1  C   UNL     1      -1.543  10.792  18.619  0.00  0.00    +0.000 C 
ATOM      2  C   UNL     1      -2.140  12.085  19.880  0.00  0.00    +0.000 A 
ATOM      3  C   UNL     1      -0.822  12.811  20.445  0.00  0.00    +0.000 A 
ATOM      4  O   UNL     1      -0.739  12.726  21.866  0.00  0.00    +0.000 OA
ATOM      5  C   UNL     1      -0.628  11.359  22.000  0.00  0.00    +0.000 A 
ATOM      6  C   UNL     1      -0.648  10.641  23.171  0.00  0.00    +0.000 A 
ATOM      7  C   UNL     1      -0.540   9.252  23.082  0.00  0.00    +0.000 A 
ATOM      8  C   UNL     1      -0.338   8.623  21.844  0.00  0.00    +0.000 A 
ATOM      9  C   UNL     1      -0.334   9.360  20.665  0.00  0.00    +0.000 A 
ATOM     10  C   UNL     1      -0.549  10.755  20.720  0.00  0.00    +0.000 A 
ATOM     11  C   UNL     1      -0.982  12.181  19.365  0.00  0.00    +0.000 A 
ATOM     12  O   UNL     1      -0.876  12.874  18.330  0.00  0.00    +0.000 OA
ATOM     13  C   UNL     1       0.886  12.183  19.635  0.00  0.00    +0.000 C 
ATOM     14  O   UNL     1       2.015  12.440  19.994  0.00  0.00    +0.000 OA
ATOM     15  N   UNL     1       0.317  10.966  18.530  0.00  0.00    +0.000 N 
ENDROOT
BRANCH   1  19
ATOM     16  C   UNL     1      -3.826  10.181  15.057  0.00  0.00    +0.000 A 
ATOM     17  C   UNL     1      -4.215  11.147  15.993  0.00  0.00    +0.000 A 
ATOM     18  C   UNL     1      -3.437  11.413  17.100  0.00  0.00    +0.000 A 
ATOM     19  C   UNL     1      -2.258  10.706  17.295  0.00  0.00    +0.000 A 
ATOM     20  C   UNL     1      -1.858   9.740  16.357  0.00  0.00    +0.000 A 
ATOM     21  C   UNL     1      -2.636   9.483  15.235  0.00  0.00    +0.000 A 
BRANCH  16  22
ATOM     22  O   UNL     1      -4.556   9.840  13.948  0.00  0.00    +0.000 OA
BRANCH  22  23
ATOM     23  C   UNL     1      -3.792   9.924  12.752  0.00  0.00    +0.000 C 
BRANCH  23  25
ATOM     24  C   UNL     1      -6.048   9.289  12.019  0.00  0.00    +0.000 C 
ATOM     25  C   UNL     1      -4.653   9.652  11.542  0.00  0.00    +0.000 C 
ENDBRANCH  23  25
ENDBRANCH  22  23
ENDBRANCH  16  22
ENDBRANCH   1  19
BRANCH  15  26
ATOM     26  C   UNL     1       1.233   9.980  17.988  0.00  0.00    +0.000 C 
BRANCH  26  27
ATOM     27  C   UNL     1       1.772   8.944  18.968  0.00  0.00    +0.000 C 
BRANCH  27  28
ATOM     28  C   UNL     1       2.224   7.660  18.272  0.00  0.00    +0.000 C 
BRANCH  28  29
ATOM     29  N   UNL     1       2.894   6.696  19.165  0.00  0.00    +0.000 NA
ATOM     30  C   UNL     1       4.130   6.186  18.516  0.00  0.00    +0.000 C 
ATOM     31  C   UNL     1       3.870   5.209  17.354  0.00  0.00    +0.000 C 
ATOM     32  O   UNL     1       3.065   4.101  17.777  0.00  0.00    +0.000 OA
ATOM     33  C   UNL     1       1.820   4.561  18.320  0.00  0.00    +0.000 C 
ATOM     34  C   UNL     1       2.051   5.525  19.497  0.00  0.00    +0.000 C 
ENDBRANCH  28  29
ENDBRANCH  27  28
ENDBRANCH  26  27
ENDBRANCH  15  26
TORSDOF 8
ENDMDL
MODEL 6
REMARK VINA RESULT:      -7.1      3.580      8.442
REMARK  Name = 
REMARK  9 active torsions:
REMARK  status: ('A' for Active; 'I' for Inactive)
REMARK    1  A    between atoms: C_1  and  C_2
REMARK    2  A    between atoms: C_2  and  C_3
REMARK    3  A    between atoms: C_3  and  O_4
REMARK    4  A    between atoms: O_4  and  C_5
REMARK    5  A    between atoms: C_8  and  C_9
REMARK    6  A    between atoms: N_23  and  C_24
REMARK    7  A    between atoms: C_24  and  C_25
REMARK    8  A    between atoms: C_25  and  C_26
REMARK    9  A    between atoms: C_26  and  N_27
REMARK                            x       y       z     vdW  Elec       q    Type
REMARK                         _______ _______ _______ _____ _____    ______ ____
ROOT
ATOM      1  C   UNL     1       0.159  10.554  19.903  0.00  0.00    +0.000 C 
ATOM      2  C   UNL     1      -1.638  10.441  19.290  0.00  0.00    +0.000 A 
ATOM      3  C   UNL     1      -2.051  11.920  18.817  0.00  0.00    +0.000 A 
ATOM      4  O   UNL     1      -3.219  12.385  19.491  0.00  0.00    +0.000 OA
ATOM      5  C   UNL     1      -2.734  12.412  20.780  0.00  0.00    +0.000 A 
ATOM      6  C   UNL     1      -3.452  12.654  21.926  0.00  0.00    +0.000 A 
ATOM      7  C   UNL     1      -2.766  12.615  23.141  0.00  0.00    +0.000 A 
ATOM      8  C   UNL     1      -1.378  12.413  23.179  0.00  0.00    +0.000 A 
ATOM      9  C   UNL     1      -0.666  12.155  22.013  0.00  0.00    +0.000 A 
ATOM     10  C   UNL     1      -1.355  12.082  20.783  0.00  0.00    +0.000 A 
ATOM     11  C   UNL     1      -0.902  11.416  18.937  0.00  0.00    +0.000 A 
ATOM     12  O   UNL     1      -0.267  11.290  17.867  0.00  0.00    +0.000 OA
ATOM     13  C   UNL     1      -0.602  13.278  18.972  0.00  0.00    +0.000 C 
ATOM     14  O   UNL     1      -0.697  14.480  18.845  0.00  0.00    +0.000 OA
ATOM     15  N   UNL     1       0.695  12.325  19.631  0.00  0.00    +0.000 N 
ENDROOT
BRANCH   1  19
ATOM     16  C   UNL     1       2.532   7.289  18.496  0.00  0.00    +0.000 A 
ATOM     17  C   UNL     1       2.247   8.372  17.657  0.00  0.00    +0.000 A 
ATOM     18  C   UNL     1       1.558   9.471  18.128  0.00  0.00    +0.000 A 
ATOM     19  C   UNL     1       1.134   9.496  19.450  0.00  0.00    +0.000 A 
ATOM     20  C   UNL     1       1.422   8.416  20.300  0.00  0.00    +0.000 A 
ATOM     21  C   UNL     1       2.128   7.317  19.826  0.00  0.00    +0.000 A 
BRANCH  16  22
ATOM     22  O   UNL     1       3.185   6.152  18.096  0.00  0.00    +0.000 OA
BRANCH  22  23
ATOM     23  C   UNL     1       2.665   4.984  18.719  0.00  0.00    +0.000 C 
BRANCH  23  25
ATOM     24  C   UNL     1       1.239   2.997  18.496  0.00  0.00    +0.000 C 
ATOM     25  C   UNL     1       1.748   4.236  17.781  0.00  0.00    +0.000 C 
ENDBRANCH  23  25
ENDBRANCH  22  23
ENDBRANCH  16  22
ENDBRANCH   1  19
BRANCH  15  26
ATOM     26  C   UNL     1       1.836  12.968  20.256  0.00  0.00    +0.000 C 
BRANCH  26  27
ATOM     27  C   UNL     1       2.875  13.569  19.315  0.00  0.00    +0.000 C 
BRANCH  27  28
ATOM     28  C   UNL     1       3.618  14.749  19.942  0.00  0.00    +0.000 C 
BRANCH  28  29
ATOM     29  N   UNL     1       3.936  15.831  18.991  0.00  0.00    +0.000 NA
ATOM     30  C   UNL     1       4.496  15.252  17.741  0.00  0.00    +0.000 C 
ATOM     31  C   UNL     1       5.930  14.709  17.890  0.00  0.00    +0.000 C 
ATOM     32  O   UNL     1       6.819  15.720  18.383  0.00  0.00    +0.000 OA
ATOM     33  C   UNL     1       6.353  16.230  19.640  0.00  0.00    +0.000 C 
ATOM     34  C   UNL     1       4.929  16.796  19.516  0.00  0.00    +0.000 C 
ENDBRANCH  28  29
ENDBRANCH  27  28
ENDBRANCH  26  27
ENDBRANCH  15  26
TORSDOF 8
ENDMDL
MODEL 7
REMARK VINA RESULT:      -7.1      6.442     10.789
REMARK  Name = 
REMARK  9 active torsions:
REMARK  status: ('A' for Active; 'I' for Inactive)
REMARK    1  A    between atoms: C_1  and  C_2
REMARK    2  A    between atoms: C_2  and  C_3
REMARK    3  A    between atoms: C_3  and  O_4
REMARK    4  A    between atoms: O_4  and  C_5
REMARK    5  A    between atoms: C_8  and  C_9
REMARK    6  A    between atoms: N_23  and  C_24
REMARK    7  A    between atoms: C_24  and  C_25
REMARK    8  A    between atoms: C_25  and  C_26
REMARK    9  A    between atoms: C_26  and  N_27
REMARK                            x       y       z     vdW  Elec       q    Type
REMARK                         _______ _______ _______ _____ _____    ______ ____
ROOT
ATOM      1  C   UNL     1      -1.597  11.988  18.918  0.00  0.00    +0.000 C 
ATOM      2  C   UNL     1      -0.406  10.909  17.901  0.00  0.00    +0.000 A 
ATOM      3  C   UNL     1       0.728  10.399  18.920  0.00  0.00    +0.000 A 
ATOM      4  O   UNL     1       2.036  10.749  18.475  0.00  0.00    +0.000 OA
ATOM      5  C   UNL     1       1.927  12.122  18.527  0.00  0.00    +0.000 A 
ATOM      6  C   UNL     1       2.845  13.040  18.076  0.00  0.00    +0.000 A 
ATOM      7  C   UNL     1       2.527  14.393  18.208  0.00  0.00    +0.000 A 
ATOM      8  C   UNL     1       1.346  14.796  18.851  0.00  0.00    +0.000 A 
ATOM      9  C   UNL     1       0.419  13.857  19.289  0.00  0.00    +0.000 A 
ATOM     10  C   UNL     1       0.668  12.485  19.070  0.00  0.00    +0.000 A 
ATOM     11  C   UNL     1      -0.439  10.806  19.168  0.00  0.00    +0.000 A 
ATOM     12  O   UNL     1      -1.207   9.943  19.647  0.00  0.00    +0.000 OA
ATOM     13  C   UNL     1       0.480  10.992  20.805  0.00  0.00    +0.000 C 
ATOM     14  O   UNL     1       1.265  10.889  21.723  0.00  0.00    +0.000 OA
ATOM     15  N   UNL     1      -0.974  11.939  20.681  0.00  0.00    +0.000 N 
ENDROOT
BRANCH   1  19
ATOM     16  C   UNL     1      -5.806  11.819  18.192  0.00  0.00    +0.000 A 
ATOM     17  C   UNL     1      -4.908  11.208  17.309  0.00  0.00    +0.000 A 
ATOM     18  C   UNL     1      -3.556  11.180  17.580  0.00  0.00    +0.000 A 
ATOM     19  C   UNL     1      -3.079  11.775  18.741  0.00  0.00    +0.000 A 
ATOM     20  C   UNL     1      -3.975  12.384  19.635  0.00  0.00    +0.000 A 
ATOM     21  C   UNL     1      -5.338  12.399  19.366  0.00  0.00    +0.000 A 
BRANCH  16  22
ATOM     22  O   UNL     1      -7.157  11.913  17.980  0.00  0.00    +0.000 OA
BRANCH  22  23
ATOM     23  C   UNL     1      -7.615  13.259  18.006  0.00  0.00    +0.000 C 
BRANCH  23  25
ATOM     24  C   UNL     1      -6.920  15.429  17.092  0.00  0.00    +0.000 C 
ATOM     25  C   UNL     1      -7.228  13.985  16.740  0.00  0.00    +0.000 C 
ENDBRANCH  23  25
ENDBRANCH  22  23
ENDBRANCH  16  22
ENDBRANCH   1  19
BRANCH  15  26
ATOM     26  C   UNL     1      -1.334  12.873  21.731  0.00  0.00    +0.000 C 
BRANCH  26  27
ATOM     27  C   UNL     1      -1.800  12.264  23.049  0.00  0.00    +0.000 C 
BRANCH  27  28
ATOM     28  C   UNL     1      -3.323  12.276  23.192  0.00  0.00    +0.000 C 
BRANCH  28  29
ATOM     29  N   UNL     1      -3.802  12.879  24.450  0.00  0.00    +0.000 NA
ATOM     30  C   UNL     1      -5.187  12.417  24.732  0.00  0.00    +0.000 C 
ATOM     31  C   UNL     1      -6.255  13.038  23.811  0.00  0.00    +0.000 C 
ATOM     32  O   UNL     1      -6.214  14.469  23.861  0.00  0.00    +0.000 OA
ATOM     33  C   UNL     1      -4.913  14.949  23.498  0.00  0.00    +0.000 C 
ATOM     34  C   UNL     1      -3.828  14.359  24.415  0.00  0.00    +0.000 C 
ENDBRANCH  28  29
ENDBRANCH  27  28
ENDBRANCH  26  27
ENDBRANCH  15  26
TORSDOF 8
ENDMDL
MODEL 8
REMARK VINA RESULT:      -7.0      3.671      8.413
REMARK  Name = 
REMARK  9 active torsions:
REMARK  status: ('A' for Active; 'I' for Inactive)
REMARK    1  A    between atoms: C_1  and  C_2
REMARK    2  A    between atoms: C_2  and  C_3
REMARK    3  A    between atoms: C_3  and  O_4
REMARK    4  A    between atoms: O_4  and  C_5
REMARK    5  A    between atoms: C_8  and  C_9
REMARK    6  A    between atoms: N_23  and  C_24
REMARK    7  A    between atoms: C_24  and  C_25
REMARK    8  A    between atoms: C_25  and  C_26
REMARK    9  A    between atoms: C_26  and  N_27
REMARK                            x       y       z     vdW  Elec       q    Type
REMARK                         _______ _______ _______ _____ _____    ______ ____
ROOT
ATOM      1  C   UNL     1       0.255  10.502  19.915  0.00  0.00    +0.000 C 
ATOM      2  C   UNL     1      -1.563  10.364  19.371  0.00  0.00    +0.000 A 
ATOM      3  C   UNL     1      -1.960  11.792  18.749  0.00  0.00    +0.000 A 
ATOM      4  O   UNL     1      -3.097  12.355  19.401  0.00  0.00    +0.000 OA
ATOM      5  C   UNL     1      -2.570  12.513  20.665  0.00  0.00    +0.000 A 
ATOM      6  C   UNL     1      -3.247  12.897  21.798  0.00  0.00    +0.000 A 
ATOM      7  C   UNL     1      -2.524  12.976  22.989  0.00  0.00    +0.000 A 
ATOM      8  C   UNL     1      -1.139  12.747  23.008  0.00  0.00    +0.000 A 
ATOM      9  C   UNL     1      -0.470  12.345  21.858  0.00  0.00    +0.000 A 
ATOM     10  C   UNL     1      -1.199  12.153  20.664  0.00  0.00    +0.000 A 
ATOM     11  C   UNL     1      -0.819  11.276  18.891  0.00  0.00    +0.000 A 
ATOM     12  O   UNL     1      -0.221  11.018  17.824  0.00  0.00    +0.000 OA
ATOM     13  C   UNL     1      -0.480  13.124  18.711  0.00  0.00    +0.000 C 
ATOM     14  O   UNL     1      -0.555  14.306  18.453  0.00  0.00    +0.000 OA
ATOM     15  N   UNL     1       0.818  12.219  19.432  0.00  0.00    +0.000 N 
ENDROOT
BRANCH   1  19
ATOM     16  C   UNL     1       2.517   7.059  18.774  0.00  0.00    +0.000 A 
ATOM     17  C   UNL     1       2.303   8.101  17.864  0.00  0.00    +0.000 A 
ATOM     18  C   UNL     1       1.652   9.255  18.249  0.00  0.00    +0.000 A 
ATOM     19  C   UNL     1       1.193   9.378  19.554  0.00  0.00    +0.000 A 
ATOM     20  C   UNL     1       1.410   8.339  20.474  0.00  0.00    +0.000 A 
ATOM     21  C   UNL     1       2.078   7.184  20.087  0.00  0.00    +0.000 A 
BRANCH  16  22
ATOM     22  O   UNL     1       3.129   5.873  18.461  0.00  0.00    +0.000 OA
BRANCH  22  23
ATOM     23  C   UNL     1       2.193   4.853  18.135  0.00  0.00    +0.000 C 
BRANCH  23  25
ATOM     24  C   UNL     1       1.013   3.584  19.876  0.00  0.00    +0.000 C 
ATOM     25  C   UNL     1       2.309   3.690  19.092  0.00  0.00    +0.000 C 
ENDBRANCH  23  25
ENDBRANCH  22  23
ENDBRANCH  16  22
ENDBRANCH   1  19
BRANCH  15  26
ATOM     26  C   UNL     1       1.990  12.900  19.949  0.00  0.00    +0.000 C 
BRANCH  26  27
ATOM     27  C   UNL     1       2.938  13.497  18.913  0.00  0.00    +0.000 C 
BRANCH  27  28
ATOM     28  C   UNL     1       3.717  14.696  19.457  0.00  0.00    +0.000 C 
BRANCH  28  29
ATOM     29  N   UNL     1       3.669  15.886  18.587  0.00  0.00    +0.000 NA
ATOM     30  C   UNL     1       4.944  16.642  18.702  0.00  0.00    +0.000 C 
ATOM     31  C   UNL     1       5.110  17.395  20.036  0.00  0.00    +0.000 C 
ATOM     32  O   UNL     1       4.009  18.283  20.270  0.00  0.00    +0.000 OA
ATOM     33  C   UNL     1       2.769  17.563  20.262  0.00  0.00    +0.000 C 
ATOM     34  C   UNL     1       2.570  16.816  18.932  0.00  0.00    +0.000 C 
ENDBRANCH  28  29
ENDBRANCH  27  28
ENDBRANCH  26  27
ENDBRANCH  15  26
TORSDOF 8
ENDMDL
MODEL 9
REMARK VINA RESULT:      -6.9      3.663      8.280
REMARK  Name = 
REMARK  9 active torsions:
REMARK  status: ('A' for Active; 'I' for Inactive)
REMARK    1  A    between atoms: C_1  and  C_2
REMARK    2  A    between atoms: C_2  and  C_3
REMARK    3  A    between atoms: C_3  and  O_4
REMARK    4  A    between atoms: O_4  and  C_5
REMARK    5  A    between atoms: C_8  and  C_9
REMARK    6  A    between atoms: N_23  and  C_24
REMARK    7  A    between atoms: C_24  and  C_25
REMARK    8  A    between atoms: C_25  and  C_26
REMARK    9  A    between atoms: C_26  and  N_27
REMARK                            x       y       z     vdW  Elec       q    Type
REMARK                         _______ _______ _______ _____ _____    ______ ____
ROOT
ATOM      1  C   UNL     1       0.245  10.421  19.924  0.00  0.00    +0.000 C 
ATOM      2  C   UNL     1      -1.568  10.264  19.370  0.00  0.00    +0.000 A 
ATOM      3  C   UNL     1      -1.972  11.682  18.730  0.00  0.00    +0.000 A 
ATOM      4  O   UNL     1      -3.117  12.243  19.369  0.00  0.00    +0.000 OA
ATOM      5  C   UNL     1      -2.600  12.418  20.634  0.00  0.00    +0.000 A 
ATOM      6  C   UNL     1      -3.287  12.810  21.758  0.00  0.00    +0.000 A 
ATOM      7  C   UNL     1      -2.572  12.907  22.953  0.00  0.00    +0.000 A 
ATOM      8  C   UNL     1      -1.186  12.688  22.984  0.00  0.00    +0.000 A 
ATOM      9  C   UNL     1      -0.506  12.279  21.842  0.00  0.00    +0.000 A 
ATOM     10  C   UNL     1      -1.226  12.069  20.646  0.00  0.00    +0.000 A 
ATOM     11  C   UNL     1      -0.828  11.176  18.885  0.00  0.00    +0.000 A 
ATOM     12  O   UNL     1      -0.221  10.912  17.824  0.00  0.00    +0.000 OA
ATOM     13  C   UNL     1      -0.502  13.025  18.687  0.00  0.00    +0.000 C 
ATOM     14  O   UNL     1      -0.584  14.204  18.416  0.00  0.00    +0.000 OA
ATOM     15  N   UNL     1       0.798  12.137  19.427  0.00  0.00    +0.000 N 
ENDROOT
BRANCH   1  19
ATOM     16  C   UNL     1       2.540   6.984  18.832  0.00  0.00    +0.000 A 
ATOM     17  C   UNL     1       2.329   8.018  17.912  0.00  0.00    +0.000 A 
ATOM     18  C   UNL     1       1.667   9.170  18.282  0.00  0.00    +0.000 A 
ATOM     19  C   UNL     1       1.194   9.301  19.581  0.00  0.00    +0.000 A 
ATOM     20  C   UNL     1       1.408   8.270  20.511  0.00  0.00    +0.000 A 
ATOM     21  C   UNL     1       2.088   7.117  20.140  0.00  0.00    +0.000 A 
BRANCH  16  22
ATOM     22  O   UNL     1       3.163   5.800  18.534  0.00  0.00    +0.000 OA
BRANCH  22  23
ATOM     23  C   UNL     1       2.236   4.765  18.228  0.00  0.00    +0.000 C 
BRANCH  23  25
ATOM     24  C   UNL     1       0.946   3.523  19.908  0.00  0.00    +0.000 C 
ATOM     25  C   UNL     1       2.309   3.657  19.252  0.00  0.00    +0.000 C 
ENDBRANCH  23  25
ENDBRANCH  22  23
ENDBRANCH  16  22
ENDBRANCH   1  19
BRANCH  15  26
ATOM     26  C   UNL     1       1.962  12.832  19.943  0.00  0.00    +0.000 C 
BRANCH  26  27
ATOM     27  C   UNL     1       2.861  13.506  18.912  0.00  0.00    +0.000 C 
BRANCH  27  28
ATOM     28  C   UNL     1       2.787  15.032  18.980  0.00  0.00    +0.000 C 
BRANCH  28  29
ATOM     29  N   UNL     1       2.437  15.557  20.313  0.00  0.00    +0.000 NA
ATOM     30  C   UNL     1       1.358  16.572  20.185  0.00  0.00    +0.000 C 
ATOM     31  C   UNL     1       1.824  17.909  19.577  0.00  0.00    +0.000 C 
ATOM     32  O   UNL     1       2.913  18.467  20.324  0.00  0.00    +0.000 OA
ATOM     33  C   UNL     1       4.010  17.544  20.381  0.00  0.00    +0.000 C 
ATOM     34  C   UNL     1       3.576  16.205  21.002  0.00  0.00    +0.000 C 
ENDBRANCH  28  29
ENDBRANCH  27  28
ENDBRANCH  26  27
ENDBRANCH  15  26
TORSDOF 8
ENDMDL
