MODEL 1
REMARK VINA RESULT:      -8.3      0.000      0.000
REMARK  Name = 
REMARK  7 active torsions:
REMARK  status: ('A' for Active; 'I' for Inactive)
REMARK    1  A    between atoms: C_1  and  O_2
REMARK    2  A    between atoms: O_2  and  C_3
REMARK    3  A    between atoms: C_6  and  C_7
REMARK    4  A    between atoms: C_7  and  N_8
REMARK    5  A    between atoms: N_8  and  C_9
REMARK    6  A    between atoms: C_17  and  C_18
REMARK    7  A    between atoms: C_18  and  O_19
REMARK                            x       y       z     vdW  Elec       q    Type
REMARK                         _______ _______ _______ _____ _____    ______ ____
ROOT
ATOM      1  C   UNL     1       2.952   6.218  19.425  0.00  0.00    +0.000 A 
ATOM      2  N   UNL     1       4.227   6.339  19.073  0.00  0.00    +0.000 NA
ATOM      3  C   UNL     1       4.761   5.294  18.462  0.00  0.00    +0.000 A 
ATOM      4  N   UNL     1       4.734   5.367  17.073  0.00  0.00    +0.000 N 
ATOM      5  C   UNL     1       4.391   4.181  16.276  0.00  0.00    +0.000 C 
ATOM      6  C   UNL     1       5.609   3.350  15.879  0.00  0.00    +0.000 C 
ATOM      7  C   UNL     1       6.799   4.211  15.452  0.00  0.00    +0.000 C 
ATOM      8  C   UNL     1       7.052   5.360  16.431  0.00  0.00    +0.000 C 
ATOM      9  C   UNL     1       5.786   6.215  16.529  0.00  0.00    +0.000 C 
ATOM     10  N   UNL     1       4.683   4.122  19.023  0.00  0.00    +0.000 NA
ATOM     11  C   UNL     1       3.468   3.813  19.341  0.00  0.00    +0.000 A 
ATOM     12  C   UNL     1       3.316   2.449  19.278  0.00  0.00    +0.000 A 
ATOM     13  C   UNL     1       2.052   1.892  19.188  0.00  0.00    +0.000 A 
ATOM     14  C   UNL     1       0.960   2.737  19.305  0.00  0.00    +0.000 A 
ATOM     15  C   UNL     1       1.125   4.160  19.478  0.00  0.00    +0.000 A 
ATOM     16  C   UNL     1       2.421   4.812  19.447  0.00  0.00    +0.000 A 
ENDROOT
BRANCH   1  17
ATOM     17  N   UNL     1       2.261   7.504  19.497  0.00  0.00    +0.000 N 
ATOM     18  H   UNL     1       1.628   7.590  18.711  0.00  0.00    +0.000 HD
BRANCH  17  19
ATOM     19  C   UNL     1       1.481   7.687  20.840  0.00  0.00    +0.000 C 
BRANCH  19  23
ATOM     20  C   UNL     1      -0.683  11.301  22.510  0.00  0.00    +0.000 A 
ATOM     21  C   UNL     1      -0.720  10.034  23.082  0.00  0.00    +0.000 A 
ATOM     22  C   UNL     1      -0.061   8.909  22.511  0.00  0.00    +0.000 A 
ATOM     23  C   UNL     1       0.647   8.968  21.278  0.00  0.00    +0.000 A 
ATOM     24  C   UNL     1       0.722  10.279  20.743  0.00  0.00    +0.000 A 
ATOM     25  C   UNL     1       0.070  11.418  21.345  0.00  0.00    +0.000 A 
BRANCH  20  27
ATOM     26  C   UNL     1      -2.781  12.068  23.422  0.00  0.00    +0.000 C 
ATOM     27  O   UNL     1      -1.382  12.252  23.183  0.00  0.00    +0.000 OA
ENDBRANCH  20  27
ENDBRANCH  19  23
ENDBRANCH  17  19
ENDBRANCH   1  17
BRANCH   9  28
ATOM     28  C   UNL     1       5.980   7.538  17.288  0.00  0.00    +0.000 C 
BRANCH  28  29
ATOM     29  O   UNL     1       7.338   7.958  17.275  0.00  0.00    +0.000 OA
ATOM     30  H   UNL     1       7.379   8.744  17.845  0.00  0.00    +0.000 HD
ENDBRANCH  28  29
ENDBRANCH   9  28
TORSDOF 6
ENDMDL
MODEL 2
REMARK VINA RESULT:      -8.2      1.712      2.144
REMARK  Name = 
REMARK  7 active torsions:
REMARK  status: ('A' for Active; 'I' for Inactive)
REMARK    1  A    between atoms: C_1  and  O_2
REMARK    2  A    between atoms: O_2  and  C_3
REMARK    3  A    between atoms: C_6  and  C_7
REMARK    4  A    between atoms: C_7  and  N_8
REMARK    5  A    between atoms: N_8  and  C_9
REMARK    6  A    between atoms: C_17  and  C_18
REMARK    7  A    between atoms: C_18  and  O_19
REMARK                            x       y       z     vdW  Elec       q    Type
REMARK                         _______ _______ _______ _____ _____    ______ ____
ROOT
ATOM      1  C   UNL     1       3.440   5.677  19.634  0.00  0.00    +0.000 A 
ATOM      2  N   UNL     1       4.699   5.755  19.216  0.00  0.00    +0.000 NA
ATOM      3  C   UNL     1       5.066   4.862  18.312  0.00  0.00    +0.000 A 
ATOM      4  N   UNL     1       4.970   5.306  16.996  0.00  0.00    +0.000 N 
ATOM      5  C   UNL     1       4.439   4.420  15.952  0.00  0.00    +0.000 C 
ATOM      6  C   UNL     1       5.522   3.603  15.249  0.00  0.00    +0.000 C 
ATOM      7  C   UNL     1       6.783   4.418  14.958  0.00  0.00    +0.000 C 
ATOM      8  C   UNL     1       7.230   5.230  16.177  0.00  0.00    +0.000 C 
ATOM      9  C   UNL     1       6.086   6.155  16.602  0.00  0.00    +0.000 C 
ATOM     10  N   UNL     1       4.875   3.597  18.554  0.00  0.00    +0.000 NA
ATOM     11  C   UNL     1       3.651   3.343  18.885  0.00  0.00    +0.000 A 
ATOM     12  C   UNL     1       3.328   2.069  18.484  0.00  0.00    +0.000 A 
ATOM     13  C   UNL     1       2.003   1.691  18.362  0.00  0.00    +0.000 A 
ATOM     14  C   UNL     1       1.032   2.583  18.789  0.00  0.00    +0.000 A 
ATOM     15  C   UNL     1       1.380   3.883  19.310  0.00  0.00    +0.000 A 
ATOM     16  C   UNL     1       2.743   4.380  19.336  0.00  0.00    +0.000 A 
ENDROOT
BRANCH   1  17
ATOM     17  N   UNL     1       2.918   6.962  20.097  0.00  0.00    +0.000 N 
ATOM     18  H   UNL     1       3.659   7.481  20.553  0.00  0.00    +0.000 HD
BRANCH  17  19
ATOM     19  C   UNL     1       2.303   7.809  18.935  0.00  0.00    +0.000 C 
BRANCH  19  23
ATOM     20  C   UNL     1      -1.070  10.827  19.144  0.00  0.00    +0.000 A 
ATOM     21  C   UNL     1      -0.610  10.248  17.966  0.00  0.00    +0.000 A 
ATOM     22  C   UNL     1       0.478   9.332  17.929  0.00  0.00    +0.000 A 
ATOM     23  C   UNL     1       1.227   8.970  19.084  0.00  0.00    +0.000 A 
ATOM     24  C   UNL     1       0.706   9.525  20.280  0.00  0.00    +0.000 A 
ATOM     25  C   UNL     1      -0.415  10.434  20.308  0.00  0.00    +0.000 A 
BRANCH  20  27
ATOM     26  C   UNL     1      -3.033  11.501  17.914  0.00  0.00    +0.000 C 
ATOM     27  O   UNL     1      -2.108  11.691  18.989  0.00  0.00    +0.000 OA
ENDBRANCH  20  27
ENDBRANCH  19  23
ENDBRANCH  17  19
ENDBRANCH   1  17
BRANCH   9  28
ATOM     28  C   UNL     1       6.484   7.199  17.658  0.00  0.00    +0.000 C 
BRANCH  28  29
ATOM     29  O   UNL     1       7.666   7.897  17.290  0.00  0.00    +0.000 OA
ATOM     30  H   UNL     1       7.373   8.653  16.755  0.00  0.00    +0.000 HD
ENDBRANCH  28  29
ENDBRANCH   9  28
TORSDOF 6
ENDMDL
MODEL 3
REMARK VINA RESULT:      -8.0      1.674      2.028
REMARK  Name = 
REMARK  7 active torsions:
REMARK  status: ('A' for Active; 'I' for Inactive)
REMARK    1  A    between atoms: C_1  and  O_2
REMARK    2  A    between atoms: O_2  and  C_3
REMARK    3  A    between atoms: C_6  and  C_7
REMARK    4  A    between atoms: C_7  and  N_8
REMARK    5  A    between atoms: N_8  and  C_9
REMARK    6  A    between atoms: C_17  and  C_18
REMARK    7  A    between atoms: C_18  and  O_19
REMARK                            x       y       z     vdW  Elec       q    Type
REMARK                         _______ _______ _______ _____ _____    ______ ____
ROOT
ATOM      1  C   UNL     1       3.293   5.689  19.580  0.00  0.00    +0.000 A 
ATOM      2  N   UNL     1       4.561   5.817  19.202  0.00  0.00    +0.000 NA
ATOM      3  C   UNL     1       5.005   4.906  18.351  0.00  0.00    +0.000 A 
ATOM      4  N   UNL     1       4.934   5.286  17.015  0.00  0.00    +0.000 N 
ATOM      5  C   UNL     1       4.488   4.328  15.995  0.00  0.00    +0.000 C 
ATOM      6  C   UNL     1       5.636   3.540  15.366  0.00  0.00    +0.000 C 
ATOM      7  C   UNL     1       6.862   4.409  15.081  0.00  0.00    +0.000 C 
ATOM      8  C   UNL     1       7.222   5.297  16.275  0.00  0.00    +0.000 C 
ATOM      9  C   UNL     1       6.017   6.176  16.619  0.00  0.00    +0.000 C 
ATOM     10  N   UNL     1       4.873   3.644  18.644  0.00  0.00    +0.000 NA
ATOM     11  C   UNL     1       3.653   3.339  18.945  0.00  0.00    +0.000 A 
ATOM     12  C   UNL     1       3.412   2.033  18.593  0.00  0.00    +0.000 A 
ATOM     13  C   UNL     1       2.113   1.579  18.443  0.00  0.00    +0.000 A 
ATOM     14  C   UNL     1       1.082   2.435  18.797  0.00  0.00    +0.000 A 
ATOM     15  C   UNL     1       1.342   3.773  19.269  0.00  0.00    +0.000 A 
ATOM     16  C   UNL     1       2.676   4.345  19.319  0.00  0.00    +0.000 A 
ENDROOT
BRANCH   1  17
ATOM     17  N   UNL     1       2.688   6.963  19.966  0.00  0.00    +0.000 N 
ATOM     18  H   UNL     1       3.333   7.476  20.556  0.00  0.00    +0.000 HD
BRANCH  17  19
ATOM     19  C   UNL     1       2.283   7.829  18.729  0.00  0.00    +0.000 C 
BRANCH  19  23
ATOM     20  C   UNL     1       0.398  11.910  19.304  0.00  0.00    +0.000 A 
ATOM     21  C   UNL     1       0.023  10.769  20.006  0.00  0.00    +0.000 A 
ATOM     22  C   UNL     1       0.607   9.492  19.774  0.00  0.00    +0.000 A 
ATOM     23  C   UNL     1       1.587   9.259  18.768  0.00  0.00    +0.000 A 
ATOM     24  C   UNL     1       1.997  10.444  18.106  0.00  0.00    +0.000 A 
ATOM     25  C   UNL     1       1.414  11.738  18.368  0.00  0.00    +0.000 A 
BRANCH  20  27
ATOM     26  C   UNL     1      -0.081  14.237  18.889  0.00  0.00    +0.000 C 
ATOM     27  O   UNL     1      -0.277  13.039  19.646  0.00  0.00    +0.000 OA
ENDBRANCH  20  27
ENDBRANCH  19  23
ENDBRANCH  17  19
ENDBRANCH   1  17
BRANCH   9  28
ATOM     28  C   UNL     1       6.321   7.285  17.640  0.00  0.00    +0.000 C 
BRANCH  28  29
ATOM     29  O   UNL     1       7.448   8.061  17.253  0.00  0.00    +0.000 OA
ATOM     30  H   UNL     1       7.089   8.882  16.877  0.00  0.00    +0.000 HD
ENDBRANCH  28  29
ENDBRANCH   9  28
TORSDOF 6
ENDMDL
MODEL 4
REMARK VINA RESULT:      -8.0      2.177      4.300
REMARK  Name = 
REMARK  7 active torsions:
REMARK  status: ('A' for Active; 'I' for Inactive)
REMARK    1  A    between atoms: C_1  and  O_2
REMARK    2  A    between atoms: O_2  and  C_3
REMARK    3  A    between atoms: C_6  and  C_7
REMARK    4  A    between atoms: C_7  and  N_8
REMARK    5  A    between atoms: N_8  and  C_9
REMARK    6  A    between atoms: C_17  and  C_18
REMARK    7  A    between atoms: C_18  and  O_19
REMARK                            x       y       z     vdW  Elec       q    Type
REMARK                         _______ _______ _______ _____ _____    ______ ____
ROOT
ATOM      1  C   UNL     1       3.335   6.870  17.591  0.00  0.00    +0.000 A 
ATOM      2  N   UNL     1       2.466   6.085  18.219  0.00  0.00    +0.000 NA
ATOM      3  C   UNL     1       2.870   4.847  18.454  0.00  0.00    +0.000 A 
ATOM      4  N   UNL     1       3.423   4.654  19.716  0.00  0.00    +0.000 N 
ATOM      5  C   UNL     1       4.630   3.832  19.877  0.00  0.00    +0.000 C 
ATOM      6  C   UNL     1       4.324   2.360  20.149  0.00  0.00    +0.000 C 
ATOM      7  C   UNL     1       3.162   2.169  21.124  0.00  0.00    +0.000 C 
ATOM      8  C   UNL     1       1.966   3.055  20.767  0.00  0.00    +0.000 C 
ATOM      9  C   UNL     1       2.418   4.518  20.761  0.00  0.00    +0.000 C 
ATOM     10  N   UNL     1       3.314   4.125  17.465  0.00  0.00    +0.000 NA
ATOM     11  C   UNL     1       4.250   4.725  16.805  0.00  0.00    +0.000 A 
ATOM     12  C   UNL     1       5.107   3.789  16.279  0.00  0.00    +0.000 A 
ATOM     13  C   UNL     1       6.378   4.156  15.873  0.00  0.00    +0.000 A 
ATOM     14  C   UNL     1       6.697   5.504  15.882  0.00  0.00    +0.000 A 
ATOM     15  C   UNL     1       5.755   6.499  16.335  0.00  0.00    +0.000 A 
ATOM     16  C   UNL     1       4.460   6.158  16.895  0.00  0.00    +0.000 A 
ENDROOT
BRANCH   1  17
ATOM     17  N   UNL     1       3.143   8.286  17.901  0.00  0.00    +0.000 N 
ATOM     18  H   UNL     1       3.757   8.843  17.319  0.00  0.00    +0.000 HD
BRANCH  17  19
ATOM     19  C   UNL     1       1.660   8.741  17.712  0.00  0.00    +0.000 C 
BRANCH  19  23
ATOM     20  C   UNL     1      -1.015  11.312  20.313  0.00  0.00    +0.000 A 
ATOM     21  C   UNL     1      -1.275  11.013  18.981  0.00  0.00    +0.000 A 
ATOM     22  C   UNL     1      -0.395  10.234  18.178  0.00  0.00    +0.000 A 
ATOM     23  C   UNL     1       0.854   9.740  18.651  0.00  0.00    +0.000 A 
ATOM     24  C   UNL     1       1.071  10.007  20.027  0.00  0.00    +0.000 A 
ATOM     25  C   UNL     1       0.158  10.776  20.838  0.00  0.00    +0.000 A 
BRANCH  20  27
ATOM     26  C   UNL     1      -3.018  12.647  20.144  0.00  0.00    +0.000 C 
ATOM     27  O   UNL     1      -1.958  12.080  20.921  0.00  0.00    +0.000 OA
ENDBRANCH  20  27
ENDBRANCH  19  23
ENDBRANCH  17  19
ENDBRANCH   1  17
BRANCH   9  28
ATOM     28  C   UNL     1       1.266   5.530  20.657  0.00  0.00    +0.000 C 
BRANCH  28  29
ATOM     29  O   UNL     1       1.688   6.845  20.997  0.00  0.00    +0.000 OA
ATOM     30  H   UNL     1       2.593   6.930  20.654  0.00  0.00    +0.000 HD
ENDBRANCH  28  29
ENDBRANCH   9  28
TORSDOF 6
ENDMDL
MODEL 5
REMARK VINA RESULT:      -7.9      2.085      4.245
REMARK  Name = 
REMARK  7 active torsions:
REMARK  status: ('A' for Active; 'I' for Inactive)
REMARK    1  A    between atoms: C_1  and  O_2
REMARK    2  A    between atoms: O_2  and  C_3
REMARK    3  A    between atoms: C_6  and  C_7
REMARK    4  A    between atoms: C_7  and  N_8
REMARK    5  A    between atoms: N_8  and  C_9
REMARK    6  A    between atoms: C_17  and  C_18
REMARK    7  A    between atoms: C_18  and  O_19
REMARK                            x       y       z     vdW  Elec       q    Type
REMARK                         _______ _______ _______ _____ _____    ______ ____
ROOT
ATOM      1  C   UNL     1       3.322   7.003  17.685  0.00  0.00    +0.000 A 
ATOM      2  N   UNL     1       2.427   6.260  18.327  0.00  0.00    +0.000 NA
ATOM      3  C   UNL     1       2.774   5.004  18.556  0.00  0.00    +0.000 A 
ATOM      4  N   UNL     1       3.339   4.784  19.808  0.00  0.00    +0.000 N 
ATOM      5  C   UNL     1       4.507   3.905  19.950  0.00  0.00    +0.000 C 
ATOM      6  C   UNL     1       4.136   2.450  20.228  0.00  0.00    +0.000 C 
ATOM      7  C   UNL     1       2.982   2.313  21.222  0.00  0.00    +0.000 C 
ATOM      8  C   UNL     1       1.824   3.256  20.884  0.00  0.00    +0.000 C 
ATOM      9  C   UNL     1       2.345   4.695  20.870  0.00  0.00    +0.000 C 
ATOM     10  N   UNL     1       3.167   4.262  17.561  0.00  0.00    +0.000 NA
ATOM     11  C   UNL     1       4.120   4.817  16.885  0.00  0.00    +0.000 A 
ATOM     12  C   UNL     1       4.922   3.841  16.345  0.00  0.00    +0.000 A 
ATOM     13  C   UNL     1       6.203   4.147  15.918  0.00  0.00    +0.000 A 
ATOM     14  C   UNL     1       6.586   5.479  15.921  0.00  0.00    +0.000 A 
ATOM     15  C   UNL     1       5.700   6.517  16.390  0.00  0.00    +0.000 A 
ATOM     16  C   UNL     1       4.400   6.238  16.971  0.00  0.00    +0.000 A 
ENDROOT
BRANCH   1  17
ATOM     17  N   UNL     1       3.203   8.426  17.998  0.00  0.00    +0.000 N 
ATOM     18  H   UNL     1       3.958   8.933  17.550  0.00  0.00    +0.000 HD
BRANCH  17  19
ATOM     19  C   UNL     1       1.823   9.019  17.563  0.00  0.00    +0.000 C 
BRANCH  19  23
ATOM     20  C   UNL     1      -0.969  11.233  20.361  0.00  0.00    +0.000 A 
ATOM     21  C   UNL     1       0.318  10.831  20.698  0.00  0.00    +0.000 A 
ATOM     22  C   UNL     1       1.157  10.101  19.810  0.00  0.00    +0.000 A 
ATOM     23  C   UNL     1       0.734   9.672  18.520  0.00  0.00    +0.000 A 
ATOM     24  C   UNL     1      -0.558  10.143  18.174  0.00  0.00    +0.000 A 
ATOM     25  C   UNL     1      -1.390  10.904  19.075  0.00  0.00    +0.000 A 
BRANCH  20  27
ATOM     26  C   UNL     1      -1.015  12.091  22.615  0.00  0.00    +0.000 C 
ATOM     27  O   UNL     1      -1.632  11.907  21.337  0.00  0.00    +0.000 OA
ENDBRANCH  20  27
ENDBRANCH  19  23
ENDBRANCH  17  19
ENDBRANCH   1  17
BRANCH   9  28
ATOM     28  C   UNL     1       1.241   5.762  20.785  0.00  0.00    +0.000 C 
BRANCH  28  29
ATOM     29  O   UNL     1       1.734   7.056  21.106  0.00  0.00    +0.000 OA
ATOM     30  H   UNL     1       0.969   7.653  21.055  0.00  0.00    +0.000 HD
ENDBRANCH  28  29
ENDBRANCH   9  28
TORSDOF 6
ENDMDL
MODEL 6
REMARK VINA RESULT:      -7.9      3.268      8.489
REMARK  Name = 
REMARK  7 active torsions:
REMARK  status: ('A' for Active; 'I' for Inactive)
REMARK    1  A    between atoms: C_1  and  O_2
REMARK    2  A    between atoms: O_2  and  C_3
REMARK    3  A    between atoms: C_6  and  C_7
REMARK    4  A    between atoms: C_7  and  N_8
REMARK    5  A    between atoms: N_8  and  C_9
REMARK    6  A    between atoms: C_17  and  C_18
REMARK    7  A    between atoms: C_18  and  O_19
REMARK                            x       y       z     vdW  Elec       q    Type
REMARK                         _______ _______ _______ _____ _____    ______ ____
ROOT
ATOM      1  C   UNL     1       4.011   6.927  17.554  0.00  0.00    +0.000 A 
ATOM      2  N   UNL     1       4.336   5.841  18.247  0.00  0.00    +0.000 NA
ATOM      3  C   UNL     1       3.467   5.462  19.170  0.00  0.00    +0.000 A 
ATOM      4  N   UNL     1       2.563   4.493  18.744  0.00  0.00    +0.000 N 
ATOM      5  C   UNL     1       1.146   4.587  19.119  0.00  0.00    +0.000 C 
ATOM      6  C   UNL     1       0.818   3.849  20.416  0.00  0.00    +0.000 C 
ATOM      7  C   UNL     1       1.525   2.498  20.523  0.00  0.00    +0.000 C 
ATOM      8  C   UNL     1       3.008   2.600  20.158  0.00  0.00    +0.000 C 
ATOM      9  C   UNL     1       3.131   3.152  18.736  0.00  0.00    +0.000 C 
ATOM     10  N   UNL     1       3.077   6.321  20.067  0.00  0.00    +0.000 NA
ATOM     11  C   UNL     1       2.634   7.414  19.535  0.00  0.00    +0.000 A 
ATOM     12  C   UNL     1       1.674   7.959  20.352  0.00  0.00    +0.000 A 
ATOM     13  C   UNL     1       0.779   8.890  19.852  0.00  0.00    +0.000 A 
ATOM     14  C   UNL     1       0.976   9.350  18.560  0.00  0.00    +0.000 A 
ATOM     15  C   UNL     1       2.053   8.852  17.739  0.00  0.00    +0.000 A 
ATOM     16  C   UNL     1       2.937   7.783  18.165  0.00  0.00    +0.000 A 
ENDROOT
BRANCH   1  17
ATOM     17  N   UNL     1       4.608   6.946  16.220  0.00  0.00    +0.000 N 
ATOM     18  H   UNL     1       4.847   7.899  15.972  0.00  0.00    +0.000 HD
BRANCH  17  19
ATOM     19  C   UNL     1       5.870   6.029  16.119  0.00  0.00    +0.000 C 
BRANCH  19  23
ATOM     20  C   UNL     1       6.624   3.575  12.385  0.00  0.00    +0.000 A 
ATOM     21  C   UNL     1       5.498   3.447  13.191  0.00  0.00    +0.000 A 
ATOM     22  C   UNL     1       5.308   4.205  14.380  0.00  0.00    +0.000 A 
ATOM     23  C   UNL     1       6.278   5.121  14.879  0.00  0.00    +0.000 A 
ATOM     24  C   UNL     1       7.390   5.279  14.013  0.00  0.00    +0.000 A 
ATOM     25  C   UNL     1       7.558   4.522  12.796  0.00  0.00    +0.000 A 
BRANCH  20  27
ATOM     26  C   UNL     1       5.937   1.517  11.331  0.00  0.00    +0.000 C 
ATOM     27  O   UNL     1       6.644   2.760  11.298  0.00  0.00    +0.000 OA
ENDBRANCH  20  27
ENDBRANCH  19  23
ENDBRANCH  17  19
ENDBRANCH   1  17
BRANCH   9  28
ATOM     28  C   UNL     1       4.553   3.077  18.154  0.00  0.00    +0.000 C 
BRANCH  28  29
ATOM     29  O   UNL     1       5.541   3.105  19.176  0.00  0.00    +0.000 OA
ATOM     30  H   UNL     1       5.878   4.016  19.195  0.00  0.00    +0.000 HD
ENDBRANCH  28  29
ENDBRANCH   9  28
TORSDOF 6
ENDMDL
MODEL 7
REMARK VINA RESULT:      -7.7      2.588      4.450
REMARK  Name = 
REMARK  7 active torsions:
REMARK  status: ('A' for Active; 'I' for Inactive)
REMARK    1  A    between atoms: C_1  and  O_2
REMARK    2  A    between atoms: O_2  and  C_3
REMARK    3  A    between atoms: C_6  and  C_7
REMARK    4  A    between atoms: C_7  and  N_8
REMARK    5  A    between atoms: N_8  and  C_9
REMARK    6  A    between atoms: C_17  and  C_18
REMARK    7  A    between atoms: C_18  and  O_19
REMARK                            x       y       z     vdW  Elec       q    Type
REMARK                         _______ _______ _______ _____ _____    ______ ____
ROOT
ATOM      1  C   UNL     1       3.433   6.832  17.513  0.00  0.00    +0.000 A 
ATOM      2  N   UNL     1       2.553   6.072  18.156  0.00  0.00    +0.000 NA
ATOM      3  C   UNL     1       2.933   4.828  18.402  0.00  0.00    +0.000 A 
ATOM      4  N   UNL     1       3.491   4.638  19.662  0.00  0.00    +0.000 N 
ATOM      5  C   UNL     1       4.682   3.794  19.825  0.00  0.00    +0.000 C 
ATOM      6  C   UNL     1       4.348   2.333  20.117  0.00  0.00    +0.000 C 
ATOM      7  C   UNL     1       3.189   2.176  21.101  0.00  0.00    +0.000 C 
ATOM      8  C   UNL     1       2.008   3.082  20.742  0.00  0.00    +0.000 C 
ATOM      9  C   UNL     1       2.490   4.535  20.716  0.00  0.00    +0.000 C 
ATOM     10  N   UNL     1       3.355   4.086  17.419  0.00  0.00    +0.000 NA
ATOM     11  C   UNL     1       4.299   4.660  16.746  0.00  0.00    +0.000 A 
ATOM     12  C   UNL     1       5.133   3.701  16.225  0.00  0.00    +0.000 A 
ATOM     13  C   UNL     1       6.408   4.037  15.807  0.00  0.00    +0.000 A 
ATOM     14  C   UNL     1       6.755   5.379  15.798  0.00  0.00    +0.000 A 
ATOM     15  C   UNL     1       5.837   6.397  16.246  0.00  0.00    +0.000 A 
ATOM     16  C   UNL     1       4.538   6.089  16.818  0.00  0.00    +0.000 A 
ENDROOT
BRANCH   1  17
ATOM     17  N   UNL     1       3.272   8.255  17.808  0.00  0.00    +0.000 N 
ATOM     18  H   UNL     1       3.734   8.801  17.090  0.00  0.00    +0.000 HD
BRANCH  17  19
ATOM     19  C   UNL     1       1.770   8.673  17.921  0.00  0.00    +0.000 C 
BRANCH  19  23
ATOM     20  C   UNL     1       0.032  12.699  19.063  0.00  0.00    +0.000 A 
ATOM     21  C   UNL     1      -0.705  11.522  18.988  0.00  0.00    +0.000 A 
ATOM     22  C   UNL     1      -0.138  10.279  18.588  0.00  0.00    +0.000 A 
ATOM     23  C   UNL     1       1.218  10.143  18.177  0.00  0.00    +0.000 A 
ATOM     24  C   UNL     1       1.965  11.340  18.317  0.00  0.00    +0.000 A 
ATOM     25  C   UNL     1       1.383  12.589  18.749  0.00  0.00    +0.000 A 
BRANCH  20  27
ATOM     26  C   UNL     1      -1.779  13.642  20.349  0.00  0.00    +0.000 C 
ATOM     27  O   UNL     1      -0.677  13.793  19.449  0.00  0.00    +0.000 OA
ENDBRANCH  20  27
ENDBRANCH  19  23
ENDBRANCH  17  19
ENDBRANCH   1  17
BRANCH   9  28
ATOM     28  C   UNL     1       1.358   5.569  20.608  0.00  0.00    +0.000 C 
BRANCH  28  29
ATOM     29  O   UNL     1       1.794   6.868  20.988  0.00  0.00    +0.000 OA
ATOM     30  H   UNL     1       1.402   7.480  20.342  0.00  0.00    +0.000 HD
ENDBRANCH  28  29
ENDBRANCH   9  28
TORSDOF 6
ENDMDL
MODEL 8
REMARK VINA RESULT:      -7.5      2.119      4.176
REMARK  Name = 
REMARK  7 active torsions:
REMARK  status: ('A' for Active; 'I' for Inactive)
REMARK    1  A    between atoms: C_1  and  O_2
REMARK    2  A    between atoms: O_2  and  C_3
REMARK    3  A    between atoms: C_6  and  C_7
REMARK    4  A    between atoms: C_7  and  N_8
REMARK    5  A    between atoms: N_8  and  C_9
REMARK    6  A    between atoms: C_17  and  C_18
REMARK    7  A    between atoms: C_18  and  O_19
REMARK                            x       y       z     vdW  Elec       q    Type
REMARK                         _______ _______ _______ _____ _____    ______ ____
ROOT
ATOM      1  C   UNL     1       3.447   6.753  17.618  0.00  0.00    +0.000 A 
ATOM      2  N   UNL     1       2.620   5.929  18.254  0.00  0.00    +0.000 NA
ATOM      3  C   UNL     1       3.056   4.693  18.430  0.00  0.00    +0.000 A 
ATOM      4  N   UNL     1       3.664   4.470  19.662  0.00  0.00    +0.000 N 
ATOM      5  C   UNL     1       4.892   3.668  19.747  0.00  0.00    +0.000 C 
ATOM      6  C   UNL     1       4.625   2.183  19.982  0.00  0.00    +0.000 C 
ATOM      7  C   UNL     1       3.507   1.935  20.996  0.00  0.00    +0.000 C 
ATOM      8  C   UNL     1       2.281   2.808  20.716  0.00  0.00    +0.000 C 
ATOM      9  C   UNL     1       2.704   4.279  20.741  0.00  0.00    +0.000 C 
ATOM     10  N   UNL     1       3.474   4.013  17.401  0.00  0.00    +0.000 NA
ATOM     11  C   UNL     1       4.371   4.654  16.725  0.00  0.00    +0.000 A 
ATOM     12  C   UNL     1       5.223   3.753  16.135  0.00  0.00    +0.000 A 
ATOM     13  C   UNL     1       6.470   4.159  15.691  0.00  0.00    +0.000 A 
ATOM     14  C   UNL     1       6.763   5.513  15.732  0.00  0.00    +0.000 A 
ATOM     15  C   UNL     1       5.822   6.472  16.256  0.00  0.00    +0.000 A 
ATOM     16  C   UNL     1       4.557   6.087  16.855  0.00  0.00    +0.000 A 
ENDROOT
BRANCH   1  17
ATOM     17  N   UNL     1       3.241   8.153  17.983  0.00  0.00    +0.000 N 
ATOM     18  H   UNL     1       3.711   8.748  17.311  0.00  0.00    +0.000 HD
BRANCH  17  19
ATOM     19  C   UNL     1       1.726   8.529  18.070  0.00  0.00    +0.000 C 
BRANCH  19  23
ATOM     20  C   UNL     1       0.116  10.736  21.685  0.00  0.00    +0.000 A 
ATOM     21  C   UNL     1       0.655   9.455  21.727  0.00  0.00    +0.000 A 
ATOM     22  C   UNL     1       1.116   8.772  20.567  0.00  0.00    +0.000 A 
ATOM     23  C   UNL     1       1.017   9.317  19.255  0.00  0.00    +0.000 A 
ATOM     24  C   UNL     1       0.521  10.646  19.242  0.00  0.00    +0.000 A 
ATOM     25  C   UNL     1       0.079  11.337  20.430  0.00  0.00    +0.000 A 
BRANCH  20  27
ATOM     26  C   UNL     1      -1.237  12.295  22.933  0.00  0.00    +0.000 C 
ATOM     27  O   UNL     1      -0.287  11.226  22.887  0.00  0.00    +0.000 OA
ENDBRANCH  20  27
ENDBRANCH  19  23
ENDBRANCH  17  19
ENDBRANCH   1  17
BRANCH   9  28
ATOM     28  C   UNL     1       1.529   5.270  20.718  0.00  0.00    +0.000 C 
BRANCH  28  29
ATOM     29  O   UNL     1       0.304   4.627  20.391  0.00  0.00    +0.000 OA
ATOM     30  H   UNL     1      -0.058   5.113  19.632  0.00  0.00    +0.000 HD
ENDBRANCH  28  29
ENDBRANCH   9  28
TORSDOF 6
ENDMDL
MODEL 9
REMARK VINA RESULT:      -7.5      4.117      8.386
REMARK  Name = 
REMARK  7 active torsions:
REMARK  status: ('A' for Active; 'I' for Inactive)
REMARK    1  A    between atoms: C_1  and  O_2
REMARK    2  A    between atoms: O_2  and  C_3
REMARK    3  A    between atoms: C_6  and  C_7
REMARK    4  A    between atoms: C_7  and  N_8
REMARK    5  A    between atoms: N_8  and  C_9
REMARK    6  A    between atoms: C_17  and  C_18
REMARK    7  A    between atoms: C_18  and  O_19
REMARK                            x       y       z     vdW  Elec       q    Type
REMARK                         _______ _______ _______ _____ _____    ______ ____
ROOT
ATOM      1  C   UNL     1       5.691   5.217  18.455  0.00  0.00    +0.000 A 
ATOM      2  N   UNL     1       5.252   4.292  19.302  0.00  0.00    +0.000 NA
ATOM      3  C   UNL     1       3.944   4.255  19.492  0.00  0.00    +0.000 A 
ATOM      4  N   UNL     1       3.273   3.337  18.689  0.00  0.00    +0.000 N 
ATOM      5  C   UNL     1       1.994   3.697  18.063  0.00  0.00    +0.000 C 
ATOM      6  C   UNL     1       0.782   3.334  18.919  0.00  0.00    +0.000 C 
ATOM      7  C   UNL     1       0.920   1.966  19.590  0.00  0.00    +0.000 C 
ATOM      8  C   UNL     1       2.292   1.790  20.247  0.00  0.00    +0.000 C 
ATOM      9  C   UNL     1       3.377   1.971  19.183  0.00  0.00    +0.000 C 
ATOM     10  N   UNL     1       3.321   5.344  19.840  0.00  0.00    +0.000 NA
ATOM     11  C   UNL     1       3.575   6.329  19.040  0.00  0.00    +0.000 A 
ATOM     12  C   UNL     1       2.489   7.169  18.995  0.00  0.00    +0.000 A 
ATOM     13  C   UNL     1       2.340   8.062  17.949  0.00  0.00    +0.000 A 
ATOM     14  C   UNL     1       3.381   8.176  17.041  0.00  0.00    +0.000 A 
ATOM     15  C   UNL     1       4.569   7.365  17.151  0.00  0.00    +0.000 A 
ATOM     16  C   UNL     1       4.720   6.322  18.149  0.00  0.00    +0.000 A 
ENDROOT
BRANCH   1  17
ATOM     17  N   UNL     1       6.951   4.845  17.815  0.00  0.00    +0.000 N 
ATOM     18  H   UNL     1       7.017   3.834  17.766  0.00  0.00    +0.000 HD
BRANCH  17  19
ATOM     19  C   UNL     1       7.102   5.465  16.388  0.00  0.00    +0.000 C 
BRANCH  19  23
ATOM     20  C   UNL     1       5.852   3.616  12.445  0.00  0.00    +0.000 A 
ATOM     21  C   UNL     1       5.105   3.540  13.616  0.00  0.00    +0.000 A 
ATOM     22  C   UNL     1       5.544   4.098  14.849  0.00  0.00    +0.000 A 
ATOM     23  C   UNL     1       6.808   4.734  15.007  0.00  0.00    +0.000 A 
ATOM     24  C   UNL     1       7.526   4.852  13.790  0.00  0.00    +0.000 A 
ATOM     25  C   UNL     1       7.058   4.304  12.539  0.00  0.00    +0.000 A 
BRANCH  20  27
ATOM     26  C   UNL     1       3.880   3.154  11.134  0.00  0.00    +0.000 C 
ATOM     27  O   UNL     1       5.285   3.015  11.366  0.00  0.00    +0.000 OA
ENDBRANCH  20  27
ENDBRANCH  19  23
ENDBRANCH  17  19
ENDBRANCH   1  17
BRANCH   9  28
ATOM     28  C   UNL     1       4.788   1.580  19.653  0.00  0.00    +0.000 C 
BRANCH  28  29
ATOM     29  O   UNL     1       4.924   1.697  21.063  0.00  0.00    +0.000 OA
ATOM     30  H   UNL     1       4.397   2.473  21.318  0.00  0.00    +0.000 HD
ENDBRANCH  28  29
ENDBRANCH   9  28
TORSDOF 6
ENDMDL
