MODEL 1
REMARK VINA RESULT:      -7.8      0.000      0.000
REMARK  Name = 
REMARK  5 active torsions:
REMARK  status: ('A' for Active; 'I' for Inactive)
REMARK    1  A    between atoms: C_2  and  C_17
REMARK    2  A    between atoms: N_3  and  N_4
REMARK    3  A    between atoms: C_5  and  C_6
REMARK    4  A    between atoms: C_7  and  O_8
REMARK    5  A    between atoms: C_23  and  O_24
REMARK                            x       y       z     vdW  Elec       q    Type
REMARK                         _______ _______ _______ _____ _____    ______ ____
ROOT
ATOM      1  N   UNL     1       2.412   7.395  19.575  0.00  0.00    +0.000 NA
ATOM      2  C   UNL     1       2.332   6.985  18.347  0.00  0.00    +0.000 C 
ENDROOT
BRANCH   2   3
ATOM      3  C   UNL     1       3.063   5.766  17.928  0.00  0.00    +0.000 A 
ATOM      4  C   UNL     1       4.244   5.914  17.179  0.00  0.00    +0.000 A 
ATOM      5  C   UNL     1       4.958   4.803  16.757  0.00  0.00    +0.000 A 
ATOM      6  C   UNL     1       4.489   3.528  17.056  0.00  0.00    +0.000 A 
ATOM      7  C   UNL     1       3.308   3.343  17.793  0.00  0.00    +0.000 A 
ATOM      8  C   UNL     1       2.857   2.043  18.060  0.00  0.00    +0.000 A 
ATOM      9  C   UNL     1       1.685   1.821  18.778  0.00  0.00    +0.000 A 
ATOM     10  C   UNL     1       0.948   2.901  19.240  0.00  0.00    +0.000 A 
ATOM     11  C   UNL     1       1.382   4.206  18.981  0.00  0.00    +0.000 A 
ATOM     12  C   UNL     1       2.571   4.469  18.254  0.00  0.00    +0.000 A 
BRANCH   4  13
ATOM     13  O   UNL     1       4.768   7.129  16.824  0.00  0.00    +0.000 OA
ATOM     14  H   UNL     1       4.350   7.821  17.387  0.00  0.00    +0.000 HD
ENDBRANCH   4  13
ENDBRANCH   2   3
BRANCH   1  17
ATOM     15  O   UNL     1       0.559   7.564  21.605  0.00  0.00    +0.000 OA
ATOM     16  C   UNL     1       0.839   8.550  20.926  0.00  0.00    +0.000 C 
ATOM     17  N   UNL     1       1.743   8.536  19.876  0.00  0.00    +0.000 N 
ATOM     18  H   UNL     1       1.943   9.404  19.383  0.00  0.00    +0.000 HD
BRANCH  16  19
ATOM     19  C   UNL     1       0.188   9.865  21.230  0.00  0.00    +0.000 A 
ATOM     20  C   UNL     1       0.129  10.808  20.189  0.00  0.00    +0.000 A 
ATOM     21  C   UNL     1      -0.478  12.046  20.393  0.00  0.00    +0.000 A 
ATOM     22 BR   UNL     1      -0.552  13.304  18.983  0.00  0.00    +0.000 Br
ATOM     23  C   UNL     1      -1.032  12.368  21.629  0.00  0.00    +0.000 A 
ATOM     24  C   UNL     1      -0.975  11.446  22.674  0.00  0.00    +0.000 A 
ATOM     25  C   UNL     1      -0.370  10.200  22.478  0.00  0.00    +0.000 A 
BRANCH  25  26
ATOM     26  O   UNL     1      -0.338   9.314  23.523  0.00  0.00    +0.000 OA
ATOM     27  H   UNL     1      -1.049   8.659  23.397  0.00  0.00    +0.000 HD
ENDBRANCH  25  26
ENDBRANCH  16  19
ENDBRANCH   1  17
TORSDOF 5
ENDMDL
MODEL 2
REMARK VINA RESULT:      -7.8      2.249      2.690
REMARK  Name = 
REMARK  5 active torsions:
REMARK  status: ('A' for Active; 'I' for Inactive)
REMARK    1  A    between atoms: C_2  and  C_17
REMARK    2  A    between atoms: N_3  and  N_4
REMARK    3  A    between atoms: C_5  and  C_6
REMARK    4  A    between atoms: C_7  and  O_8
REMARK    5  A    between atoms: C_23  and  O_24
REMARK                            x       y       z     vdW  Elec       q    Type
REMARK                         _______ _______ _______ _____ _____    ______ ____
ROOT
ATOM      1  N   UNL     1       1.991   7.920  18.150  0.00  0.00    +0.000 NA
ATOM      2  C   UNL     1       2.589   7.035  18.884  0.00  0.00    +0.000 C 
ENDROOT
BRANCH   2   3
ATOM      3  C   UNL     1       3.111   5.794  18.264  0.00  0.00    +0.000 A 
ATOM      4  C   UNL     1       4.176   5.894  17.351  0.00  0.00    +0.000 A 
ATOM      5  C   UNL     1       4.691   4.761  16.739  0.00  0.00    +0.000 A 
ATOM      6  C   UNL     1       4.134   3.515  17.012  0.00  0.00    +0.000 A 
ATOM      7  C   UNL     1       3.064   3.381  17.911  0.00  0.00    +0.000 A 
ATOM      8  C   UNL     1       2.516   2.112  18.146  0.00  0.00    +0.000 A 
ATOM      9  C   UNL     1       1.447   1.941  19.022  0.00  0.00    +0.000 A 
ATOM     10  C   UNL     1       0.911   3.041  19.675  0.00  0.00    +0.000 A 
ATOM     11  C   UNL     1       1.443   4.315  19.449  0.00  0.00    +0.000 A 
ATOM     12  C   UNL     1       2.533   4.526  18.565  0.00  0.00    +0.000 A 
BRANCH   4  13
ATOM     13  O   UNL     1       4.772   7.079  17.010  0.00  0.00    +0.000 OA
ATOM     14  H   UNL     1       4.125   7.612  16.493  0.00  0.00    +0.000 HD
ENDBRANCH   4  13
ENDBRANCH   2   3
BRANCH   1  17
ATOM     15  O   UNL     1       2.620  10.499  17.415  0.00  0.00    +0.000 OA
ATOM     16  C   UNL     1       1.856  10.282  18.353  0.00  0.00    +0.000 C 
ATOM     17  N   UNL     1       1.511   9.014  18.794  0.00  0.00    +0.000 N 
ATOM     18  H   UNL     1       0.845   8.919  19.559  0.00  0.00    +0.000 HD
BRANCH  16  19
ATOM     19  C   UNL     1       1.235  11.435  19.081  0.00  0.00    +0.000 A 
ATOM     20  C   UNL     1       0.520  11.141  20.256  0.00  0.00    +0.000 A 
ATOM     21  C   UNL     1      -0.070  12.165  20.996  0.00  0.00    +0.000 A 
ATOM     22 BR   UNL     1      -1.026  11.756  22.576  0.00  0.00    +0.000 Br
ATOM     23  C   UNL     1       0.038  13.490  20.583  0.00  0.00    +0.000 A 
ATOM     24  C   UNL     1       0.738  13.796  19.416  0.00  0.00    +0.000 A 
ATOM     25  C   UNL     1       1.334  12.776  18.668  0.00  0.00    +0.000 A 
BRANCH  25  26
ATOM     26  O   UNL     1       2.021  13.112  17.530  0.00  0.00    +0.000 OA
ATOM     27  H   UNL     1       1.990  14.081  17.424  0.00  0.00    +0.000 HD
ENDBRANCH  25  26
ENDBRANCH  16  19
ENDBRANCH   1  17
TORSDOF 5
ENDMDL
MODEL 3
REMARK VINA RESULT:      -7.8      5.687      7.116
REMARK  Name = 
REMARK  5 active torsions:
REMARK  status: ('A' for Active; 'I' for Inactive)
REMARK    1  A    between atoms: C_2  and  C_17
REMARK    2  A    between atoms: N_3  and  N_4
REMARK    3  A    between atoms: C_5  and  C_6
REMARK    4  A    between atoms: C_7  and  O_8
REMARK    5  A    between atoms: C_23  and  O_24
REMARK                            x       y       z     vdW  Elec       q    Type
REMARK                         _______ _______ _______ _____ _____    ______ ____
ROOT
ATOM      1  N   UNL     1       7.573   7.814  17.014  0.00  0.00    +0.000 NA
ATOM      2  C   UNL     1       6.404   7.471  17.458  0.00  0.00    +0.000 C 
ENDROOT
BRANCH   2   3
ATOM      3  C   UNL     1       5.787   6.201  17.005  0.00  0.00    +0.000 A 
ATOM      4  C   UNL     1       6.459   5.435  16.037  0.00  0.00    +0.000 A 
ATOM      5  C   UNL     1       5.917   4.244  15.576  0.00  0.00    +0.000 A 
ATOM      6  C   UNL     1       4.684   3.816  16.058  0.00  0.00    +0.000 A 
ATOM      7  C   UNL     1       3.981   4.563  17.017  0.00  0.00    +0.000 A 
ATOM      8  C   UNL     1       2.732   4.109  17.466  0.00  0.00    +0.000 A 
ATOM      9  C   UNL     1       2.001   4.827  18.408  0.00  0.00    +0.000 A 
ATOM     10  C   UNL     1       2.513   6.014  18.915  0.00  0.00    +0.000 A 
ATOM     11  C   UNL     1       3.755   6.483  18.476  0.00  0.00    +0.000 A 
ATOM     12  C   UNL     1       4.528   5.775  17.519  0.00  0.00    +0.000 A 
BRANCH   4  13
ATOM     13  O   UNL     1       7.666   5.788  15.495  0.00  0.00    +0.000 OA
ATOM     14  H   UNL     1       8.092   4.976  15.135  0.00  0.00    +0.000 HD
ENDBRANCH   4  13
ENDBRANCH   2   3
BRANCH   1  17
ATOM     15  O   UNL     1       8.993   8.100  19.356  0.00  0.00    +0.000 OA
ATOM     16  C   UNL     1       8.782   9.068  18.627  0.00  0.00    +0.000 C 
ATOM     17  N   UNL     1       8.058   9.005  17.448  0.00  0.00    +0.000 N 
ATOM     18  H   UNL     1       7.955   9.847  16.883  0.00  0.00    +0.000 HD
BRANCH  16  19
ATOM     19  C   UNL     1       9.333  10.409  19.003  0.00  0.00    +0.000 A 
ATOM     20  C   UNL     1       9.827  11.215  17.961  0.00  0.00    +0.000 A 
ATOM     21  C   UNL     1      10.339  12.483  18.232  0.00  0.00    +0.000 A 
ATOM     22 BR   UNL     1      10.996  13.556  16.821  0.00  0.00    +0.000 Br
ATOM     23  C   UNL     1      10.372  12.969  19.537  0.00  0.00    +0.000 A 
ATOM     24  C   UNL     1       9.892  12.179  20.581  0.00  0.00    +0.000 A 
ATOM     25  C   UNL     1       9.375  10.906  20.318  0.00  0.00    +0.000 A 
BRANCH  25  26
ATOM     26  O   UNL     1       8.905  10.159  21.367  0.00  0.00    +0.000 OA
ATOM     27  H   UNL     1       8.787  10.745  22.137  0.00  0.00    +0.000 HD
ENDBRANCH  25  26
ENDBRANCH  16  19
ENDBRANCH   1  17
TORSDOF 5
ENDMDL
MODEL 4
REMARK VINA RESULT:      -7.8      1.490      2.917
REMARK  Name = 
REMARK  5 active torsions:
REMARK  status: ('A' for Active; 'I' for Inactive)
REMARK    1  A    between atoms: C_2  and  C_17
REMARK    2  A    between atoms: N_3  and  N_4
REMARK    3  A    between atoms: C_5  and  C_6
REMARK    4  A    between atoms: C_7  and  O_8
REMARK    5  A    between atoms: C_23  and  O_24
REMARK                            x       y       z     vdW  Elec       q    Type
REMARK                         _______ _______ _______ _____ _____    ______ ____
ROOT
ATOM      1  N   UNL     1       2.113   6.810  20.458  0.00  0.00    +0.000 NA
ATOM      2  C   UNL     1       1.419   5.728  20.293  0.00  0.00    +0.000 C 
ENDROOT
BRANCH   2   3
ATOM      3  C   UNL     1       1.988   4.599  19.518  0.00  0.00    +0.000 A 
ATOM      4  C   UNL     1       1.588   3.291  19.843  0.00  0.00    +0.000 A 
ATOM      5  C   UNL     1       2.099   2.203  19.151  0.00  0.00    +0.000 A 
ATOM      6  C   UNL     1       3.036   2.406  18.142  0.00  0.00    +0.000 A 
ATOM      7  C   UNL     1       3.465   3.698  17.799  0.00  0.00    +0.000 A 
ATOM      8  C   UNL     1       4.425   3.862  16.790  0.00  0.00    +0.000 A 
ATOM      9  C   UNL     1       4.882   5.126  16.430  0.00  0.00    +0.000 A 
ATOM     10  C   UNL     1       4.383   6.247  17.078  0.00  0.00    +0.000 A 
ATOM     11  C   UNL     1       3.428   6.102  18.090  0.00  0.00    +0.000 A 
ATOM     12  C   UNL     1       2.939   4.829  18.481  0.00  0.00    +0.000 A 
BRANCH   4  13
ATOM     13  O   UNL     1       0.686   2.998  20.831  0.00  0.00    +0.000 OA
ATOM     14  H   UNL     1       0.598   3.789  21.411  0.00  0.00    +0.000 HD
ENDBRANCH   4  13
ENDBRANCH   2   3
BRANCH   1  17
ATOM     15  O   UNL     1       1.229   9.137  19.279  0.00  0.00    +0.000 OA
ATOM     16  C   UNL     1       1.076   8.946  20.484  0.00  0.00    +0.000 C 
ATOM     17  N   UNL     1       1.513   7.812  21.150  0.00  0.00    +0.000 N 
ATOM     18  H   UNL     1       1.318   7.716  22.145  0.00  0.00    +0.000 HD
BRANCH  16  19
ATOM     19  C   UNL     1       0.370   9.977  21.311  0.00  0.00    +0.000 A 
ATOM     20  C   UNL     1       0.607  11.326  20.993  0.00  0.00    +0.000 A 
ATOM     21  C   UNL     1      -0.028  12.341  21.707  0.00  0.00    +0.000 A 
ATOM     22 BR   UNL     1       0.297  14.151  21.267  0.00  0.00    +0.000 Br
ATOM     23  C   UNL     1      -0.902  12.034  22.747  0.00  0.00    +0.000 A 
ATOM     24  C   UNL     1      -1.142  10.701  23.079  0.00  0.00    +0.000 A 
ATOM     25  C   UNL     1      -0.510   9.676  22.366  0.00  0.00    +0.000 A 
BRANCH  25  26
ATOM     26  O   UNL     1      -0.773   8.376  22.714  0.00  0.00    +0.000 OA
ATOM     27  H   UNL     1      -0.517   7.799  21.971  0.00  0.00    +0.000 HD
ENDBRANCH  25  26
ENDBRANCH  16  19
ENDBRANCH   1  17
TORSDOF 5
ENDMDL
MODEL 5
REMARK VINA RESULT:      -7.7      1.366      2.695
REMARK  Name = 
REMARK  5 active torsions:
REMARK  status: ('A' for Active; 'I' for Inactive)
REMARK    1  A    between atoms: C_2  and  C_17
REMARK    2  A    between atoms: N_3  and  N_4
REMARK    3  A    between atoms: C_5  and  C_6
REMARK    4  A    between atoms: C_7  and  O_8
REMARK    5  A    between atoms: C_23  and  O_24
REMARK                            x       y       z     vdW  Elec       q    Type
REMARK                         _______ _______ _______ _____ _____    ______ ____
ROOT
ATOM      1  N   UNL     1       2.105   7.317  20.010  0.00  0.00    +0.000 NA
ATOM      2  C   UNL     1       2.144   6.927  18.775  0.00  0.00    +0.000 C 
ENDROOT
BRANCH   2   3
ATOM      3  C   UNL     1       2.705   5.597  18.438  0.00  0.00    +0.000 A 
ATOM      4  C   UNL     1       2.185   4.464  19.089  0.00  0.00    +0.000 A 
ATOM      5  C   UNL     1       2.684   3.200  18.813  0.00  0.00    +0.000 A 
ATOM      6  C   UNL     1       3.725   3.052  17.901  0.00  0.00    +0.000 A 
ATOM      7  C   UNL     1       4.273   4.164  17.241  0.00  0.00    +0.000 A 
ATOM      8  C   UNL     1       5.334   3.979  16.343  0.00  0.00    +0.000 A 
ATOM      9  C   UNL     1       5.910   5.057  15.678  0.00  0.00    +0.000 A 
ATOM     10  C   UNL     1       5.431   6.339  15.905  0.00  0.00    +0.000 A 
ATOM     11  C   UNL     1       4.376   6.543  16.800  0.00  0.00    +0.000 A 
ATOM     12  C   UNL     1       3.764   5.467  17.494  0.00  0.00    +0.000 A 
BRANCH   4  13
ATOM     13  O   UNL     1       1.175   4.517  20.012  0.00  0.00    +0.000 OA
ATOM     14  H   UNL     1       0.438   3.945  19.696  0.00  0.00    +0.000 HD
ENDBRANCH   4  13
ENDBRANCH   2   3
BRANCH   1  17
ATOM     15  O   UNL     1      -0.146   7.788  21.525  0.00  0.00    +0.000 OA
ATOM     16  C   UNL     1       0.483   8.720  21.028  0.00  0.00    +0.000 C 
ATOM     17  N   UNL     1       1.609   8.559  20.237  0.00  0.00    +0.000 N 
ATOM     18  H   UNL     1       2.093   9.385  19.889  0.00  0.00    +0.000 HD
BRANCH  16  19
ATOM     19  C   UNL     1       0.037  10.128  21.277  0.00  0.00    +0.000 A 
ATOM     20  C   UNL     1       0.071  11.015  20.187  0.00  0.00    +0.000 A 
ATOM     21  C   UNL     1      -0.346  12.337  20.339  0.00  0.00    +0.000 A 
ATOM     22 BR   UNL     1      -0.297  13.517  18.863  0.00  0.00    +0.000 Br
ATOM     23  C   UNL     1      -0.800  12.798  21.572  0.00  0.00    +0.000 A 
ATOM     24  C   UNL     1      -0.833  11.932  22.665  0.00  0.00    +0.000 A 
ATOM     25  C   UNL     1      -0.418  10.604  22.521  0.00  0.00    +0.000 A 
BRANCH  25  26
ATOM     26  O   UNL     1      -0.471   9.778  23.614  0.00  0.00    +0.000 OA
ATOM     27  H   UNL     1       0.409   9.766  24.035  0.00  0.00    +0.000 HD
ENDBRANCH  25  26
ENDBRANCH  16  19
ENDBRANCH   1  17
TORSDOF 5
ENDMDL
MODEL 6
REMARK VINA RESULT:      -7.7      1.220      1.320
REMARK  Name = 
REMARK  5 active torsions:
REMARK  status: ('A' for Active; 'I' for Inactive)
REMARK    1  A    between atoms: C_2  and  C_17
REMARK    2  A    between atoms: N_3  and  N_4
REMARK    3  A    between atoms: C_5  and  C_6
REMARK    4  A    between atoms: C_7  and  O_8
REMARK    5  A    between atoms: C_23  and  O_24
REMARK                            x       y       z     vdW  Elec       q    Type
REMARK                         _______ _______ _______ _____ _____    ______ ____
ROOT
ATOM      1  N   UNL     1       1.960   8.070  19.025  0.00  0.00    +0.000 NA
ATOM      2  C   UNL     1       2.457   6.987  19.536  0.00  0.00    +0.000 C 
ENDROOT
BRANCH   2   3
ATOM      3  C   UNL     1       2.940   5.906  18.644  0.00  0.00    +0.000 A 
ATOM      4  C   UNL     1       3.930   6.210  17.693  0.00  0.00    +0.000 A 
ATOM      5  C   UNL     1       4.407   5.234  16.832  0.00  0.00    +0.000 A 
ATOM      6  C   UNL     1       3.885   3.945  16.892  0.00  0.00    +0.000 A 
ATOM      7  C   UNL     1       2.888   3.610  17.823  0.00  0.00    +0.000 A 
ATOM      8  C   UNL     1       2.372   2.306  17.842  0.00  0.00    +0.000 A 
ATOM      9  C   UNL     1       1.377   1.939  18.742  0.00  0.00    +0.000 A 
ATOM     10  C   UNL     1       0.883   2.876  19.639  0.00  0.00    +0.000 A 
ATOM     11  C   UNL     1       1.383   4.182  19.632  0.00  0.00    +0.000 A 
ATOM     12  C   UNL     1       2.399   4.590  18.729  0.00  0.00    +0.000 A 
BRANCH   4  13
ATOM     13  O   UNL     1       4.487   7.453  17.552  0.00  0.00    +0.000 OA
ATOM     14  H   UNL     1       3.809   8.125  17.796  0.00  0.00    +0.000 HD
ENDBRANCH   4  13
ENDBRANCH   2   3
BRANCH   1  17
ATOM     15  O   UNL     1       0.071   9.965  18.374  0.00  0.00    +0.000 OA
ATOM     16  C   UNL     1       0.539   9.909  19.510  0.00  0.00    +0.000 C 
ATOM     17  N   UNL     1       1.508   9.000  19.904  0.00  0.00    +0.000 N 
ATOM     18  H   UNL     1       1.821   8.998  20.873  0.00  0.00    +0.000 HD
BRANCH  16  19
ATOM     19  C   UNL     1       0.052  10.862  20.558  0.00  0.00    +0.000 A 
ATOM     20  C   UNL     1       0.063  12.231  20.234  0.00  0.00    +0.000 A 
ATOM     21  C   UNL     1      -0.393  13.176  21.153  0.00  0.00    +0.000 A 
ATOM     22 BR   UNL     1      -0.375  15.012  20.704  0.00  0.00    +0.000 Br
ATOM     23  C   UNL     1      -0.863  12.779  22.402  0.00  0.00    +0.000 A 
ATOM     24  C   UNL     1      -0.874  11.426  22.740  0.00  0.00    +0.000 A 
ATOM     25  C   UNL     1      -0.420  10.471  21.824  0.00  0.00    +0.000 A 
BRANCH  25  26
ATOM     26  O   UNL     1      -0.451   9.149  22.185  0.00  0.00    +0.000 OA
ATOM     27  H   UNL     1      -0.539   8.609  21.378  0.00  0.00    +0.000 HD
ENDBRANCH  25  26
ENDBRANCH  16  19
ENDBRANCH   1  17
TORSDOF 5
ENDMDL
MODEL 7
REMARK VINA RESULT:      -7.7      1.461      1.636
REMARK  Name = 
REMARK  5 active torsions:
REMARK  status: ('A' for Active; 'I' for Inactive)
REMARK    1  A    between atoms: C_2  and  C_17
REMARK    2  A    between atoms: N_3  and  N_4
REMARK    3  A    between atoms: C_5  and  C_6
REMARK    4  A    between atoms: C_7  and  O_8
REMARK    5  A    between atoms: C_23  and  O_24
REMARK                            x       y       z     vdW  Elec       q    Type
REMARK                         _______ _______ _______ _____ _____    ______ ____
ROOT
ATOM      1  N   UNL     1       2.540   7.981  18.430  0.00  0.00    +0.000 NA
ATOM      2  C   UNL     1       2.118   6.854  17.947  0.00  0.00    +0.000 C 
ENDROOT
BRANCH   2   3
ATOM      3  C   UNL     1       3.059   5.718  17.796  0.00  0.00    +0.000 A 
ATOM      4  C   UNL     1       4.342   5.972  17.281  0.00  0.00    +0.000 A 
ATOM      5  C   UNL     1       5.253   4.940  17.114  0.00  0.00    +0.000 A 
ATOM      6  C   UNL     1       4.887   3.637  17.437  0.00  0.00    +0.000 A 
ATOM      7  C   UNL     1       3.610   3.347  17.945  0.00  0.00    +0.000 A 
ATOM      8  C   UNL     1       3.270   2.020  18.241  0.00  0.00    +0.000 A 
ATOM      9  C   UNL     1       2.010   1.693  18.736  0.00  0.00    +0.000 A 
ATOM     10  C   UNL     1       1.072   2.694  18.940  0.00  0.00    +0.000 A 
ATOM     11  C   UNL     1       1.393   4.023  18.647  0.00  0.00    +0.000 A 
ATOM     12  C   UNL     1       2.667   4.392  18.143  0.00  0.00    +0.000 A 
BRANCH   4  13
ATOM     13  O   UNL     1       4.781   7.218  16.920  0.00  0.00    +0.000 OA
ATOM     14  H   UNL     1       4.229   7.886  17.389  0.00  0.00    +0.000 HD
ENDBRANCH   4  13
ENDBRANCH   2   3
BRANCH   1  17
ATOM     15  O   UNL     1       1.265   8.685  20.768  0.00  0.00    +0.000 OA
ATOM     16  C   UNL     1       1.044   9.295  19.723  0.00  0.00    +0.000 C 
ATOM     17  N   UNL     1       1.629   8.984  18.506  0.00  0.00    +0.000 N 
ATOM     18  H   UNL     1       1.417   9.559  17.693  0.00  0.00    +0.000 HD
BRANCH  16  19
ATOM     19  C   UNL     1       0.095  10.454  19.732  0.00  0.00    +0.000 A 
ATOM     20  C   UNL     1      -1.013  10.383  18.870  0.00  0.00    +0.000 A 
ATOM     21  C   UNL     1      -1.948  11.416  18.836  0.00  0.00    +0.000 A 
ATOM     22 BR   UNL     1      -3.436  11.306  17.674  0.00  0.00    +0.000 Br
ATOM     23  C   UNL     1      -1.798  12.534  19.654  0.00  0.00    +0.000 A 
ATOM     24  C   UNL     1      -0.701  12.622  20.509  0.00  0.00    +0.000 A 
ATOM     25  C   UNL     1       0.242  11.589  20.551  0.00  0.00    +0.000 A 
BRANCH  25  26
ATOM     26  O   UNL     1       1.305  11.704  21.408  0.00  0.00    +0.000 OA
ATOM     27  H   UNL     1       1.770  10.848  21.442  0.00  0.00    +0.000 HD
ENDBRANCH  25  26
ENDBRANCH  16  19
ENDBRANCH   1  17
TORSDOF 5
ENDMDL
MODEL 8
REMARK VINA RESULT:      -7.6      1.548      2.002
REMARK  Name = 
REMARK  5 active torsions:
REMARK  status: ('A' for Active; 'I' for Inactive)
REMARK    1  A    between atoms: C_2  and  C_17
REMARK    2  A    between atoms: N_3  and  N_4
REMARK    3  A    between atoms: C_5  and  C_6
REMARK    4  A    between atoms: C_7  and  O_8
REMARK    5  A    between atoms: C_23  and  O_24
REMARK                            x       y       z     vdW  Elec       q    Type
REMARK                         _______ _______ _______ _____ _____    ______ ____
ROOT
ATOM      1  N   UNL     1       2.542   7.959  18.598  0.00  0.00    +0.000 NA
ATOM      2  C   UNL     1       2.160   6.897  17.961  0.00  0.00    +0.000 C 
ENDROOT
BRANCH   2   3
ATOM      3  C   UNL     1       3.094   5.757  17.800  0.00  0.00    +0.000 A 
ATOM      4  C   UNL     1       4.384   6.010  17.300  0.00  0.00    +0.000 A 
ATOM      5  C   UNL     1       5.289   4.975  17.125  0.00  0.00    +0.000 A 
ATOM      6  C   UNL     1       4.911   3.669  17.423  0.00  0.00    +0.000 A 
ATOM      7  C   UNL     1       3.628   3.380  17.915  0.00  0.00    +0.000 A 
ATOM      8  C   UNL     1       3.276   2.051  18.187  0.00  0.00    +0.000 A 
ATOM      9  C   UNL     1       2.010   1.724  18.665  0.00  0.00    +0.000 A 
ATOM     10  C   UNL     1       1.076   2.729  18.877  0.00  0.00    +0.000 A 
ATOM     11  C   UNL     1       1.409   4.060  18.608  0.00  0.00    +0.000 A 
ATOM     12  C   UNL     1       2.690   4.429  18.122  0.00  0.00    +0.000 A 
BRANCH   4  13
ATOM     13  O   UNL     1       4.834   7.259  16.964  0.00  0.00    +0.000 OA
ATOM     14  H   UNL     1       5.349   7.616  17.724  0.00  0.00    +0.000 HD
ENDBRANCH   4  13
ENDBRANCH   2   3
BRANCH   1  17
ATOM     15  O   UNL     1       1.020   8.457  20.839  0.00  0.00    +0.000 OA
ATOM     16  C   UNL     1       0.929   9.175  19.845  0.00  0.00    +0.000 C 
ATOM     17  N   UNL     1       1.644   8.973  18.676  0.00  0.00    +0.000 N 
ATOM     18  H   UNL     1       1.535   9.633  17.908  0.00  0.00    +0.000 HD
BRANCH  16  19
ATOM     19  C   UNL     1       0.003  10.353  19.868  0.00  0.00    +0.000 A 
ATOM     20  C   UNL     1      -0.142  11.031  21.091  0.00  0.00    +0.000 A 
ATOM     21  C   UNL     1      -0.973  12.147  21.184  0.00  0.00    +0.000 A 
ATOM     22 BR   UNL     1      -1.156  13.051  22.834  0.00  0.00    +0.000 Br
ATOM     23  C   UNL     1      -1.673  12.603  20.070  0.00  0.00    +0.000 A 
ATOM     24  C   UNL     1      -1.545  11.936  18.852  0.00  0.00    +0.000 A 
ATOM     25  C   UNL     1      -0.712  10.817  18.749  0.00  0.00    +0.000 A 
BRANCH  25  26
ATOM     26  O   UNL     1      -0.604  10.190  17.535  0.00  0.00    +0.000 OA
ATOM     27  H   UNL     1      -1.473  10.215  17.094  0.00  0.00    +0.000 HD
ENDBRANCH  25  26
ENDBRANCH  16  19
ENDBRANCH   1  17
TORSDOF 5
ENDMDL
MODEL 9
REMARK VINA RESULT:      -7.6      3.372      8.172
REMARK  Name = 
REMARK  5 active torsions:
REMARK  status: ('A' for Active; 'I' for Inactive)
REMARK    1  A    between atoms: C_2  and  C_17
REMARK    2  A    between atoms: N_3  and  N_4
REMARK    3  A    between atoms: C_5  and  C_6
REMARK    4  A    between atoms: C_7  and  O_8
REMARK    5  A    between atoms: C_23  and  O_24
REMARK                            x       y       z     vdW  Elec       q    Type
REMARK                         _______ _______ _______ _____ _____    ______ ____
ROOT
ATOM      1  N   UNL     1       1.367   8.936  19.007  0.00  0.00    +0.000 NA
ATOM      2  C   UNL     1       0.698   9.707  18.208  0.00  0.00    +0.000 C 
ENDROOT
BRANCH   2   3
ATOM      3  C   UNL     1      -0.321  10.633  18.760  0.00  0.00    +0.000 A 
ATOM      4  C   UNL     1       0.011  11.405  19.887  0.00  0.00    +0.000 A 
ATOM      5  C   UNL     1      -0.911  12.278  20.443  0.00  0.00    +0.000 A 
ATOM      6  C   UNL     1      -2.187  12.374  19.895  0.00  0.00    +0.000 A 
ATOM      7  C   UNL     1      -2.555  11.611  18.775  0.00  0.00    +0.000 A 
ATOM      8  C   UNL     1      -3.855  11.721  18.262  0.00  0.00    +0.000 A 
ATOM      9  C   UNL     1      -4.260  10.972  17.161  0.00  0.00    +0.000 A 
ATOM     10  C   UNL     1      -3.365  10.100  16.557  0.00  0.00    +0.000 A 
ATOM     11  C   UNL     1      -2.065   9.976  17.057  0.00  0.00    +0.000 A 
ATOM     12  C   UNL     1      -1.619  10.724  18.177  0.00  0.00    +0.000 A 
BRANCH   4  13
ATOM     13  O   UNL     1       1.235  11.361  20.501  0.00  0.00    +0.000 OA
ATOM     14  H   UNL     1       1.109  11.014  21.414  0.00  0.00    +0.000 HD
ENDBRANCH   4  13
ENDBRANCH   2   3
BRANCH   1  17
ATOM     15  O   UNL     1       1.842   6.382  19.923  0.00  0.00    +0.000 OA
ATOM     16  C   UNL     1       2.427   6.813  18.931  0.00  0.00    +0.000 C 
ATOM     17  N   UNL     1       2.257   8.092  18.426  0.00  0.00    +0.000 N 
ATOM     18  H   UNL     1       2.756   8.362  17.581  0.00  0.00    +0.000 HD
BRANCH  16  19
ATOM     19  C   UNL     1       3.385   5.926  18.196  0.00  0.00    +0.000 A 
ATOM     20  C   UNL     1       4.693   6.408  18.010  0.00  0.00    +0.000 A 
ATOM     21  C   UNL     1       5.644   5.631  17.350  0.00  0.00    +0.000 A 
ATOM     22 BR   UNL     1       7.399   6.291  17.110  0.00  0.00    +0.000 Br
ATOM     23  C   UNL     1       5.312   4.369  16.864  0.00  0.00    +0.000 A 
ATOM     24  C   UNL     1       4.017   3.880  17.035  0.00  0.00    +0.000 A 
ATOM     25  C   UNL     1       3.058   4.652  17.697  0.00  0.00    +0.000 A 
BRANCH  25  26
ATOM     26  O   UNL     1       1.796   4.139  17.853  0.00  0.00    +0.000 OA
ATOM     27  H   UNL     1       1.644   3.974  18.802  0.00  0.00    +0.000 HD
ENDBRANCH  25  26
ENDBRANCH  16  19
ENDBRANCH   1  17
TORSDOF 5
ENDMDL
