MODEL 1
REMARK VINA RESULT:      -8.6      0.000      0.000
REMARK  Name = 
REMARK  9 active torsions:
REMARK  status: ('A' for Active; 'I' for Inactive)
REMARK    1  A    between atoms: C_1  and  C_2
REMARK    2  A    between atoms: C_5  and  C_6
REMARK    3  A    between atoms: C_7  and  S_8
REMARK    4  A    between atoms: S_8  and  N_11
REMARK    5  A    between atoms: N_11  and  C_12
REMARK    6  A    between atoms: C_12  and  C_13
REMARK    7  A    between atoms: C_16  and  O_17
REMARK    8  A    between atoms: O_17  and  C_18
REMARK    9  A    between atoms: C_26  and  C_27
REMARK                            x       y       z     vdW  Elec       q    Type
REMARK                         _______ _______ _______ _____ _____    ______ ____
ROOT
ATOM      1  C   UNL     1       2.417   7.340  19.156  0.00  0.00    +0.000 A 
ATOM      2  C   UNL     1       2.788   7.856  17.933  0.00  0.00    +0.000 A 
ATOM      3  N   UNL     1       2.193   9.039  17.581  0.00  0.00    +0.000 NA
ATOM      4  C   UNL     1       1.430   9.483  18.554  0.00  0.00    +0.000 A 
ATOM      5  S   UNL     1       1.319   8.436  19.911  0.00  0.00    +0.000 S 
ENDROOT
BRANCH   1   6
ATOM      6  C   UNL     1       2.792   6.050  19.807  0.00  0.00    +0.000 C 
BRANCH   6   7
ATOM      7  N   UNL     1       4.232   5.815  19.633  0.00  0.00    +0.000 NA
ATOM      8  H   UNL     1       4.781   6.629  19.374  0.00  0.00    +0.000 HD
BRANCH   7   9
ATOM      9  S   UNL     1       4.637   4.527  18.626  0.00  0.00    +0.000 S 
ATOM     10  O   UNL     1       3.519   4.267  17.751  0.00  0.00    +0.000 OA
ATOM     11  O   UNL     1       5.235   3.509  19.458  0.00  0.00    +0.000 OA
BRANCH   9  18
ATOM     12  C   UNL     1       4.941   4.524  15.248  0.00  0.00    +0.000 C 
ATOM     13  C   UNL     1       5.966   5.017  16.201  0.00  0.00    +0.000 A 
ATOM     14  N   UNL     1       7.113   5.524  15.737  0.00  0.00    +0.000 NA
ATOM     15  N   UNL     1       7.815   5.832  16.838  0.00  0.00    +0.000 N 
ATOM     16  C   UNL     1       7.144   5.593  18.007  0.00  0.00    +0.000 A 
ATOM     17  C   UNL     1       7.764   5.882  19.321  0.00  0.00    +0.000 C 
ATOM     18  C   UNL     1       5.930   5.051  17.613  0.00  0.00    +0.000 A 
ATOM     19  H   UNL     1       8.749   6.217  16.710  0.00  0.00    +0.000 HD
ENDBRANCH   9  18
ENDBRANCH   7   9
ENDBRANCH   6   7
ENDBRANCH   1   6
BRANCH   4  20
ATOM     20  O   UNL     1       0.745  10.630  18.500  0.00  0.00    +0.000 OA
BRANCH  20  21
ATOM     21  C   UNL     1       1.248  11.810  19.007  0.00  0.00    +0.000 A 
ATOM     22  C   UNL     1       0.883  12.349  20.244  0.00  0.00    +0.000 A 
ATOM     23  C   UNL     1       1.401  13.566  20.670  0.00  0.00    +0.000 A 
ATOM     24  C   UNL     1       2.236  14.288  19.827  0.00  0.00    +0.000 A 
ATOM     25  C   UNL     1       2.649  13.757  18.600  0.00  0.00    +0.000 A 
ATOM     26  C   UNL     1       2.136  12.518  18.188  0.00  0.00    +0.000 A 
ATOM     27  C   UNL     1       3.586  14.529  17.715  0.00  0.00    +0.000 C 
ATOM     28  C   UNL     1       4.100  15.786  18.412  0.00  0.00    +0.000 C 
ATOM     29  C   UNL     1       2.976  16.447  19.217  0.00  0.00    +0.000 C 
ATOM     30  O   UNL     1       2.567  15.543  20.264  0.00  0.00    +0.000 OA
BRANCH  29  31
ATOM     31  C   UNL     1       1.803  17.022  18.416  0.00  0.00    +0.000 A 
ATOM     32  C   UNL     1       0.486  16.940  18.901  0.00  0.00    +0.000 A 
ATOM     33  C   UNL     1      -0.580  17.514  18.201  0.00  0.00    +0.000 A 
ATOM     34  C   UNL     1      -0.347  18.200  17.013  0.00  0.00    +0.000 A 
ATOM     35  C   UNL     1       0.948  18.298  16.517  0.00  0.00    +0.000 A 
ATOM     36  C   UNL     1       2.012  17.715  17.211  0.00  0.00    +0.000 A 
ENDBRANCH  29  31
ENDBRANCH  20  21
ENDBRANCH   4  20
TORSDOF 7
ENDMDL
MODEL 2
REMARK VINA RESULT:      -8.6      0.913      1.668
REMARK  Name = 
REMARK  9 active torsions:
REMARK  status: ('A' for Active; 'I' for Inactive)
REMARK    1  A    between atoms: C_1  and  C_2
REMARK    2  A    between atoms: C_5  and  C_6
REMARK    3  A    between atoms: C_7  and  S_8
REMARK    4  A    between atoms: S_8  and  N_11
REMARK    5  A    between atoms: N_11  and  C_12
REMARK    6  A    between atoms: C_12  and  C_13
REMARK    7  A    between atoms: C_16  and  O_17
REMARK    8  A    between atoms: O_17  and  C_18
REMARK    9  A    between atoms: C_26  and  C_27
REMARK                            x       y       z     vdW  Elec       q    Type
REMARK                         _______ _______ _______ _____ _____    ______ ____
ROOT
ATOM      1  C   UNL     1       2.452   7.429  18.903  0.00  0.00    +0.000 A 
ATOM      2  C   UNL     1       1.907   7.704  20.139  0.00  0.00    +0.000 A 
ATOM      3  N   UNL     1       1.233   8.893  20.241  0.00  0.00    +0.000 NA
ATOM      4  C   UNL     1       1.182   9.499  19.077  0.00  0.00    +0.000 A 
ATOM      5  S   UNL     1       2.034   8.701  17.817  0.00  0.00    +0.000 S 
ENDROOT
BRANCH   1   6
ATOM      6  C   UNL     1       3.310   6.288  18.466  0.00  0.00    +0.000 C 
BRANCH   6   7
ATOM      7  N   UNL     1       4.303   5.995  19.508  0.00  0.00    +0.000 NA
ATOM      8  H   UNL     1       4.772   6.803  19.906  0.00  0.00    +0.000 HD
BRANCH   7   9
ATOM      9  S   UNL     1       5.450   4.828  19.105  0.00  0.00    +0.000 S 
ATOM     10  O   UNL     1       4.762   3.584  18.856  0.00  0.00    +0.000 OA
ATOM     11  O   UNL     1       6.531   4.950  20.056  0.00  0.00    +0.000 OA
BRANCH   9  18
ATOM     12  C   UNL     1       7.948   7.019  18.427  0.00  0.00    +0.000 C 
ATOM     13  C   UNL     1       7.210   6.221  17.417  0.00  0.00    +0.000 A 
ATOM     14  N   UNL     1       7.530   6.329  16.124  0.00  0.00    +0.000 NA
ATOM     15  N   UNL     1       6.663   5.521  15.494  0.00  0.00    +0.000 N 
ATOM     16  C   UNL     1       5.821   4.847  16.337  0.00  0.00    +0.000 A 
ATOM     17  C   UNL     1       4.804   3.905  15.815  0.00  0.00    +0.000 C 
ATOM     18  C   UNL     1       6.158   5.296  17.605  0.00  0.00    +0.000 A 
ATOM     19  H   UNL     1       6.716   5.473  14.478  0.00  0.00    +0.000 HD
ENDBRANCH   9  18
ENDBRANCH   7   9
ENDBRANCH   6   7
ENDBRANCH   1   6
BRANCH   4  20
ATOM     20  O   UNL     1       0.563  10.666  18.871  0.00  0.00    +0.000 OA
BRANCH  20  21
ATOM     21  C   UNL     1       1.083  11.863  19.317  0.00  0.00    +0.000 A 
ATOM     22  C   UNL     1       0.710  12.481  20.514  0.00  0.00    +0.000 A 
ATOM     23  C   UNL     1       1.248  13.710  20.876  0.00  0.00    +0.000 A 
ATOM     24  C   UNL     1       2.113  14.363  20.007  0.00  0.00    +0.000 A 
ATOM     25  C   UNL     1       2.534  13.752  18.822  0.00  0.00    +0.000 A 
ATOM     26  C   UNL     1       2.000  12.501  18.474  0.00  0.00    +0.000 A 
ATOM     27  C   UNL     1       3.502  14.450  17.909  0.00  0.00    +0.000 C 
ATOM     28  C   UNL     1       4.032  15.734  18.541  0.00  0.00    +0.000 C 
ATOM     29  C   UNL     1       2.911  16.466  19.285  0.00  0.00    +0.000 C 
ATOM     30  O   UNL     1       2.464  15.634  20.375  0.00  0.00    +0.000 OA
BRANCH  29  31
ATOM     31  C   UNL     1       1.764  17.018  18.431  0.00  0.00    +0.000 A 
ATOM     32  C   UNL     1       0.428  16.907  18.855  0.00  0.00    +0.000 A 
ATOM     33  C   UNL     1      -0.616  17.460  18.107  0.00  0.00    +0.000 A 
ATOM     34  C   UNL     1      -0.343  18.152  16.931  0.00  0.00    +0.000 A 
ATOM     35  C   UNL     1       0.971  18.278  16.495  0.00  0.00    +0.000 A 
ATOM     36  C   UNL     1       2.014  17.716  17.237  0.00  0.00    +0.000 A 
ENDBRANCH  29  31
ENDBRANCH  20  21
ENDBRANCH   4  20
TORSDOF 7
ENDMDL
MODEL 3
REMARK VINA RESULT:      -8.5      1.613      2.116
REMARK  Name = 
REMARK  9 active torsions:
REMARK  status: ('A' for Active; 'I' for Inactive)
REMARK    1  A    between atoms: C_1  and  C_2
REMARK    2  A    between atoms: C_5  and  C_6
REMARK    3  A    between atoms: C_7  and  S_8
REMARK    4  A    between atoms: S_8  and  N_11
REMARK    5  A    between atoms: N_11  and  C_12
REMARK    6  A    between atoms: C_12  and  C_13
REMARK    7  A    between atoms: C_16  and  O_17
REMARK    8  A    between atoms: O_17  and  C_18
REMARK    9  A    between atoms: C_26  and  C_27
REMARK                            x       y       z     vdW  Elec       q    Type
REMARK                         _______ _______ _______ _____ _____    ______ ____
ROOT
ATOM      1  C   UNL     1       2.069   7.946  18.925  0.00  0.00    +0.000 A 
ATOM      2  C   UNL     1       1.670   8.181  20.224  0.00  0.00    +0.000 A 
ATOM      3  N   UNL     1       1.025   9.370  20.443  0.00  0.00    +0.000 NA
ATOM      4  C   UNL     1       0.848  10.017  19.313  0.00  0.00    +0.000 A 
ATOM      5  S   UNL     1       1.544   9.259  17.938  0.00  0.00    +0.000 S 
ENDROOT
BRANCH   1   6
ATOM      6  C   UNL     1       2.860   6.816  18.354  0.00  0.00    +0.000 C 
BRANCH   6   7
ATOM      7  N   UNL     1       3.830   7.340  17.383  0.00  0.00    +0.000 NA
ATOM      8  H   UNL     1       3.434   7.858  16.604  0.00  0.00    +0.000 HD
BRANCH   7   9
ATOM      9  S   UNL     1       4.943   6.219  16.797  0.00  0.00    +0.000 S 
ATOM     10  O   UNL     1       5.612   6.799  15.657  0.00  0.00    +0.000 OA
ATOM     11  O   UNL     1       4.271   4.941  16.744  0.00  0.00    +0.000 OA
BRANCH   9  18
ATOM     12  C   UNL     1       5.159   3.979  19.334  0.00  0.00    +0.000 C 
ATOM     13  C   UNL     1       6.159   5.033  19.033  0.00  0.00    +0.000 A 
ATOM     14  N   UNL     1       7.259   5.138  19.785  0.00  0.00    +0.000 NA
ATOM     15  N   UNL     1       7.916   6.192  19.278  0.00  0.00    +0.000 N 
ATOM     16  C   UNL     1       7.308   6.748  18.184  0.00  0.00    +0.000 A 
ATOM     17  C   UNL     1       7.898   7.917  17.490  0.00  0.00    +0.000 C 
ATOM     18  C   UNL     1       6.150   6.007  18.009  0.00  0.00    +0.000 A 
ATOM     19  H   UNL     1       8.786   6.468  19.729  0.00  0.00    +0.000 HD
ENDBRANCH   9  18
ENDBRANCH   7   9
ENDBRANCH   6   7
ENDBRANCH   1   6
BRANCH   4  20
ATOM     20  O   UNL     1       0.222  11.194  19.219  0.00  0.00    +0.000 OA
BRANCH  20  21
ATOM     21  C   UNL     1       0.837  12.383  19.552  0.00  0.00    +0.000 A 
ATOM     22  C   UNL     1       0.627  13.063  20.755  0.00  0.00    +0.000 A 
ATOM     23  C   UNL     1       1.252  14.279  21.001  0.00  0.00    +0.000 A 
ATOM     24  C   UNL     1       2.038  14.859  20.014  0.00  0.00    +0.000 A 
ATOM     25  C   UNL     1       2.297  14.185  18.816  0.00  0.00    +0.000 A 
ATOM     26  C   UNL     1       1.677  12.947  18.584  0.00  0.00    +0.000 A 
ATOM     27  C   UNL     1       3.182  14.803  17.771  0.00  0.00    +0.000 C 
ATOM     28  C   UNL     1       3.832  16.086  18.284  0.00  0.00    +0.000 C 
ATOM     29  C   UNL     1       2.832  16.895  19.117  0.00  0.00    +0.000 C 
ATOM     30  O   UNL     1       2.479  16.127  20.285  0.00  0.00    +0.000 OA
BRANCH  29  31
ATOM     31  C   UNL     1       1.620  17.464  18.373  0.00  0.00    +0.000 A 
ATOM     32  C   UNL     1       1.744  17.968  17.066  0.00  0.00    +0.000 A 
ATOM     33  C   UNL     1       0.629  18.435  16.362  0.00  0.00    +0.000 A 
ATOM     34  C   UNL     1      -0.634  18.390  16.944  0.00  0.00    +0.000 A 
ATOM     35  C   UNL     1      -0.781  17.892  18.233  0.00  0.00    +0.000 A 
ATOM     36  C   UNL     1       0.334  17.435  18.941  0.00  0.00    +0.000 A 
ENDBRANCH  29  31
ENDBRANCH  20  21
ENDBRANCH   4  20
TORSDOF 7
ENDMDL
MODEL 4
REMARK VINA RESULT:      -8.4      0.940      1.889
REMARK  Name = 
REMARK  9 active torsions:
REMARK  status: ('A' for Active; 'I' for Inactive)
REMARK    1  A    between atoms: C_1  and  C_2
REMARK    2  A    between atoms: C_5  and  C_6
REMARK    3  A    between atoms: C_7  and  S_8
REMARK    4  A    between atoms: S_8  and  N_11
REMARK    5  A    between atoms: N_11  and  C_12
REMARK    6  A    between atoms: C_12  and  C_13
REMARK    7  A    between atoms: C_16  and  O_17
REMARK    8  A    between atoms: O_17  and  C_18
REMARK    9  A    between atoms: C_26  and  C_27
REMARK                            x       y       z     vdW  Elec       q    Type
REMARK                         _______ _______ _______ _____ _____    ______ ____
ROOT
ATOM      1  C   UNL     1       2.222   7.449  19.477  0.00  0.00    +0.000 A 
ATOM      2  C   UNL     1       1.537   8.034  20.520  0.00  0.00    +0.000 A 
ATOM      3  N   UNL     1       1.069   9.301  20.289  0.00  0.00    +0.000 NA
ATOM      4  C   UNL     1       1.313   9.667  19.051  0.00  0.00    +0.000 A 
ATOM      5  S   UNL     1       2.212   8.528  18.132  0.00  0.00    +0.000 S 
ENDROOT
BRANCH   1   6
ATOM      6  C   UNL     1       2.933   6.137  19.412  0.00  0.00    +0.000 C 
BRANCH   6   7
ATOM      7  N   UNL     1       3.302   5.850  18.019  0.00  0.00    +0.000 NA
ATOM      8  H   UNL     1       2.571   6.005  17.331  0.00  0.00    +0.000 HD
BRANCH   7   9
ATOM      9  S   UNL     1       4.003   4.341  17.754  0.00  0.00    +0.000 S 
ATOM     10  O   UNL     1       3.298   3.698  16.671  0.00  0.00    +0.000 OA
ATOM     11  O   UNL     1       4.183   3.724  19.048  0.00  0.00    +0.000 OA
BRANCH   9  18
ATOM     12  C   UNL     1       6.768   5.421  19.394  0.00  0.00    +0.000 C 
ATOM     13  C   UNL     1       6.710   5.059  17.956  0.00  0.00    +0.000 A 
ATOM     14  N   UNL     1       7.816   5.134  17.208  0.00  0.00    +0.000 NA
ATOM     15  N   UNL     1       7.415   4.783  15.978  0.00  0.00    +0.000 N 
ATOM     16  C   UNL     1       6.094   4.429  15.905  0.00  0.00    +0.000 A 
ATOM     17  C   UNL     1       5.481   4.006  14.625  0.00  0.00    +0.000 C 
ATOM     18  C   UNL     1       5.610   4.610  17.192  0.00  0.00    +0.000 A 
ATOM     19  H   UNL     1       8.109   4.797  15.233  0.00  0.00    +0.000 HD
ENDBRANCH   9  18
ENDBRANCH   7   9
ENDBRANCH   6   7
ENDBRANCH   1   6
BRANCH   4  20
ATOM     20  O   UNL     1       0.945  10.845  18.536  0.00  0.00    +0.000 OA
BRANCH  20  21
ATOM     21  C   UNL     1       1.418  12.043  19.029  0.00  0.00    +0.000 A 
ATOM     22  C   UNL     1       1.077  12.563  20.280  0.00  0.00    +0.000 A 
ATOM     23  C   UNL     1       1.561  13.799  20.691  0.00  0.00    +0.000 A 
ATOM     24  C   UNL     1       2.335  14.557  19.821  0.00  0.00    +0.000 A 
ATOM     25  C   UNL     1       2.723  14.046  18.578  0.00  0.00    +0.000 A 
ATOM     26  C   UNL     1       2.246  12.787  18.180  0.00  0.00    +0.000 A 
ATOM     27  C   UNL     1       3.595  14.856  17.661  0.00  0.00    +0.000 C 
ATOM     28  C   UNL     1       4.083  16.132  18.344  0.00  0.00    +0.000 C 
ATOM     29  C   UNL     1       2.964  16.745  19.192  0.00  0.00    +0.000 C 
ATOM     30  O   UNL     1       2.630  15.823  20.250  0.00  0.00    +0.000 OA
BRANCH  29  31
ATOM     31  C   UNL     1       1.740  17.274  18.437  0.00  0.00    +0.000 A 
ATOM     32  C   UNL     1       1.875  17.883  17.177  0.00  0.00    +0.000 A 
ATOM     33  C   UNL     1       0.756  18.316  16.458  0.00  0.00    +0.000 A 
ATOM     34  C   UNL     1      -0.522  18.130  16.977  0.00  0.00    +0.000 A 
ATOM     35  C   UNL     1      -0.680  17.525  18.219  0.00  0.00    +0.000 A 
ATOM     36  C   UNL     1       0.439  17.103  18.941  0.00  0.00    +0.000 A 
ENDBRANCH  29  31
ENDBRANCH  20  21
ENDBRANCH   4  20
TORSDOF 7
ENDMDL
MODEL 5
REMARK VINA RESULT:      -8.3      0.821      1.218
REMARK  Name = 
REMARK  9 active torsions:
REMARK  status: ('A' for Active; 'I' for Inactive)
REMARK    1  A    between atoms: C_1  and  C_2
REMARK    2  A    between atoms: C_5  and  C_6
REMARK    3  A    between atoms: C_7  and  S_8
REMARK    4  A    between atoms: S_8  and  N_11
REMARK    5  A    between atoms: N_11  and  C_12
REMARK    6  A    between atoms: C_12  and  C_13
REMARK    7  A    between atoms: C_16  and  O_17
REMARK    8  A    between atoms: O_17  and  C_18
REMARK    9  A    between atoms: C_26  and  C_27
REMARK                            x       y       z     vdW  Elec       q    Type
REMARK                         _______ _______ _______ _____ _____    ______ ____
ROOT
ATOM      1  C   UNL     1       2.415   7.633  18.650  0.00  0.00    +0.000 A 
ATOM      2  C   UNL     1       1.991   7.724  19.959  0.00  0.00    +0.000 A 
ATOM      3  N   UNL     1       1.297   8.861  20.282  0.00  0.00    +0.000 NA
ATOM      4  C   UNL     1       1.110   9.608  19.218  0.00  0.00    +0.000 A 
ATOM      5  S   UNL     1       1.852   9.016  17.787  0.00  0.00    +0.000 S 
ENDROOT
BRANCH   1   6
ATOM      6  C   UNL     1       3.257   6.595  17.984  0.00  0.00    +0.000 C 
BRANCH   6   7
ATOM      7  N   UNL     1       3.756   5.650  18.992  0.00  0.00    +0.000 NA
ATOM      8  H   UNL     1       4.275   6.063  19.760  0.00  0.00    +0.000 HD
BRANCH   7   9
ATOM      9  S   UNL     1       4.614   4.334  18.384  0.00  0.00    +0.000 S 
ATOM     10  O   UNL     1       3.772   3.642  17.439  0.00  0.00    +0.000 OA
ATOM     11  O   UNL     1       5.235   3.675  19.511  0.00  0.00    +0.000 OA
BRANCH   9  18
ATOM     12  C   UNL     1       5.173   4.409  15.040  0.00  0.00    +0.000 C 
ATOM     13  C   UNL     1       6.089   4.949  16.075  0.00  0.00    +0.000 A 
ATOM     14  N   UNL     1       7.233   5.536  15.708  0.00  0.00    +0.000 NA
ATOM     15  N   UNL     1       7.827   5.869  16.863  0.00  0.00    +0.000 N 
ATOM     16  C   UNL     1       7.087   5.567  17.974  0.00  0.00    +0.000 A 
ATOM     17  C   UNL     1       7.585   5.871  19.336  0.00  0.00    +0.000 C 
ATOM     18  C   UNL     1       5.944   4.956  17.481  0.00  0.00    +0.000 A 
ATOM     19  H   UNL     1       8.742   6.314  16.812  0.00  0.00    +0.000 HD
ENDBRANCH   9  18
ENDBRANCH   7   9
ENDBRANCH   6   7
ENDBRANCH   1   6
BRANCH   4  20
ATOM     20  O   UNL     1       0.439  10.765  19.229  0.00  0.00    +0.000 OA
BRANCH  20  21
ATOM     21  C   UNL     1       1.032  11.955  19.598  0.00  0.00    +0.000 A 
ATOM     22  C   UNL     1       0.821  12.586  20.827  0.00  0.00    +0.000 A 
ATOM     23  C   UNL     1       1.422  13.807  21.110  0.00  0.00    +0.000 A 
ATOM     24  C   UNL     1       2.183  14.440  20.135  0.00  0.00    +0.000 A 
ATOM     25  C   UNL     1       2.442  13.815  18.911  0.00  0.00    +0.000 A 
ATOM     26  C   UNL     1       1.847  12.572  18.642  0.00  0.00    +0.000 A 
ATOM     27  C   UNL     1       3.301  14.489  17.879  0.00  0.00    +0.000 C 
ATOM     28  C   UNL     1       3.928  15.767  18.430  0.00  0.00    +0.000 C 
ATOM     29  C   UNL     1       2.921  16.523  19.303  0.00  0.00    +0.000 C 
ATOM     30  O   UNL     1       2.599  15.706  20.447  0.00  0.00    +0.000 OA
BRANCH  29  31
ATOM     31  C   UNL     1       1.687  17.092  18.594  0.00  0.00    +0.000 A 
ATOM     32  C   UNL     1       1.807  17.777  17.372  0.00  0.00    +0.000 A 
ATOM     33  C   UNL     1       0.678  18.247  16.693  0.00  0.00    +0.000 A 
ATOM     34  C   UNL     1      -0.593  18.023  17.211  0.00  0.00    +0.000 A 
ATOM     35  C   UNL     1      -0.736  17.343  18.416  0.00  0.00    +0.000 A 
ATOM     36  C   UNL     1       0.392  16.883  19.100  0.00  0.00    +0.000 A 
ENDBRANCH  29  31
ENDBRANCH  20  21
ENDBRANCH   4  20
TORSDOF 7
ENDMDL
MODEL 6
REMARK VINA RESULT:      -8.2      2.396      2.527
REMARK  Name = 
REMARK  9 active torsions:
REMARK  status: ('A' for Active; 'I' for Inactive)
REMARK    1  A    between atoms: C_1  and  C_2
REMARK    2  A    between atoms: C_5  and  C_6
REMARK    3  A    between atoms: C_7  and  S_8
REMARK    4  A    between atoms: S_8  and  N_11
REMARK    5  A    between atoms: N_11  and  C_12
REMARK    6  A    between atoms: C_12  and  C_13
REMARK    7  A    between atoms: C_16  and  O_17
REMARK    8  A    between atoms: O_17  and  C_18
REMARK    9  A    between atoms: C_26  and  C_27
REMARK                            x       y       z     vdW  Elec       q    Type
REMARK                         _______ _______ _______ _____ _____    ______ ____
ROOT
ATOM      1  C   UNL     1       2.633   7.405  18.980  0.00  0.00    +0.000 A 
ATOM      2  C   UNL     1       2.776   8.039  17.764  0.00  0.00    +0.000 A 
ATOM      3  N   UNL     1       2.042   9.184  17.600  0.00  0.00    +0.000 NA
ATOM      4  C   UNL     1       1.398   9.485  18.705  0.00  0.00    +0.000 A 
ATOM      5  S   UNL     1       1.575   8.338  19.971  0.00  0.00    +0.000 S 
ENDROOT
BRANCH   1   6
ATOM      6  C   UNL     1       3.203   6.111  19.460  0.00  0.00    +0.000 C 
BRANCH   6   7
ATOM      7  N   UNL     1       2.558   5.732  20.724  0.00  0.00    +0.000 NA
ATOM      8  H   UNL     1       3.106   5.898  21.563  0.00  0.00    +0.000 HD
BRANCH   7   9
ATOM      9  S   UNL     1       1.926   4.171  20.773  0.00  0.00    +0.000 S 
ATOM     10  O   UNL     1       0.527   4.238  20.423  0.00  0.00    +0.000 OA
ATOM     11  O   UNL     1       2.401   3.558  21.991  0.00  0.00    +0.000 OA
BRANCH   9  18
ATOM     12  C   UNL     1       1.325   4.055  17.437  0.00  0.00    +0.000 C 
ATOM     13  C   UNL     1       2.376   3.285  18.146  0.00  0.00    +0.000 A 
ATOM     14  N   UNL     1       3.187   2.478  17.455  0.00  0.00    +0.000 NA
ATOM     15  N   UNL     1       3.976   1.917  18.383  0.00  0.00    +0.000 N 
ATOM     16  C   UNL     1       3.744   2.370  19.654  0.00  0.00    +0.000 A 
ATOM     17  C   UNL     1       4.529   1.865  20.805  0.00  0.00    +0.000 C 
ATOM     18  C   UNL     1       2.693   3.264  19.523  0.00  0.00    +0.000 A 
ATOM     19  H   UNL     1       4.664   1.235  18.069  0.00  0.00    +0.000 HD
ENDBRANCH   9  18
ENDBRANCH   7   9
ENDBRANCH   6   7
ENDBRANCH   1   6
BRANCH   4  20
ATOM     20  O   UNL     1       0.624  10.567  18.845  0.00  0.00    +0.000 OA
BRANCH  20  21
ATOM     21  C   UNL     1       1.114  11.765  19.318  0.00  0.00    +0.000 A 
ATOM     22  C   UNL     1       0.723  12.350  20.526  0.00  0.00    +0.000 A 
ATOM     23  C   UNL     1       1.230  13.583  20.916  0.00  0.00    +0.000 A 
ATOM     24  C   UNL     1       2.082  14.275  20.065  0.00  0.00    +0.000 A 
ATOM     25  C   UNL     1       2.520  13.699  18.868  0.00  0.00    +0.000 A 
ATOM     26  C   UNL     1       2.018  12.444  18.492  0.00  0.00    +0.000 A 
ATOM     27  C   UNL     1       3.475  14.438  17.973  0.00  0.00    +0.000 C 
ATOM     28  C   UNL     1       3.972  15.722  18.633  0.00  0.00    +0.000 C 
ATOM     29  C   UNL     1       2.831  16.410  19.390  0.00  0.00    +0.000 C 
ATOM     30  O   UNL     1       2.401  15.546  20.460  0.00  0.00    +0.000 OA
BRANCH  29  31
ATOM     31  C   UNL     1       1.675  16.953  18.543  0.00  0.00    +0.000 A 
ATOM     32  C   UNL     1       0.341  16.819  18.970  0.00  0.00    +0.000 A 
ATOM     33  C   UNL     1      -0.713  17.363  18.229  0.00  0.00    +0.000 A 
ATOM     34  C   UNL     1      -0.453  18.069  17.059  0.00  0.00    +0.000 A 
ATOM     35  C   UNL     1       0.858  18.218  16.621  0.00  0.00    +0.000 A 
ATOM     36  C   UNL     1       1.910  17.665  17.355  0.00  0.00    +0.000 A 
ENDBRANCH  29  31
ENDBRANCH  20  21
ENDBRANCH   4  20
TORSDOF 7
ENDMDL
MODEL 7
REMARK VINA RESULT:      -8.1      5.107      7.015
REMARK  Name = 
REMARK  9 active torsions:
REMARK  status: ('A' for Active; 'I' for Inactive)
REMARK    1  A    between atoms: C_1  and  C_2
REMARK    2  A    between atoms: C_5  and  C_6
REMARK    3  A    between atoms: C_7  and  S_8
REMARK    4  A    between atoms: S_8  and  N_11
REMARK    5  A    between atoms: N_11  and  C_12
REMARK    6  A    between atoms: C_12  and  C_13
REMARK    7  A    between atoms: C_16  and  O_17
REMARK    8  A    between atoms: O_17  and  C_18
REMARK    9  A    between atoms: C_26  and  C_27
REMARK                            x       y       z     vdW  Elec       q    Type
REMARK                         _______ _______ _______ _____ _____    ______ ____
ROOT
ATOM      1  C   UNL     1       7.092   5.735  17.921  0.00  0.00    +0.000 A 
ATOM      2  C   UNL     1       7.932   6.118  18.944  0.00  0.00    +0.000 A 
ATOM      3  N   UNL     1       8.418   7.397  18.868  0.00  0.00    +0.000 NA
ATOM      4  C   UNL     1       7.896   8.031  17.843  0.00  0.00    +0.000 A 
ATOM      5  S   UNL     1       6.862   7.074  16.860  0.00  0.00    +0.000 S 
ENDROOT
BRANCH   1   6
ATOM      6  C   UNL     1       6.462   4.410  17.642  0.00  0.00    +0.000 C 
BRANCH   6   7
ATOM      7  N   UNL     1       5.006   4.574  17.531  0.00  0.00    +0.000 NA
ATOM      8  H   UNL     1       4.676   5.532  17.481  0.00  0.00    +0.000 HD
BRANCH   7   9
ATOM      9  S   UNL     1       4.096   3.731  18.671  0.00  0.00    +0.000 S 
ATOM     10  O   UNL     1       4.999   3.177  19.651  0.00  0.00    +0.000 OA
ATOM     11  O   UNL     1       3.141   2.928  17.942  0.00  0.00    +0.000 OA
BRANCH   9  18
ATOM     12  C   UNL     1       3.410   6.977  17.967  0.00  0.00    +0.000 C 
ATOM     13  C   UNL     1       2.887   6.223  19.133  0.00  0.00    +0.000 A 
ATOM     14  N   UNL     1       2.062   6.825  19.996  0.00  0.00    +0.000 NA
ATOM     15  N   UNL     1       1.814   5.895  20.930  0.00  0.00    +0.000 N 
ATOM     16  C   UNL     1       2.407   4.687  20.680  0.00  0.00    +0.000 A 
ATOM     17  C   UNL     1       2.235   3.541  21.603  0.00  0.00    +0.000 C 
ATOM     18  C   UNL     1       3.122   4.881  19.508  0.00  0.00    +0.000 A 
ATOM     19  H   UNL     1       1.216   6.158  21.711  0.00  0.00    +0.000 HD
ENDBRANCH   9  18
ENDBRANCH   7   9
ENDBRANCH   6   7
ENDBRANCH   1   6
BRANCH   4  20
ATOM     20  O   UNL     1       8.167   9.305  17.538  0.00  0.00    +0.000 OA
BRANCH  20  21
ATOM     21  C   UNL     1       8.941  10.106  18.351  0.00  0.00    +0.000 A 
ATOM     22  C   UNL     1       8.894  10.081  19.748  0.00  0.00    +0.000 A 
ATOM     23  C   UNL     1       9.674  10.950  20.500  0.00  0.00    +0.000 A 
ATOM     24  C   UNL     1      10.456  11.901  19.857  0.00  0.00    +0.000 A 
ATOM     25  C   UNL     1      10.552  11.926  18.462  0.00  0.00    +0.000 A 
ATOM     26  C   UNL     1       9.775  11.030  17.711  0.00  0.00    +0.000 A 
ATOM     27  C   UNL     1      11.433  12.932  17.778  0.00  0.00    +0.000 C 
ATOM     28  C   UNL     1      12.264  13.719  18.788  0.00  0.00    +0.000 C 
ATOM     29  C   UNL     1      11.425  14.049  20.028  0.00  0.00    +0.000 C 
ATOM     30  O   UNL     1      11.062  12.814  20.678  0.00  0.00    +0.000 OA
BRANCH  29  31
ATOM     31  C   UNL     1      10.242  15.001  19.825  0.00  0.00    +0.000 A 
ATOM     32  C   UNL     1       9.064  14.863  20.580  0.00  0.00    +0.000 A 
ATOM     33  C   UNL     1       8.005  15.764  20.439  0.00  0.00    +0.000 A 
ATOM     34  C   UNL     1       8.110  16.833  19.555  0.00  0.00    +0.000 A 
ATOM     35  C   UNL     1       9.267  16.992  18.801  0.00  0.00    +0.000 A 
ATOM     36  C   UNL     1      10.322  16.085  18.934  0.00  0.00    +0.000 A 
ENDBRANCH  29  31
ENDBRANCH  20  21
ENDBRANCH   4  20
TORSDOF 7
ENDMDL
MODEL 8
REMARK VINA RESULT:      -8.0      4.707      6.272
REMARK  Name = 
REMARK  9 active torsions:
REMARK  status: ('A' for Active; 'I' for Inactive)
REMARK    1  A    between atoms: C_1  and  C_2
REMARK    2  A    between atoms: C_5  and  C_6
REMARK    3  A    between atoms: C_7  and  S_8
REMARK    4  A    between atoms: S_8  and  N_11
REMARK    5  A    between atoms: N_11  and  C_12
REMARK    6  A    between atoms: C_12  and  C_13
REMARK    7  A    between atoms: C_16  and  O_17
REMARK    8  A    between atoms: O_17  and  C_18
REMARK    9  A    between atoms: C_26  and  C_27
REMARK                            x       y       z     vdW  Elec       q    Type
REMARK                         _______ _______ _______ _____ _____    ______ ____
ROOT
ATOM      1  C   UNL     1       1.323   8.765  20.419  0.00  0.00    +0.000 A 
ATOM      2  C   UNL     1       1.248   8.710  21.794  0.00  0.00    +0.000 A 
ATOM      3  N   UNL     1       0.903   9.880  22.418  0.00  0.00    +0.000 NA
ATOM      4  C   UNL     1       0.632  10.815  21.536  0.00  0.00    +0.000 A 
ATOM      5  S   UNL     1       0.876  10.348  19.901  0.00  0.00    +0.000 S 
ENDROOT
BRANCH   1   6
ATOM      6  C   UNL     1       1.748   7.722  19.439  0.00  0.00    +0.000 C 
BRANCH   6   7
ATOM      7  N   UNL     1       2.632   6.756  20.105  0.00  0.00    +0.000 NA
ATOM      8  H   UNL     1       3.162   7.117  20.892  0.00  0.00    +0.000 HD
BRANCH   7   9
ATOM      9  S   UNL     1       3.665   5.900  19.086  0.00  0.00    +0.000 S 
ATOM     10  O   UNL     1       4.792   5.444  19.863  0.00  0.00    +0.000 OA
ATOM     11  O   UNL     1       3.809   6.677  17.876  0.00  0.00    +0.000 OA
BRANCH   9  18
ATOM     12  C   UNL     1       4.174   3.873  16.415  0.00  0.00    +0.000 C 
ATOM     13  C   UNL     1       3.117   3.691  17.440  0.00  0.00    +0.000 A 
ATOM     14  N   UNL     1       2.283   2.650  17.355  0.00  0.00    +0.000 NA
ATOM     15  N   UNL     1       1.446   2.803  18.392  0.00  0.00    +0.000 N 
ATOM     16  C   UNL     1       1.737   3.881  19.184  0.00  0.00    +0.000 A 
ATOM     17  C   UNL     1       0.922   4.198  20.380  0.00  0.00    +0.000 C 
ATOM     18  C   UNL     1       2.827   4.483  18.574  0.00  0.00    +0.000 A 
ATOM     19  H   UNL     1       0.700   2.119  18.502  0.00  0.00    +0.000 HD
ENDBRANCH   9  18
ENDBRANCH   7   9
ENDBRANCH   6   7
ENDBRANCH   1   6
BRANCH   4  20
ATOM     20  O   UNL     1       0.240  12.053  21.858  0.00  0.00    +0.000 OA
BRANCH  20  21
ATOM     21  C   UNL     1      -1.067  12.349  22.181  0.00  0.00    +0.000 A 
ATOM     22  C   UNL     1      -1.801  11.681  23.165  0.00  0.00    +0.000 A 
ATOM     23  C   UNL     1      -3.130  12.008  23.405  0.00  0.00    +0.000 A 
ATOM     24  C   UNL     1      -3.756  12.960  22.610  0.00  0.00    +0.000 A 
ATOM     25  C   UNL     1      -3.038  13.671  21.643  0.00  0.00    +0.000 A 
ATOM     26  C   UNL     1      -1.690  13.348  21.422  0.00  0.00    +0.000 A 
ATOM     27  C   UNL     1      -3.714  14.728  20.817  0.00  0.00    +0.000 C 
ATOM     28  C   UNL     1      -5.137  14.987  21.307  0.00  0.00    +0.000 C 
ATOM     29  C   UNL     1      -5.816  13.670  21.698  0.00  0.00    +0.000 C 
ATOM     30  O   UNL     1      -5.103  13.099  22.813  0.00  0.00    +0.000 OA
BRANCH  29  31
ATOM     31  C   UNL     1      -6.079  12.670  20.567  0.00  0.00    +0.000 A 
ATOM     32  C   UNL     1      -6.735  11.452  20.817  0.00  0.00    +0.000 A 
ATOM     33  C   UNL     1      -7.028  10.562  19.779  0.00  0.00    +0.000 A 
ATOM     34  C   UNL     1      -6.690  10.882  18.468  0.00  0.00    +0.000 A 
ATOM     35  C   UNL     1      -6.046  12.083  18.196  0.00  0.00    +0.000 A 
ATOM     36  C   UNL     1      -5.743  12.968  19.235  0.00  0.00    +0.000 A 
ENDBRANCH  29  31
ENDBRANCH  20  21
ENDBRANCH   4  20
TORSDOF 7
ENDMDL
MODEL 9
REMARK VINA RESULT:      -8.0      4.879      6.400
REMARK  Name = 
REMARK  9 active torsions:
REMARK  status: ('A' for Active; 'I' for Inactive)
REMARK    1  A    between atoms: C_1  and  C_2
REMARK    2  A    between atoms: C_5  and  C_6
REMARK    3  A    between atoms: C_7  and  S_8
REMARK    4  A    between atoms: S_8  and  N_11
REMARK    5  A    between atoms: N_11  and  C_12
REMARK    6  A    between atoms: C_12  and  C_13
REMARK    7  A    between atoms: C_16  and  O_17
REMARK    8  A    between atoms: O_17  and  C_18
REMARK    9  A    between atoms: C_26  and  C_27
REMARK                            x       y       z     vdW  Elec       q    Type
REMARK                         _______ _______ _______ _____ _____    ______ ____
ROOT
ATOM      1  C   UNL     1       1.582   8.837  18.899  0.00  0.00    +0.000 A 
ATOM      2  C   UNL     1       0.995   9.053  20.127  0.00  0.00    +0.000 A 
ATOM      3  N   UNL     1       0.116  10.103  20.190  0.00  0.00    +0.000 NA
ATOM      4  C   UNL     1      -0.043  10.647  19.004  0.00  0.00    +0.000 A 
ATOM      5  S   UNL     1       0.942   9.972  17.770  0.00  0.00    +0.000 S 
ENDROOT
BRANCH   1   6
ATOM      6  C   UNL     1       2.634   7.856  18.498  0.00  0.00    +0.000 C 
BRANCH   6   7
ATOM      7  N   UNL     1       2.082   6.496  18.553  0.00  0.00    +0.000 NA
ATOM      8  H   UNL     1       1.071   6.437  18.623  0.00  0.00    +0.000 HD
BRANCH   7   9
ATOM      9  S   UNL     1       2.780   5.478  19.699  0.00  0.00    +0.000 S 
ATOM     10  O   UNL     1       2.018   5.581  20.920  0.00  0.00    +0.000 OA
ATOM     11  O   UNL     1       4.208   5.694  19.645  0.00  0.00    +0.000 OA
BRANCH   9  18
ATOM     12  C   UNL     1       3.855   3.971  16.857  0.00  0.00    +0.000 C 
ATOM     13  C   UNL     1       3.075   3.313  17.935  0.00  0.00    +0.000 A 
ATOM     14  N   UNL     1       2.759   2.018  17.829  0.00  0.00    +0.000 NA
ATOM     15  N   UNL     1       2.036   1.757  18.929  0.00  0.00    +0.000 N 
ATOM     16  C   UNL     1       1.913   2.824  19.777  0.00  0.00    +0.000 A 
ATOM     17  C   UNL     1       1.155   2.714  21.045  0.00  0.00    +0.000 C 
ATOM     18  C   UNL     1       2.582   3.859  19.141  0.00  0.00    +0.000 A 
ATOM     19  H   UNL     1       1.667   0.814  19.037  0.00  0.00    +0.000 HD
ENDBRANCH   9  18
ENDBRANCH   7   9
ENDBRANCH   6   7
ENDBRANCH   1   6
BRANCH   4  20
ATOM     20  O   UNL     1      -0.864  11.674  18.760  0.00  0.00    +0.000 OA
BRANCH  20  21
ATOM     21  C   UNL     1      -2.207  11.496  18.505  0.00  0.00    +0.000 A 
ATOM     22  C   UNL     1      -2.716  10.989  17.306  0.00  0.00    +0.000 A 
ATOM     23  C   UNL     1      -4.087  10.879  17.107  0.00  0.00    +0.000 A 
ATOM     24  C   UNL     1      -4.961  11.342  18.081  0.00  0.00    +0.000 A 
ATOM     25  C   UNL     1      -4.482  11.819  19.306  0.00  0.00    +0.000 A 
ATOM     26  C   UNL     1      -3.095  11.908  19.506  0.00  0.00    +0.000 A 
ATOM     27  C   UNL     1      -5.438  12.280  20.370  0.00  0.00    +0.000 C 
ATOM     28  C   UNL     1      -6.884  11.986  19.980  0.00  0.00    +0.000 C 
ATOM     29  C   UNL     1      -7.101  12.257  18.488  0.00  0.00    +0.000 C 
ATOM     30  O   UNL     1      -6.285  11.340  17.731  0.00  0.00    +0.000 OA
BRANCH  29  31
ATOM     31  C   UNL     1      -6.970  13.712  18.027  0.00  0.00    +0.000 A 
ATOM     32  C   UNL     1      -7.135  14.061  16.675  0.00  0.00    +0.000 A 
ATOM     33  C   UNL     1      -7.074  15.395  16.259  0.00  0.00    +0.000 A 
ATOM     34  C   UNL     1      -6.866  16.408  17.190  0.00  0.00    +0.000 A 
ATOM     35  C   UNL     1      -6.705  16.087  18.533  0.00  0.00    +0.000 A 
ATOM     36  C   UNL     1      -6.756  14.753  18.947  0.00  0.00    +0.000 A 
ENDBRANCH  29  31
ENDBRANCH  20  21
ENDBRANCH   4  20
TORSDOF 7
ENDMDL
