MODEL 1
REMARK VINA RESULT:      -7.9      0.000      0.000
REMARK  Name = 
REMARK  5 active torsions:
REMARK  status: ('A' for Active; 'I' for Inactive)
REMARK    1  A    between atoms: C_2  and  C_3
REMARK    2  A    between atoms: C_2  and  C_6
REMARK    3  A    between atoms: C_6  and  C_7
REMARK    4  A    between atoms: C_6  and  N_14
REMARK    5  A    between atoms: C_19  and  C_20
REMARK                            x       y       z     vdW  Elec       q    Type
REMARK                         _______ _______ _______ _____ _____    ______ ____
ROOT
ATOM      1  N   UNL     1       2.900   5.948  18.997  0.00  0.00    +0.000 N 
ATOM      2  C   UNL     1       2.240   6.168  20.166  0.00  0.00    +0.000 C 
ATOM      3  O   UNL     1       1.992   5.378  21.061  0.00  0.00    +0.000 OA
ATOM      4  S   UNL     1       1.669   7.826  20.247  0.00  0.00    +0.000 S 
ATOM      5  C   UNL     1       2.208   8.176  18.648  0.00  0.00    +0.000 C 
ATOM      6  C   UNL     1       2.012   9.285  17.913  0.00  0.00    +0.000 C 
ATOM      7  C   UNL     1       2.922   6.996  18.098  0.00  0.00    +0.000 C 
ATOM      8  O   UNL     1       3.458   6.988  17.000  0.00  0.00    +0.000 OA
ENDROOT
BRANCH   6   9
ATOM      9  C   UNL     1       1.346  10.470  18.358  0.00  0.00    +0.000 A 
ATOM     10  C   UNL     1       1.835  11.737  18.640  0.00  0.00    +0.000 A 
ATOM     11  C   UNL     1       0.822  12.639  19.046  0.00  0.00    +0.000 A 
ATOM     12 BR   UNL     1       1.210  14.423  19.509  0.00  0.00    +0.000 Br
ATOM     13  C   UNL     1      -0.428  12.078  19.052  0.00  0.00    +0.000 A 
ATOM     14  S   UNL     1      -0.372  10.444  18.552  0.00  0.00    +0.000 S 
ENDBRANCH   6   9
BRANCH   1  15
ATOM     15  C   UNL     1       3.455   4.648  18.636  0.00  0.00    +0.000 C 
BRANCH  15  16
ATOM     16  C   UNL     1       4.741   4.725  17.835  0.00  0.00    +0.000 A 
ATOM     17  C   UNL     1       4.816   4.355  16.484  0.00  0.00    +0.000 A 
ATOM     18  C   UNL     1       6.053   4.265  15.841  0.00  0.00    +0.000 A 
ATOM     19  C   UNL     1       7.228   4.558  16.533  0.00  0.00    +0.000 A 
ATOM     20  C   UNL     1       7.160   5.012  17.847  0.00  0.00    +0.000 A 
ATOM     21  C   UNL     1       5.922   5.114  18.475  0.00  0.00    +0.000 A 
ATOM     22  F   UNL     1       5.880   5.568  19.736  0.00  0.00    +0.000 F 
ENDBRANCH  15  16
BRANCH  15  24
ATOM     23  O   UNL     1       1.651   4.028  17.093  0.00  0.00    +0.000 OA
ATOM     24  C   UNL     1       2.406   3.705  18.004  0.00  0.00    +0.000 C 
BRANCH  24  25
ATOM     25  C   UNL     1       2.356   2.301  18.534  0.00  0.00    +0.000 C 
ATOM     26  C   UNL     1       3.548   1.398  18.289  0.00  0.00    +0.000 C 
ATOM     27  C   UNL     1       3.250   1.878  19.678  0.00  0.00    +0.000 C 
ENDBRANCH  24  25
ENDBRANCH  15  24
ENDBRANCH   1  15
TORSDOF 5
ENDMDL
MODEL 2
REMARK VINA RESULT:      -7.9      0.963      1.076
REMARK  Name = 
REMARK  5 active torsions:
REMARK  status: ('A' for Active; 'I' for Inactive)
REMARK    1  A    between atoms: C_2  and  C_3
REMARK    2  A    between atoms: C_2  and  C_6
REMARK    3  A    between atoms: C_6  and  C_7
REMARK    4  A    between atoms: C_6  and  N_14
REMARK    5  A    between atoms: C_19  and  C_20
REMARK                            x       y       z     vdW  Elec       q    Type
REMARK                         _______ _______ _______ _____ _____    ______ ____
ROOT
ATOM      1  N   UNL     1       2.900   5.961  19.024  0.00  0.00    +0.000 N 
ATOM      2  C   UNL     1       2.229   6.170  20.189  0.00  0.00    +0.000 C 
ATOM      3  O   UNL     1       1.990   5.376  21.082  0.00  0.00    +0.000 OA
ATOM      4  S   UNL     1       1.630   7.819  20.265  0.00  0.00    +0.000 S 
ATOM      5  C   UNL     1       2.172   8.177  18.670  0.00  0.00    +0.000 C 
ATOM      6  C   UNL     1       1.962   9.282  17.933  0.00  0.00    +0.000 C 
ATOM      7  C   UNL     1       2.910   7.009  18.124  0.00  0.00    +0.000 C 
ATOM      8  O   UNL     1       3.451   7.010  17.029  0.00  0.00    +0.000 OA
ENDROOT
BRANCH   6   9
ATOM      9  C   UNL     1       1.274  10.456  18.374  0.00  0.00    +0.000 A 
ATOM     10  C   UNL     1      -0.025  10.635  18.824  0.00  0.00    +0.000 A 
ATOM     11  C   UNL     1      -0.305  11.977  19.179  0.00  0.00    +0.000 A 
ATOM     12 BR   UNL     1      -2.002  12.504  19.805  0.00  0.00    +0.000 Br
ATOM     13  C   UNL     1       0.772  12.809  19.025  0.00  0.00    +0.000 A 
ATOM     14  S   UNL     1       2.136  11.954  18.452  0.00  0.00    +0.000 S 
ENDBRANCH   6   9
BRANCH   1  15
ATOM     15  C   UNL     1       3.478   4.670  18.666  0.00  0.00    +0.000 C 
BRANCH  15  16
ATOM     16  C   UNL     1       4.752   4.769  17.846  0.00  0.00    +0.000 A 
ATOM     17  C   UNL     1       4.808   4.420  16.490  0.00  0.00    +0.000 A 
ATOM     18  C   UNL     1       6.037   4.349  15.826  0.00  0.00    +0.000 A 
ATOM     19  C   UNL     1       7.220   4.639  16.504  0.00  0.00    +0.000 A 
ATOM     20  C   UNL     1       7.168   5.073  17.826  0.00  0.00    +0.000 A 
ATOM     21  C   UNL     1       5.940   5.157  18.475  0.00  0.00    +0.000 A 
ATOM     22  F   UNL     1       5.913   5.591  19.742  0.00  0.00    +0.000 F 
ENDBRANCH  15  16
BRANCH  15  24
ATOM     23  O   UNL     1       1.645   4.007  17.176  0.00  0.00    +0.000 OA
ATOM     24  C   UNL     1       2.442   3.699  18.056  0.00  0.00    +0.000 C 
BRANCH  24  25
ATOM     25  C   UNL     1       2.461   2.287  18.566  0.00  0.00    +0.000 C 
ATOM     26  C   UNL     1       3.616   1.393  18.163  0.00  0.00    +0.000 C 
ATOM     27  C   UNL     1       3.490   1.851  19.585  0.00  0.00    +0.000 C 
ENDBRANCH  24  25
ENDBRANCH  15  24
ENDBRANCH   1  15
TORSDOF 5
ENDMDL
MODEL 3
REMARK VINA RESULT:      -7.9      1.495      2.156
REMARK  Name = 
REMARK  5 active torsions:
REMARK  status: ('A' for Active; 'I' for Inactive)
REMARK    1  A    between atoms: C_2  and  C_3
REMARK    2  A    between atoms: C_2  and  C_6
REMARK    3  A    between atoms: C_6  and  C_7
REMARK    4  A    between atoms: C_6  and  N_14
REMARK    5  A    between atoms: C_19  and  C_20
REMARK                            x       y       z     vdW  Elec       q    Type
REMARK                         _______ _______ _______ _____ _____    ______ ____
ROOT
ATOM      1  N   UNL     1       2.884   6.021  18.885  0.00  0.00    +0.000 N 
ATOM      2  C   UNL     1       3.026   7.078  18.040  0.00  0.00    +0.000 C 
ATOM      3  O   UNL     1       3.672   7.147  17.009  0.00  0.00    +0.000 OA
ATOM      4  S   UNL     1       2.170   8.480  18.661  0.00  0.00    +0.000 S 
ATOM      5  C   UNL     1       1.736   7.672  20.119  0.00  0.00    +0.000 C 
ATOM      6  C   UNL     1       1.131   8.167  21.213  0.00  0.00    +0.000 C 
ATOM      7  C   UNL     1       2.197   6.261  20.058  0.00  0.00    +0.000 C 
ATOM      8  O   UNL     1       1.972   5.444  20.939  0.00  0.00    +0.000 OA
ENDROOT
BRANCH   6   9
ATOM      9  C   UNL     1       0.646   9.505  21.360  0.00  0.00    +0.000 A 
ATOM     10  C   UNL     1       0.758  10.610  20.531  0.00  0.00    +0.000 A 
ATOM     11  C   UNL     1       0.113  11.758  21.054  0.00  0.00    +0.000 A 
ATOM     12 BR   UNL     1       0.126  13.405  20.139  0.00  0.00    +0.000 Br
ATOM     13  C   UNL     1      -0.504  11.527  22.254  0.00  0.00    +0.000 A 
ATOM     14  S   UNL     1      -0.306   9.903  22.748  0.00  0.00    +0.000 S 
ENDBRANCH   6   9
BRANCH   1  15
ATOM     15  C   UNL     1       3.517   4.729  18.647  0.00  0.00    +0.000 C 
BRANCH  15  16
ATOM     16  C   UNL     1       4.801   4.807  17.841  0.00  0.00    +0.000 A 
ATOM     17  C   UNL     1       4.865   4.461  16.483  0.00  0.00    +0.000 A 
ATOM     18  C   UNL     1       6.098   4.370  15.832  0.00  0.00    +0.000 A 
ATOM     19  C   UNL     1       7.280   4.639  16.523  0.00  0.00    +0.000 A 
ATOM     20  C   UNL     1       7.222   5.071  17.845  0.00  0.00    +0.000 A 
ATOM     21  C   UNL     1       5.989   5.174  18.482  0.00  0.00    +0.000 A 
ATOM     22  F   UNL     1       5.957   5.606  19.750  0.00  0.00    +0.000 F 
ENDBRANCH  15  16
BRANCH  15  24
ATOM     23  O   UNL     1       1.719   3.878  17.211  0.00  0.00    +0.000 OA
ATOM     24  C   UNL     1       2.530   3.669  18.108  0.00  0.00    +0.000 C 
BRANCH  24  25
ATOM     25  C   UNL     1       2.617   2.297  18.712  0.00  0.00    +0.000 C 
ATOM     26  C   UNL     1       3.690   1.356  18.204  0.00  0.00    +0.000 C 
ATOM     27  C   UNL     1       3.788   1.917  19.590  0.00  0.00    +0.000 C 
ENDBRANCH  24  25
ENDBRANCH  15  24
ENDBRANCH   1  15
TORSDOF 5
ENDMDL
MODEL 4
REMARK VINA RESULT:      -7.8      1.739      3.375
REMARK  Name = 
REMARK  5 active torsions:
REMARK  status: ('A' for Active; 'I' for Inactive)
REMARK    1  A    between atoms: C_2  and  C_3
REMARK    2  A    between atoms: C_2  and  C_6
REMARK    3  A    between atoms: C_6  and  C_7
REMARK    4  A    between atoms: C_6  and  N_14
REMARK    5  A    between atoms: C_19  and  C_20
REMARK                            x       y       z     vdW  Elec       q    Type
REMARK                         _______ _______ _______ _____ _____    ______ ____
ROOT
ATOM      1  N   UNL     1       3.012   6.689  18.647  0.00  0.00    +0.000 N 
ATOM      2  C   UNL     1       2.512   6.518  19.900  0.00  0.00    +0.000 C 
ATOM      3  O   UNL     1       2.592   5.541  20.625  0.00  0.00    +0.000 OA
ATOM      4  S   UNL     1       1.605   7.936  20.399  0.00  0.00    +0.000 S 
ATOM      5  C   UNL     1       1.793   8.697  18.866  0.00  0.00    +0.000 C 
ATOM      6  C   UNL     1       1.241   9.837  18.414  0.00  0.00    +0.000 C 
ATOM      7  C   UNL     1       2.658   7.856  17.999  0.00  0.00    +0.000 C 
ATOM      8  O   UNL     1       3.001   8.186  16.873  0.00  0.00    +0.000 OA
ENDROOT
BRANCH   6   9
ATOM      9  C   UNL     1       0.406  10.714  19.174  0.00  0.00    +0.000 A 
ATOM     10  C   UNL     1       0.717  11.645  20.154  0.00  0.00    +0.000 A 
ATOM     11  C   UNL     1      -0.423  12.323  20.651  0.00  0.00    +0.000 A 
ATOM     12 BR   UNL     1      -0.289  13.627  22.004  0.00  0.00    +0.000 Br
ATOM     13  C   UNL     1      -1.587  11.934  20.043  0.00  0.00    +0.000 A 
ATOM     14  S   UNL     1      -1.294  10.742  18.854  0.00  0.00    +0.000 S 
ENDBRANCH   6   9
BRANCH   1  15
ATOM     15  C   UNL     1       3.779   5.660  17.954  0.00  0.00    +0.000 C 
BRANCH  15  16
ATOM     16  C   UNL     1       3.350   4.241  18.282  0.00  0.00    +0.000 A 
ATOM     17  C   UNL     1       4.191   3.326  18.930  0.00  0.00    +0.000 A 
ATOM     18  C   UNL     1       3.824   1.983  19.044  0.00  0.00    +0.000 A 
ATOM     19  C   UNL     1       2.607   1.540  18.527  0.00  0.00    +0.000 A 
ATOM     20  C   UNL     1       1.724   2.457  17.961  0.00  0.00    +0.000 A 
ATOM     21  C   UNL     1       2.091   3.796  17.866  0.00  0.00    +0.000 A 
ATOM     22  F   UNL     1       1.219   4.662  17.331  0.00  0.00    +0.000 F 
ENDBRANCH  15  16
BRANCH  15  24
ATOM     23  O   UNL     1       5.923   5.853  19.133  0.00  0.00    +0.000 OA
ATOM     24  C   UNL     1       5.306   5.871  18.072  0.00  0.00    +0.000 C 
BRANCH  24  25
ATOM     25  C   UNL     1       6.060   6.071  16.789  0.00  0.00    +0.000 C 
ATOM     26  C   UNL     1       6.600   4.848  16.076  0.00  0.00    +0.000 C 
ATOM     27  C   UNL     1       5.468   5.623  15.472  0.00  0.00    +0.000 C 
ENDBRANCH  24  25
ENDBRANCH  15  24
ENDBRANCH   1  15
TORSDOF 5
ENDMDL
MODEL 5
REMARK VINA RESULT:      -7.7      1.959      3.550
REMARK  Name = 
REMARK  5 active torsions:
REMARK  status: ('A' for Active; 'I' for Inactive)
REMARK    1  A    between atoms: C_2  and  C_3
REMARK    2  A    between atoms: C_2  and  C_6
REMARK    3  A    between atoms: C_6  and  C_7
REMARK    4  A    between atoms: C_6  and  N_14
REMARK    5  A    between atoms: C_19  and  C_20
REMARK                            x       y       z     vdW  Elec       q    Type
REMARK                         _______ _______ _______ _____ _____    ______ ____
ROOT
ATOM      1  N   UNL     1       2.974   6.738  18.649  0.00  0.00    +0.000 N 
ATOM      2  C   UNL     1       2.475   6.590  19.906  0.00  0.00    +0.000 C 
ATOM      3  O   UNL     1       2.554   5.625  20.648  0.00  0.00    +0.000 OA
ATOM      4  S   UNL     1       1.570   8.017  20.380  0.00  0.00    +0.000 S 
ATOM      5  C   UNL     1       1.757   8.751  18.833  0.00  0.00    +0.000 C 
ATOM      6  C   UNL     1       1.206   9.883  18.361  0.00  0.00    +0.000 C 
ATOM      7  C   UNL     1       2.621   7.894  17.981  0.00  0.00    +0.000 C 
ATOM      8  O   UNL     1       2.963   8.202  16.849  0.00  0.00    +0.000 OA
ENDROOT
BRANCH   6   9
ATOM      9  C   UNL     1       0.372  10.774  19.106  0.00  0.00    +0.000 A 
ATOM     10  C   UNL     1      -0.993  11.012  19.042  0.00  0.00    +0.000 A 
ATOM     11  C   UNL     1      -1.428  11.981  19.979  0.00  0.00    +0.000 A 
ATOM     12 BR   UNL     1      -3.232  12.508  20.095  0.00  0.00    +0.000 Br
ATOM     13  C   UNL     1      -0.414  12.461  20.765  0.00  0.00    +0.000 A 
ATOM     14  S   UNL     1       1.076  11.725  20.368  0.00  0.00    +0.000 S 
ENDBRANCH   6   9
BRANCH   1  15
ATOM     15  C   UNL     1       3.740   5.695  17.975  0.00  0.00    +0.000 C 
BRANCH  15  16
ATOM     16  C   UNL     1       3.301   4.284  18.318  0.00  0.00    +0.000 A 
ATOM     17  C   UNL     1       4.130   3.376  18.992  0.00  0.00    +0.000 A 
ATOM     18  C   UNL     1       3.756   2.035  19.121  0.00  0.00    +0.000 A 
ATOM     19  C   UNL     1       2.544   1.589  18.594  0.00  0.00    +0.000 A 
ATOM     20  C   UNL     1       1.673   2.500  18.003  0.00  0.00    +0.000 A 
ATOM     21  C   UNL     1       2.046   3.836  17.892  0.00  0.00    +0.000 A 
ATOM     22  F   UNL     1       1.185   4.697  17.333  0.00  0.00    +0.000 F 
ENDBRANCH  15  16
BRANCH  15  24
ATOM     23  O   UNL     1       5.886   5.828  19.157  0.00  0.00    +0.000 OA
ATOM     24  C   UNL     1       5.267   5.900  18.100  0.00  0.00    +0.000 C 
BRANCH  24  25
ATOM     25  C   UNL     1       6.018   6.165  16.827  0.00  0.00    +0.000 C 
ATOM     26  C   UNL     1       6.722   5.004  16.154  0.00  0.00    +0.000 C 
ATOM     27  C   UNL     1       5.515   5.617  15.510  0.00  0.00    +0.000 C 
ENDBRANCH  24  25
ENDBRANCH  15  24
ENDBRANCH   1  15
TORSDOF 5
ENDMDL
MODEL 6
REMARK VINA RESULT:      -7.4      2.219      4.012
REMARK  Name = 
REMARK  5 active torsions:
REMARK  status: ('A' for Active; 'I' for Inactive)
REMARK    1  A    between atoms: C_2  and  C_3
REMARK    2  A    between atoms: C_2  and  C_6
REMARK    3  A    between atoms: C_6  and  C_7
REMARK    4  A    between atoms: C_6  and  N_14
REMARK    5  A    between atoms: C_19  and  C_20
REMARK                            x       y       z     vdW  Elec       q    Type
REMARK                         _______ _______ _______ _____ _____    ______ ____
ROOT
ATOM      1  N   UNL     1       2.902   6.721  18.536  0.00  0.00    +0.000 N 
ATOM      2  C   UNL     1       2.718   7.840  17.786  0.00  0.00    +0.000 C 
ATOM      3  O   UNL     1       3.159   8.095  16.678  0.00  0.00    +0.000 OA
ATOM      4  S   UNL     1       1.756   9.018  18.663  0.00  0.00    +0.000 S 
ATOM      5  C   UNL     1       1.719   8.048  20.087  0.00  0.00    +0.000 C 
ATOM      6  C   UNL     1       1.233   8.350  21.304  0.00  0.00    +0.000 C 
ATOM      7  C   UNL     1       2.394   6.752  19.820  0.00  0.00    +0.000 C 
ATOM      8  O   UNL     1       2.463   5.851  20.642  0.00  0.00    +0.000 OA
ENDROOT
BRANCH   6   9
ATOM      9  C   UNL     1       0.562   9.564  21.653  0.00  0.00    +0.000 A 
ATOM     10  C   UNL     1       0.567  10.813  21.050  0.00  0.00    +0.000 A 
ATOM     11  C   UNL     1      -0.258  11.750  21.719  0.00  0.00    +0.000 A 
ATOM     12 BR   UNL     1      -0.421  13.529  21.123  0.00  0.00    +0.000 Br
ATOM     13  C   UNL     1      -0.903  11.220  22.805  0.00  0.00    +0.000 A 
ATOM     14  S   UNL     1      -0.511   9.569  23.010  0.00  0.00    +0.000 S 
ENDBRANCH   6   9
BRANCH   1  15
ATOM     15  C   UNL     1       3.695   5.585  18.079  0.00  0.00    +0.000 C 
BRANCH  15  16
ATOM     16  C   UNL     1       3.118   4.234  18.461  0.00  0.00    +0.000 A 
ATOM     17  C   UNL     1       3.831   3.293  19.218  0.00  0.00    +0.000 A 
ATOM     18  C   UNL     1       3.336   1.997  19.387  0.00  0.00    +0.000 A 
ATOM     19  C   UNL     1       2.118   1.629  18.816  0.00  0.00    +0.000 A 
ATOM     20  C   UNL     1       1.360   2.580  18.138  0.00  0.00    +0.000 A 
ATOM     21  C   UNL     1       1.852   3.873  17.989  0.00  0.00    +0.000 A 
ATOM     22  F   UNL     1       1.098   4.775  17.346  0.00  0.00    +0.000 F 
ENDBRANCH  15  16
BRANCH  15  24
ATOM     23  O   UNL     1       5.638   5.697  19.573  0.00  0.00    +0.000 OA
ATOM     24  C   UNL     1       5.194   5.722  18.430  0.00  0.00    +0.000 C 
BRANCH  24  25
ATOM     25  C   UNL     1       6.146   5.857  17.276  0.00  0.00    +0.000 C 
ATOM     26  C   UNL     1       6.780   4.600  16.719  0.00  0.00    +0.000 C 
ATOM     27  C   UNL     1       5.768   5.347  15.904  0.00  0.00    +0.000 C 
ENDBRANCH  24  25
ENDBRANCH  15  24
ENDBRANCH   1  15
TORSDOF 5
ENDMDL
MODEL 7
REMARK VINA RESULT:      -7.4      1.759      2.377
REMARK  Name = 
REMARK  5 active torsions:
REMARK  status: ('A' for Active; 'I' for Inactive)
REMARK    1  A    between atoms: C_2  and  C_3
REMARK    2  A    between atoms: C_2  and  C_6
REMARK    3  A    between atoms: C_6  and  C_7
REMARK    4  A    between atoms: C_6  and  N_14
REMARK    5  A    between atoms: C_19  and  C_20
REMARK                            x       y       z     vdW  Elec       q    Type
REMARK                         _______ _______ _______ _____ _____    ______ ____
ROOT
ATOM      1  N   UNL     1       2.832   6.065  18.907  0.00  0.00    +0.000 N 
ATOM      2  C   UNL     1       2.952   7.113  18.049  0.00  0.00    +0.000 C 
ATOM      3  O   UNL     1       3.587   7.177  17.010  0.00  0.00    +0.000 OA
ATOM      4  S   UNL     1       2.083   8.510  18.660  0.00  0.00    +0.000 S 
ATOM      5  C   UNL     1       1.673   7.715  20.132  0.00  0.00    +0.000 C 
ATOM      6  C   UNL     1       1.071   8.216  21.225  0.00  0.00    +0.000 C 
ATOM      7  C   UNL     1       2.152   6.310  20.084  0.00  0.00    +0.000 C 
ATOM      8  O   UNL     1       1.946   5.501  20.977  0.00  0.00    +0.000 OA
ENDROOT
BRANCH   6   9
ATOM      9  C   UNL     1       0.570   9.548  21.360  0.00  0.00    +0.000 A 
ATOM     10  C   UNL     1      -0.388  10.079  22.212  0.00  0.00    +0.000 A 
ATOM     11  C   UNL     1      -0.581  11.469  22.026  0.00  0.00    +0.000 A 
ATOM     12 BR   UNL     1      -1.837  12.440  23.040  0.00  0.00    +0.000 Br
ATOM     13  C   UNL     1       0.234  12.000  21.061  0.00  0.00    +0.000 A 
ATOM     14  S   UNL     1       1.247  10.803  20.382  0.00  0.00    +0.000 S 
ENDBRANCH   6   9
BRANCH   1  15
ATOM     15  C   UNL     1       3.480   4.778  18.680  0.00  0.00    +0.000 C 
BRANCH  15  16
ATOM     16  C   UNL     1       4.750   4.862  17.852  0.00  0.00    +0.000 A 
ATOM     17  C   UNL     1       4.791   4.522  16.492  0.00  0.00    +0.000 A 
ATOM     18  C   UNL     1       6.013   4.436  15.819  0.00  0.00    +0.000 A 
ATOM     19  C   UNL     1       7.206   4.704  16.491  0.00  0.00    +0.000 A 
ATOM     20  C   UNL     1       7.170   5.129  17.816  0.00  0.00    +0.000 A 
ATOM     21  C   UNL     1       5.948   5.227  18.474  0.00  0.00    +0.000 A 
ATOM     22  F   UNL     1       5.937   5.653  19.745  0.00  0.00    +0.000 F 
ENDBRANCH  15  16
BRANCH  15  24
ATOM     23  O   UNL     1       1.655   3.885  17.304  0.00  0.00    +0.000 OA
ATOM     24  C   UNL     1       2.500   3.695  18.173  0.00  0.00    +0.000 C 
BRANCH  24  25
ATOM     25  C   UNL     1       2.639   2.326  18.774  0.00  0.00    +0.000 C 
ATOM     26  C   UNL     1       3.666   1.383  18.182  0.00  0.00    +0.000 C 
ATOM     27  C   UNL     1       3.880   1.950  19.553  0.00  0.00    +0.000 C 
ENDBRANCH  24  25
ENDBRANCH  15  24
ENDBRANCH   1  15
TORSDOF 5
ENDMDL
MODEL 8
REMARK VINA RESULT:      -7.3      2.018      3.684
REMARK  Name = 
REMARK  5 active torsions:
REMARK  status: ('A' for Active; 'I' for Inactive)
REMARK    1  A    between atoms: C_2  and  C_3
REMARK    2  A    between atoms: C_2  and  C_6
REMARK    3  A    between atoms: C_6  and  C_7
REMARK    4  A    between atoms: C_6  and  N_14
REMARK    5  A    between atoms: C_19  and  C_20
REMARK                            x       y       z     vdW  Elec       q    Type
REMARK                         _______ _______ _______ _____ _____    ______ ____
ROOT
ATOM      1  N   UNL     1       2.576   6.979  18.958  0.00  0.00    +0.000 N 
ATOM      2  C   UNL     1       2.163   6.905  20.252  0.00  0.00    +0.000 C 
ATOM      3  O   UNL     1       2.262   5.972  21.030  0.00  0.00    +0.000 OA
ATOM      4  S   UNL     1       1.346   8.386  20.721  0.00  0.00    +0.000 S 
ATOM      5  C   UNL     1       1.448   9.044  19.132  0.00  0.00    +0.000 C 
ATOM      6  C   UNL     1       0.905  10.175  18.649  0.00  0.00    +0.000 C 
ATOM      7  C   UNL     1       2.216   8.117  18.262  0.00  0.00    +0.000 C 
ATOM      8  O   UNL     1       2.488   8.362  17.097  0.00  0.00    +0.000 OA
ENDROOT
BRANCH   6   9
ATOM      9  C   UNL     1       0.159  11.130  19.408  0.00  0.00    +0.000 A 
ATOM     10  C   UNL     1      -1.208  11.318  19.543  0.00  0.00    +0.000 A 
ATOM     11  C   UNL     1      -1.533  12.386  20.415  0.00  0.00    +0.000 A 
ATOM     12 BR   UNL     1      -3.319  12.872  20.765  0.00  0.00    +0.000 Br
ATOM     13  C   UNL     1      -0.430  12.991  20.958  0.00  0.00    +0.000 A 
ATOM     14  S   UNL     1       1.011  12.253  20.411  0.00  0.00    +0.000 S 
ENDBRANCH   6   9
BRANCH   1  15
ATOM     15  C   UNL     1       3.253   5.879  18.280  0.00  0.00    +0.000 C 
BRANCH  15  16
ATOM     16  C   UNL     1       2.500   4.562  18.332  0.00  0.00    +0.000 A 
ATOM     17  C   UNL     1       1.431   4.335  19.210  0.00  0.00    +0.000 A 
ATOM     18  C   UNL     1       0.891   3.054  19.354  0.00  0.00    +0.000 A 
ATOM     19  C   UNL     1       1.401   1.989  18.612  0.00  0.00    +0.000 A 
ATOM     20  C   UNL     1       2.402   2.220  17.673  0.00  0.00    +0.000 A 
ATOM     21  C   UNL     1       2.923   3.501  17.524  0.00  0.00    +0.000 A 
ATOM     22  F   UNL     1       3.876   3.702  16.603  0.00  0.00    +0.000 F 
ENDBRANCH  15  16
BRANCH  15  24
ATOM     23  O   UNL     1       5.121   5.109  19.673  0.00  0.00    +0.000 OA
ATOM     24  C   UNL     1       4.736   5.743  18.696  0.00  0.00    +0.000 C 
BRANCH  24  25
ATOM     25  C   UNL     1       5.748   6.409  17.809  0.00  0.00    +0.000 C 
ATOM     26  C   UNL     1       6.491   5.556  16.802  0.00  0.00    +0.000 C 
ATOM     27  C   UNL     1       5.488   6.564  16.327  0.00  0.00    +0.000 C 
ENDBRANCH  24  25
ENDBRANCH  15  24
ENDBRANCH   1  15
TORSDOF 5
ENDMDL
MODEL 9
REMARK VINA RESULT:      -7.2      1.800      3.517
REMARK  Name = 
REMARK  5 active torsions:
REMARK  status: ('A' for Active; 'I' for Inactive)
REMARK    1  A    between atoms: C_2  and  C_3
REMARK    2  A    between atoms: C_2  and  C_6
REMARK    3  A    between atoms: C_6  and  C_7
REMARK    4  A    between atoms: C_6  and  N_14
REMARK    5  A    between atoms: C_19  and  C_20
REMARK                            x       y       z     vdW  Elec       q    Type
REMARK                         _______ _______ _______ _____ _____    ______ ____
ROOT
ATOM      1  N   UNL     1       2.594   6.976  18.936  0.00  0.00    +0.000 N 
ATOM      2  C   UNL     1       2.185   6.909  20.232  0.00  0.00    +0.000 C 
ATOM      3  O   UNL     1       2.288   5.981  21.016  0.00  0.00    +0.000 OA
ATOM      4  S   UNL     1       1.363   8.389  20.694  0.00  0.00    +0.000 S 
ATOM      5  C   UNL     1       1.459   9.037  19.101  0.00  0.00    +0.000 C 
ATOM      6  C   UNL     1       0.910  10.163  18.611  0.00  0.00    +0.000 C 
ATOM      7  C   UNL     1       2.229   8.108  18.235  0.00  0.00    +0.000 C 
ATOM      8  O   UNL     1       2.497   8.348  17.067  0.00  0.00    +0.000 OA
ENDROOT
BRANCH   6   9
ATOM      9  C   UNL     1       0.162  11.120  19.366  0.00  0.00    +0.000 A 
ATOM     10  C   UNL     1       0.561  12.028  20.335  0.00  0.00    +0.000 A 
ATOM     11  C   UNL     1      -0.509  12.811  20.830  0.00  0.00    +0.000 A 
ATOM     12 BR   UNL     1      -0.251  14.111  22.169  0.00  0.00    +0.000 Br
ATOM     13  C   UNL     1      -1.707  12.524  20.232  0.00  0.00    +0.000 A 
ATOM     14  S   UNL     1      -1.530  11.298  19.054  0.00  0.00    +0.000 S 
ENDBRANCH   6   9
BRANCH   1  15
ATOM     15  C   UNL     1       3.275   5.875  18.264  0.00  0.00    +0.000 C 
BRANCH  15  16
ATOM     16  C   UNL     1       2.521   4.558  18.313  0.00  0.00    +0.000 A 
ATOM     17  C   UNL     1       1.449   4.332  19.188  0.00  0.00    +0.000 A 
ATOM     18  C   UNL     1       0.907   3.052  19.330  0.00  0.00    +0.000 A 
ATOM     19  C   UNL     1       1.419   1.986  18.590  0.00  0.00    +0.000 A 
ATOM     20  C   UNL     1       2.423   2.216  17.653  0.00  0.00    +0.000 A 
ATOM     21  C   UNL     1       2.945   3.498  17.507  0.00  0.00    +0.000 A 
ATOM     22  F   UNL     1       3.901   3.698  16.588  0.00  0.00    +0.000 F 
ENDBRANCH  15  16
BRANCH  15  24
ATOM     23  O   UNL     1       5.134   5.109  19.671  0.00  0.00    +0.000 OA
ATOM     24  C   UNL     1       4.755   5.738  18.689  0.00  0.00    +0.000 C 
BRANCH  24  25
ATOM     25  C   UNL     1       5.773   6.397  17.803  0.00  0.00    +0.000 C 
ATOM     26  C   UNL     1       6.577   5.524  16.862  0.00  0.00    +0.000 C 
ATOM     27  C   UNL     1       5.558   6.474  16.309  0.00  0.00    +0.000 C 
ENDBRANCH  24  25
ENDBRANCH  15  24
ENDBRANCH   1  15
TORSDOF 5
ENDMDL
