MODEL 1
REMARK VINA RESULT:      -6.1      0.000      0.000
REMARK  Name = 
REMARK  5 active torsions:
REMARK  status: ('A' for Active; 'I' for Inactive)
REMARK    1  A    between atoms: C_1  and  C_2
REMARK    2  A    between atoms: N_7  and  N_8
REMARK    3  A    between atoms: C_9  and  C_10
REMARK    4  A    between atoms: C_13  and  C_14
REMARK    5  A    between atoms: C_18  and  C_19
REMARK                            x       y       z     vdW  Elec       q    Type
REMARK                         _______ _______ _______ _____ _____    ______ ____
ROOT
ATOM      1  C   UNL     1       0.030  11.275  20.127  0.00  0.00    +0.000 C 
ATOM      2  C   UNL     1       0.814  10.077  19.701  0.00  0.00    +0.000 A 
ATOM      3  S   UNL     1       1.791  10.162  18.300  0.00  0.00    +0.000 S 
ATOM      4  C   UNL     1       2.230   8.527  18.427  0.00  0.00    +0.000 A 
ATOM      5  N   UNL     1       2.910   7.899  17.431  0.00  0.00    +0.000 NA
ATOM      6  C   UNL     1       3.147   6.650  17.663  0.00  0.00    +0.000 A 
ATOM      7  N   UNL     1       2.883   5.974  18.839  0.00  0.00    +0.000 N 
ATOM      8  C   UNL     1       2.260   6.609  19.920  0.00  0.00    +0.000 A 
ATOM      9  O   UNL     1       2.108   6.125  21.036  0.00  0.00    +0.000 OA
ATOM     10  C   UNL     1       1.795   7.959  19.607  0.00  0.00    +0.000 A 
ATOM     11  C   UNL     1       0.846   8.815  20.285  0.00  0.00    +0.000 A 
ATOM     12  C   UNL     1      -0.028   8.417  21.432  0.00  0.00    +0.000 C 
ENDROOT
BRANCH   7  13
ATOM     13  N   UNL     1       3.312   4.666  18.971  0.00  0.00    +0.000 N 
ATOM     14  C   UNL     1       2.524   3.537  18.812  0.00  0.00    +0.000 A 
ATOM     15  C   UNL     1       1.054   3.506  18.570  0.00  0.00    +0.000 C 
ATOM     16  C   UNL     1       3.338   2.435  18.999  0.00  0.00    +0.000 A 
ATOM     17  C   UNL     1       4.647   2.892  19.224  0.00  0.00    +0.000 A 
ATOM     18  C   UNL     1       4.627   4.275  19.203  0.00  0.00    +0.000 A 
ATOM     19  C   UNL     1       5.803   5.174  19.383  0.00  0.00    +0.000 C 
ENDBRANCH   7  13
TORSDOF 1
ENDMDL
MODEL 2
REMARK VINA RESULT:      -6.1      3.347      5.766
REMARK  Name = 
REMARK  5 active torsions:
REMARK  status: ('A' for Active; 'I' for Inactive)
REMARK    1  A    between atoms: C_1  and  C_2
REMARK    2  A    between atoms: N_7  and  N_8
REMARK    3  A    between atoms: C_9  and  C_10
REMARK    4  A    between atoms: C_13  and  C_14
REMARK    5  A    between atoms: C_18  and  C_19
REMARK                            x       y       z     vdW  Elec       q    Type
REMARK                         _______ _______ _______ _____ _____    ______ ____
ROOT
ATOM      1  C   UNL     1       7.727   5.370  13.868  0.00  0.00    +0.000 C 
ATOM      2  C   UNL     1       6.920   5.227  15.118  0.00  0.00    +0.000 A 
ATOM      3  S   UNL     1       7.453   5.982  16.557  0.00  0.00    +0.000 S 
ATOM      4  C   UNL     1       6.170   5.324  17.454  0.00  0.00    +0.000 A 
ATOM      5  N   UNL     1       6.132   5.424  18.810  0.00  0.00    +0.000 NA
ATOM      6  C   UNL     1       5.109   4.852  19.351  0.00  0.00    +0.000 A 
ATOM      7  N   UNL     1       4.044   4.282  18.680  0.00  0.00    +0.000 N 
ATOM      8  C   UNL     1       4.005   4.235  17.281  0.00  0.00    +0.000 A 
ATOM      9  O   UNL     1       3.047   3.869  16.609  0.00  0.00    +0.000 OA
ATOM     10  C   UNL     1       5.245   4.687  16.654  0.00  0.00    +0.000 A 
ATOM     11  C   UNL     1       5.750   4.501  15.311  0.00  0.00    +0.000 A 
ATOM     12  C   UNL     1       5.145   3.622  14.262  0.00  0.00    +0.000 C 
ENDROOT
BRANCH   7  13
ATOM     13  N   UNL     1       2.963   3.818  19.408  0.00  0.00    +0.000 N 
ATOM     14  C   UNL     1       2.009   4.608  20.028  0.00  0.00    +0.000 A 
ATOM     15  C   UNL     1       2.008   6.096  20.118  0.00  0.00    +0.000 C 
ATOM     16  C   UNL     1       1.090   3.761  20.621  0.00  0.00    +0.000 A 
ATOM     17  C   UNL     1       1.458   2.439  20.318  0.00  0.00    +0.000 A 
ATOM     18  C   UNL     1       2.619   2.479  19.564  0.00  0.00    +0.000 A 
ATOM     19  C   UNL     1       3.350   1.303  19.014  0.00  0.00    +0.000 C 
ENDBRANCH   7  13
TORSDOF 1
ENDMDL
MODEL 3
REMARK VINA RESULT:      -6.1      3.364      5.732
REMARK  Name = 
REMARK  5 active torsions:
REMARK  status: ('A' for Active; 'I' for Inactive)
REMARK    1  A    between atoms: C_1  and  C_2
REMARK    2  A    between atoms: N_7  and  N_8
REMARK    3  A    between atoms: C_9  and  C_10
REMARK    4  A    between atoms: C_13  and  C_14
REMARK    5  A    between atoms: C_18  and  C_19
REMARK                            x       y       z     vdW  Elec       q    Type
REMARK                         _______ _______ _______ _____ _____    ______ ____
ROOT
ATOM      1  C   UNL     1       7.678   5.350  13.816  0.00  0.00    +0.000 C 
ATOM      2  C   UNL     1       6.874   5.214  15.068  0.00  0.00    +0.000 A 
ATOM      3  S   UNL     1       7.418   5.965  16.505  0.00  0.00    +0.000 S 
ATOM      4  C   UNL     1       6.133   5.318  17.407  0.00  0.00    +0.000 A 
ATOM      5  N   UNL     1       6.100   5.418  18.763  0.00  0.00    +0.000 NA
ATOM      6  C   UNL     1       5.074   4.854  19.307  0.00  0.00    +0.000 A 
ATOM      7  N   UNL     1       4.002   4.292  18.639  0.00  0.00    +0.000 N 
ATOM      8  C   UNL     1       3.959   4.245  17.241  0.00  0.00    +0.000 A 
ATOM      9  O   UNL     1       2.995   3.886  16.572  0.00  0.00    +0.000 OA
ATOM     10  C   UNL     1       5.200   4.687  16.610  0.00  0.00    +0.000 A 
ATOM     11  C   UNL     1       5.699   4.497  15.265  0.00  0.00    +0.000 A 
ATOM     12  C   UNL     1       5.084   3.623  14.218  0.00  0.00    +0.000 C 
ENDROOT
BRANCH   7  13
ATOM     13  N   UNL     1       2.920   3.837  19.372  0.00  0.00    +0.000 N 
ATOM     14  C   UNL     1       2.597   2.508  19.594  0.00  0.00    +0.000 A 
ATOM     15  C   UNL     1       3.281   1.318  19.015  0.00  0.00    +0.000 C 
ATOM     16  C   UNL     1       1.468   2.485  20.393  0.00  0.00    +0.000 A 
ATOM     17  C   UNL     1       1.126   3.812  20.705  0.00  0.00    +0.000 A 
ATOM     18  C   UNL     1       2.031   4.647  20.071  0.00  0.00    +0.000 A 
ATOM     19  C   UNL     1       2.050   6.135  20.142  0.00  0.00    +0.000 C 
ENDBRANCH   7  13
TORSDOF 1
ENDMDL
MODEL 4
REMARK VINA RESULT:      -6.0      0.612      1.955
REMARK  Name = 
REMARK  5 active torsions:
REMARK  status: ('A' for Active; 'I' for Inactive)
REMARK    1  A    between atoms: C_1  and  C_2
REMARK    2  A    between atoms: N_7  and  N_8
REMARK    3  A    between atoms: C_9  and  C_10
REMARK    4  A    between atoms: C_13  and  C_14
REMARK    5  A    between atoms: C_18  and  C_19
REMARK                            x       y       z     vdW  Elec       q    Type
REMARK                         _______ _______ _______ _____ _____    ______ ____
ROOT
ATOM      1  C   UNL     1      -0.222  11.344  20.685  0.00  0.00    +0.000 C 
ATOM      2  C   UNL     1       0.604  10.264  20.065  0.00  0.00    +0.000 A 
ATOM      3  S   UNL     1       1.497  10.595  18.645  0.00  0.00    +0.000 S 
ATOM      4  C   UNL     1       2.034   8.989  18.529  0.00  0.00    +0.000 A 
ATOM      5  N   UNL     1       2.693   8.541  17.427  0.00  0.00    +0.000 NA
ATOM      6  C   UNL     1       3.013   7.291  17.476  0.00  0.00    +0.000 A 
ATOM      7  N   UNL     1       2.851   6.450  18.561  0.00  0.00    +0.000 N 
ATOM      8  C   UNL     1       2.253   6.896  19.746  0.00  0.00    +0.000 A 
ATOM      9  O   UNL     1       2.190   6.260  20.792  0.00  0.00    +0.000 OA
ATOM     10  C   UNL     1       1.696   8.243  19.640  0.00  0.00    +0.000 A 
ATOM     11  C   UNL     1       0.739   8.940  20.470  0.00  0.00    +0.000 A 
ATOM     12  C   UNL     1      -0.048   8.340  21.593  0.00  0.00    +0.000 C 
ENDROOT
BRANCH   7  13
ATOM     13  N   UNL     1       3.360   5.165  18.495  0.00  0.00    +0.000 N 
ATOM     14  C   UNL     1       4.645   4.787  18.849  0.00  0.00    +0.000 A 
ATOM     15  C   UNL     1       5.753   5.689  19.271  0.00  0.00    +0.000 C 
ATOM     16  C   UNL     1       4.740   3.420  18.663  0.00  0.00    +0.000 A 
ATOM     17  C   UNL     1       3.486   2.949  18.240  0.00  0.00    +0.000 A 
ATOM     18  C   UNL     1       2.632   4.034  18.139  0.00  0.00    +0.000 A 
ATOM     19  C   UNL     1       1.198   3.989  17.737  0.00  0.00    +0.000 C 
ENDBRANCH   7  13
TORSDOF 1
ENDMDL
MODEL 5
REMARK VINA RESULT:      -5.9      2.445      3.166
REMARK  Name = 
REMARK  5 active torsions:
REMARK  status: ('A' for Active; 'I' for Inactive)
REMARK    1  A    between atoms: C_1  and  C_2
REMARK    2  A    between atoms: N_7  and  N_8
REMARK    3  A    between atoms: C_9  and  C_10
REMARK    4  A    between atoms: C_13  and  C_14
REMARK    5  A    between atoms: C_18  and  C_19
REMARK                            x       y       z     vdW  Elec       q    Type
REMARK                         _______ _______ _______ _____ _____    ______ ____
ROOT
ATOM      1  C   UNL     1       0.115   9.966  20.306  0.00  0.00    +0.000 C 
ATOM      2  C   UNL     1       1.061   8.887  19.889  0.00  0.00    +0.000 A 
ATOM      3  S   UNL     1       1.232   7.491  20.863  0.00  0.00    +0.000 S 
ATOM      4  C   UNL     1       2.443   6.857  19.856  0.00  0.00    +0.000 A 
ATOM      5  N   UNL     1       3.161   5.761  20.220  0.00  0.00    +0.000 NA
ATOM      6  C   UNL     1       4.063   5.415  19.363  0.00  0.00    +0.000 A 
ATOM      7  N   UNL     1       4.260   5.975  18.114  0.00  0.00    +0.000 N 
ATOM      8  C   UNL     1       3.484   7.052  17.669  0.00  0.00    +0.000 A 
ATOM      9  O   UNL     1       3.502   7.520  16.536  0.00  0.00    +0.000 OA
ATOM     10  C   UNL     1       2.600   7.593  18.700  0.00  0.00    +0.000 A 
ATOM     11  C   UNL     1       1.901   8.856  18.781  0.00  0.00    +0.000 A 
ATOM     12  C   UNL     1       2.066  10.010  17.843  0.00  0.00    +0.000 C 
ENDROOT
BRANCH   7  13
ATOM     13  N   UNL     1       5.191   5.408  17.264  0.00  0.00    +0.000 N 
ATOM     14  C   UNL     1       5.002   4.263  16.507  0.00  0.00    +0.000 A 
ATOM     15  C   UNL     1       3.810   3.368  16.531  0.00  0.00    +0.000 C 
ATOM     16  C   UNL     1       6.158   4.053  15.777  0.00  0.00    +0.000 A 
ATOM     17  C   UNL     1       7.045   5.107  16.052  0.00  0.00    +0.000 A 
ATOM     18  C   UNL     1       6.441   5.946  16.972  0.00  0.00    +0.000 A 
ATOM     19  C   UNL     1       7.021   7.200  17.532  0.00  0.00    +0.000 C 
ENDBRANCH   7  13
TORSDOF 1
ENDMDL
MODEL 6
REMARK VINA RESULT:      -5.8      2.309      3.405
REMARK  Name = 
REMARK  5 active torsions:
REMARK  status: ('A' for Active; 'I' for Inactive)
REMARK    1  A    between atoms: C_1  and  C_2
REMARK    2  A    between atoms: N_7  and  N_8
REMARK    3  A    between atoms: C_9  and  C_10
REMARK    4  A    between atoms: C_13  and  C_14
REMARK    5  A    between atoms: C_18  and  C_19
REMARK                            x       y       z     vdW  Elec       q    Type
REMARK                         _______ _______ _______ _____ _____    ______ ____
ROOT
ATOM      1  C   UNL     1       0.130  10.459  20.461  0.00  0.00    +0.000 C 
ATOM      2  C   UNL     1       0.969   9.299  20.034  0.00  0.00    +0.000 A 
ATOM      3  S   UNL     1       1.040   7.902  21.019  0.00  0.00    +0.000 S 
ATOM      4  C   UNL     1       2.168   7.156  19.993  0.00  0.00    +0.000 A 
ATOM      5  N   UNL     1       2.796   6.005  20.351  0.00  0.00    +0.000 NA
ATOM      6  C   UNL     1       3.645   5.574  19.478  0.00  0.00    +0.000 A 
ATOM      7  N   UNL     1       3.860   6.105  18.220  0.00  0.00    +0.000 N 
ATOM      8  C   UNL     1       3.171   7.241  17.780  0.00  0.00    +0.000 A 
ATOM      9  O   UNL     1       3.204   7.696  16.642  0.00  0.00    +0.000 OA
ATOM     10  C   UNL     1       2.362   7.865  18.825  0.00  0.00    +0.000 A 
ATOM     11  C   UNL     1       1.777   9.186  18.908  0.00  0.00    +0.000 A 
ATOM     12  C   UNL     1       2.020  10.313  17.955  0.00  0.00    +0.000 C 
ENDROOT
BRANCH   7  13
ATOM     13  N   UNL     1       4.720   5.451  17.355  0.00  0.00    +0.000 N 
ATOM     14  C   UNL     1       6.004   5.857  17.033  0.00  0.00    +0.000 A 
ATOM     15  C   UNL     1       6.674   7.115  17.467  0.00  0.00    +0.000 C 
ATOM     16  C   UNL     1       6.530   4.917  16.165  0.00  0.00    +0.000 A 
ATOM     17  C   UNL     1       5.577   3.899  15.994  0.00  0.00    +0.000 A 
ATOM     18  C   UNL     1       4.457   4.233  16.736  0.00  0.00    +0.000 A 
ATOM     19  C   UNL     1       3.210   3.426  16.855  0.00  0.00    +0.000 C 
ENDBRANCH   7  13
TORSDOF 1
ENDMDL
MODEL 7
REMARK VINA RESULT:      -5.7      3.438      4.972
REMARK  Name = 
REMARK  5 active torsions:
REMARK  status: ('A' for Active; 'I' for Inactive)
REMARK    1  A    between atoms: C_1  and  C_2
REMARK    2  A    between atoms: N_7  and  N_8
REMARK    3  A    between atoms: C_9  and  C_10
REMARK    4  A    between atoms: C_13  and  C_14
REMARK    5  A    between atoms: C_18  and  C_19
REMARK                            x       y       z     vdW  Elec       q    Type
REMARK                         _______ _______ _______ _____ _____    ______ ____
ROOT
ATOM      1  C   UNL     1       8.054   7.974  17.078  0.00  0.00    +0.000 C 
ATOM      2  C   UNL     1       7.088   7.006  17.679  0.00  0.00    +0.000 A 
ATOM      3  S   UNL     1       7.598   5.988  18.956  0.00  0.00    +0.000 S 
ATOM      4  C   UNL     1       6.098   5.195  19.010  0.00  0.00    +0.000 A 
ATOM      5  N   UNL     1       5.917   4.077  19.763  0.00  0.00    +0.000 NA
ATOM      6  C   UNL     1       4.730   3.573  19.680  0.00  0.00    +0.000 A 
ATOM      7  N   UNL     1       3.654   4.127  19.012  0.00  0.00    +0.000 N 
ATOM      8  C   UNL     1       3.779   5.323  18.295  0.00  0.00    +0.000 A 
ATOM      9  O   UNL     1       2.853   5.947  17.788  0.00  0.00    +0.000 OA
ATOM     10  C   UNL     1       5.158   5.799  18.202  0.00  0.00    +0.000 A 
ATOM     11  C   UNL     1       5.768   6.765  17.315  0.00  0.00    +0.000 A 
ATOM     12  C   UNL     1       5.112   7.405  16.133  0.00  0.00    +0.000 C 
ENDROOT
BRANCH   7  13
ATOM     13  N   UNL     1       2.415   3.523  19.123  0.00  0.00    +0.000 N 
ATOM     14  C   UNL     1       1.406   3.902  19.994  0.00  0.00    +0.000 A 
ATOM     15  C   UNL     1       1.487   4.957  21.043  0.00  0.00    +0.000 C 
ATOM     16  C   UNL     1       0.328   3.066  19.768  0.00  0.00    +0.000 A 
ATOM     17  C   UNL     1       0.661   2.200  18.713  0.00  0.00    +0.000 A 
ATOM     18  C   UNL     1       1.955   2.488  18.314  0.00  0.00    +0.000 A 
ATOM     19  C   UNL     1       2.704   1.819  17.214  0.00  0.00    +0.000 C 
ENDBRANCH   7  13
TORSDOF 1
ENDMDL
MODEL 8
REMARK VINA RESULT:      -5.7      3.414      4.938
REMARK  Name = 
REMARK  5 active torsions:
REMARK  status: ('A' for Active; 'I' for Inactive)
REMARK    1  A    between atoms: C_1  and  C_2
REMARK    2  A    between atoms: N_7  and  N_8
REMARK    3  A    between atoms: C_9  and  C_10
REMARK    4  A    between atoms: C_13  and  C_14
REMARK    5  A    between atoms: C_18  and  C_19
REMARK                            x       y       z     vdW  Elec       q    Type
REMARK                         _______ _______ _______ _____ _____    ______ ____
ROOT
ATOM      1  C   UNL     1       8.095   7.967  17.111  0.00  0.00    +0.000 C 
ATOM      2  C   UNL     1       7.114   7.005  17.699  0.00  0.00    +0.000 A 
ATOM      3  S   UNL     1       7.606   5.968  18.966  0.00  0.00    +0.000 S 
ATOM      4  C   UNL     1       6.096   5.193  19.007  0.00  0.00    +0.000 A 
ATOM      5  N   UNL     1       5.898   4.070  19.748  0.00  0.00    +0.000 NA
ATOM      6  C   UNL     1       4.706   3.582  19.656  0.00  0.00    +0.000 A 
ATOM      7  N   UNL     1       3.639   4.158  18.991  0.00  0.00    +0.000 N 
ATOM      8  C   UNL     1       3.781   5.359  18.286  0.00  0.00    +0.000 A 
ATOM      9  O   UNL     1       2.865   6.000  17.783  0.00  0.00    +0.000 OA
ATOM     10  C   UNL     1       5.166   5.818  18.203  0.00  0.00    +0.000 A 
ATOM     11  C   UNL     1       5.792   6.785  17.328  0.00  0.00    +0.000 A 
ATOM     12  C   UNL     1       5.148   7.446  16.150  0.00  0.00    +0.000 C 
ENDROOT
BRANCH   7  13
ATOM     13  N   UNL     1       2.391   3.569  19.091  0.00  0.00    +0.000 N 
ATOM     14  C   UNL     1       1.950   2.482  18.353  0.00  0.00    +0.000 A 
ATOM     15  C   UNL     1       2.682   1.800  17.249  0.00  0.00    +0.000 C 
ATOM     16  C   UNL     1       0.665   2.189  18.775  0.00  0.00    +0.000 A 
ATOM     17  C   UNL     1       0.336   3.074  19.816  0.00  0.00    +0.000 A 
ATOM     18  C   UNL     1       1.410   3.925  20.010  0.00  0.00    +0.000 A 
ATOM     19  C   UNL     1       1.496   5.012  21.027  0.00  0.00    +0.000 C 
ENDBRANCH   7  13
TORSDOF 1
ENDMDL
MODEL 9
REMARK VINA RESULT:      -5.6      1.998      3.151
REMARK  Name = 
REMARK  5 active torsions:
REMARK  status: ('A' for Active; 'I' for Inactive)
REMARK    1  A    between atoms: C_1  and  C_2
REMARK    2  A    between atoms: N_7  and  N_8
REMARK    3  A    between atoms: C_9  and  C_10
REMARK    4  A    between atoms: C_13  and  C_14
REMARK    5  A    between atoms: C_18  and  C_19
REMARK                            x       y       z     vdW  Elec       q    Type
REMARK                         _______ _______ _______ _____ _____    ______ ____
ROOT
ATOM      1  C   UNL     1       0.178  12.061  20.574  0.00  0.00    +0.000 C 
ATOM      2  C   UNL     1       0.695  10.694  20.264  0.00  0.00    +0.000 A 
ATOM      3  S   UNL     1       0.432   9.421  21.376  0.00  0.00    +0.000 S 
ATOM      4  C   UNL     1       1.322   8.326  20.434  0.00  0.00    +0.000 A 
ATOM      5  N   UNL     1       1.650   7.092  20.904  0.00  0.00    +0.000 NA
ATOM      6  C   UNL     1       2.352   6.385  20.082  0.00  0.00    +0.000 A 
ATOM      7  N   UNL     1       2.672   6.726  18.781  0.00  0.00    +0.000 N 
ATOM      8  C   UNL     1       2.280   7.952  18.231  0.00  0.00    +0.000 A 
ATOM      9  O   UNL     1       2.408   8.277  17.056  0.00  0.00    +0.000 OA
ATOM     10  C   UNL     1       1.668   8.852  19.207  0.00  0.00    +0.000 A 
ATOM     11  C   UNL     1       1.431  10.278  19.160  0.00  0.00    +0.000 A 
ATOM     12  C   UNL     1       1.932  11.216  18.107  0.00  0.00    +0.000 C 
ENDROOT
BRANCH   7  13
ATOM     13  N   UNL     1       3.328   5.801  17.988  0.00  0.00    +0.000 N 
ATOM     14  C   UNL     1       4.636   5.902  17.543  0.00  0.00    +0.000 A 
ATOM     15  C   UNL     1       5.555   7.058  17.740  0.00  0.00    +0.000 C 
ATOM     16  C   UNL     1       4.913   4.763  16.808  0.00  0.00    +0.000 A 
ATOM     17  C   UNL     1       3.780   3.933  16.847  0.00  0.00    +0.000 A 
ATOM     18  C   UNL     1       2.800   4.579  17.582  0.00  0.00    +0.000 A 
ATOM     19  C   UNL     1       1.441   4.051  17.888  0.00  0.00    +0.000 C 
ENDBRANCH   7  13
TORSDOF 1
ENDMDL
