MODEL 1
REMARK VINA RESULT:      -7.7      0.000      0.000
REMARK  Name = 
REMARK  2 active torsions:
REMARK  status: ('A' for Active; 'I' for Inactive)
REMARK    1  A    between atoms: C_1  and  C_2
REMARK    2  A    between atoms: C_10  and  C_12
REMARK                            x       y       z     vdW  Elec       q    Type
REMARK                         _______ _______ _______ _____ _____    ______ ____
ROOT
ATOM      1  C   UNL     1       5.063   1.326  20.603  0.00  0.00    +0.000 C 
ATOM      2  C   UNL     1       4.571   2.611  20.087  0.00  0.00    +0.000 A 
ATOM      3  N   UNL     1       5.143   3.588  19.396  0.00  0.00    +0.000 NA
ATOM      4  C   UNL     1       4.178   4.582  19.184  0.00  0.00    +0.000 A 
ATOM      5  C   UNL     1       2.954   4.263  19.724  0.00  0.00    +0.000 A 
ATOM      6  S   UNL     1       2.953   2.803  20.499  0.00  0.00    +0.000 S 
ATOM      7  C   UNL     1       1.675   4.980  19.751  0.00  0.00    +0.000 C 
ATOM      8  C   UNL     1       1.939   6.436  20.094  0.00  0.00    +0.000 C 
ATOM      9  N   UNL     1       2.260   7.206  18.881  0.00  0.00    +0.000 N 
ATOM     10  C   UNL     1       1.875   8.607  18.678  0.00  0.00    +0.000 C 
ATOM     11  O   UNL     1       2.199   9.160  17.616  0.00  0.00    +0.000 OA
ATOM     12  C   UNL     1       3.058   6.404  17.859  0.00  0.00    +0.000 C 
ATOM     13  C   UNL     1       4.391   5.875  18.454  0.00  0.00    +0.000 C 
ENDROOT
BRANCH  10  14
ATOM     14  C   UNL     1       1.067   9.465  19.849  0.00  0.00    +0.000 A 
ATOM     15  C   UNL     1       1.061   9.372  21.393  0.00  0.00    +0.000 A 
ATOM     16  C   UNL     1       0.054  10.265  21.885  0.00  0.00    +0.000 A 
ATOM     17  N   UNL     1      -0.461  10.712  23.106  0.00  0.00    +0.000 NA
ATOM     18  C   UNL     1      -1.358  11.518  22.970  0.00  0.00    +0.000 A 
ATOM     19  C   UNL     1      -2.367  12.415  22.866  0.00  0.00    +0.000 A 
ATOM     20 CL   UNL     1      -3.363  13.175  24.167  0.00  0.00    +0.000 Cl
ATOM     21  C   UNL     1      -1.815  11.975  21.175  0.00  0.00    +0.000 A 
ATOM     22  N   UNL     1      -0.564  10.870  20.792  0.00  0.00    +0.000 N 
ATOM     23  N   UNL     1       0.081  10.387  19.513  0.00  0.00    +0.000 NA
ENDBRANCH  10  14
TORSDOF 1
ENDMDL
MODEL 2
REMARK VINA RESULT:      -7.3      4.882      9.087
REMARK  Name = 
REMARK  2 active torsions:
REMARK  status: ('A' for Active; 'I' for Inactive)
REMARK    1  A    between atoms: C_1  and  C_2
REMARK    2  A    between atoms: C_10  and  C_12
REMARK                            x       y       z     vdW  Elec       q    Type
REMARK                         _______ _______ _______ _____ _____    ______ ____
ROOT
ATOM      1  C   UNL     1      -0.776  14.432  20.765  0.00  0.00    +0.000 C 
ATOM      2  C   UNL     1      -0.344  13.028  20.788  0.00  0.00    +0.000 A 
ATOM      3  N   UNL     1       0.154  12.248  21.738  0.00  0.00    +0.000 NA
ATOM      4  C   UNL     1       0.386  10.985  21.176  0.00  0.00    +0.000 A 
ATOM      5  C   UNL     1       0.030  10.917  19.849  0.00  0.00    +0.000 A 
ATOM      6  S   UNL     1      -0.554  12.348  19.265  0.00  0.00    +0.000 S 
ATOM      7  C   UNL     1       0.091   9.826  18.872  0.00  0.00    +0.000 C 
ATOM      8  C   UNL     1       1.434   9.128  19.002  0.00  0.00    +0.000 C 
ATOM      9  N   UNL     1       1.381   8.090  20.045  0.00  0.00    +0.000 N 
ATOM     10  C   UNL     1       2.122   6.825  19.976  0.00  0.00    +0.000 C 
ATOM     11  O   UNL     1       2.005   6.021  20.914  0.00  0.00    +0.000 OA
ATOM     12  C   UNL     1       0.491   8.472  21.223  0.00  0.00    +0.000 C 
ATOM     13  C   UNL     1       0.955   9.795  21.890  0.00  0.00    +0.000 C 
ENDROOT
BRANCH  10  14
ATOM     14  C   UNL     1       3.136   6.480  18.706  0.00  0.00    +0.000 A 
ATOM     15  C   UNL     1       3.814   7.373  17.639  0.00  0.00    +0.000 A 
ATOM     16  C   UNL     1       4.462   6.514  16.692  0.00  0.00    +0.000 A 
ATOM     17  N   UNL     1       5.258   6.610  15.547  0.00  0.00    +0.000 NA
ATOM     18  C   UNL     1       5.564   5.526  15.096  0.00  0.00    +0.000 A 
ATOM     19  C   UNL     1       5.924   4.338  14.554  0.00  0.00    +0.000 A 
ATOM     20 CL   UNL     1       6.863   4.004  13.048  0.00  0.00    +0.000 Cl
ATOM     21  C   UNL     1       4.915   4.005  16.047  0.00  0.00    +0.000 A 
ATOM     22  N   UNL     1       4.224   5.194  17.068  0.00  0.00    +0.000 N 
ATOM     23  N   UNL     1       3.411   5.166  18.342  0.00  0.00    +0.000 NA
ENDBRANCH  10  14
TORSDOF 1
ENDMDL
MODEL 3
REMARK VINA RESULT:      -7.2      6.030      7.282
REMARK  Name = 
REMARK  2 active torsions:
REMARK  status: ('A' for Active; 'I' for Inactive)
REMARK    1  A    between atoms: C_1  and  C_2
REMARK    2  A    between atoms: C_10  and  C_12
REMARK                            x       y       z     vdW  Elec       q    Type
REMARK                         _______ _______ _______ _____ _____    ______ ____
ROOT
ATOM      1  C   UNL     1       1.391   2.490  21.725  0.00  0.00    +0.000 C 
ATOM      2  C   UNL     1       2.345   3.030  20.747  0.00  0.00    +0.000 A 
ATOM      3  N   UNL     1       3.297   2.476  20.008  0.00  0.00    +0.000 NA
ATOM      4  C   UNL     1       3.895   3.492  19.251  0.00  0.00    +0.000 A 
ATOM      5  C   UNL     1       3.333   4.728  19.474  0.00  0.00    +0.000 A 
ATOM      6  S   UNL     1       2.117   4.688  20.594  0.00  0.00    +0.000 S 
ATOM      7  C   UNL     1       3.624   6.054  18.921  0.00  0.00    +0.000 C 
ATOM      8  C   UNL     1       5.130   6.255  18.901  0.00  0.00    +0.000 C 
ATOM      9  N   UNL     1       5.713   5.695  17.670  0.00  0.00    +0.000 N 
ATOM     10  C   UNL     1       6.867   6.277  16.976  0.00  0.00    +0.000 C 
ATOM     11  O   UNL     1       7.277   5.721  15.946  0.00  0.00    +0.000 OA
ATOM     12  C   UNL     1       5.006   4.429  17.197  0.00  0.00    +0.000 C 
ATOM     13  C   UNL     1       5.027   3.318  18.282  0.00  0.00    +0.000 C 
ENDROOT
BRANCH  10  14
ATOM     14  C   UNL     1       7.651   7.618  17.567  0.00  0.00    +0.000 A 
ATOM     15  C   UNL     1       8.524   7.848  18.823  0.00  0.00    +0.000 A 
ATOM     16  C   UNL     1       8.813   9.249  18.910  0.00  0.00    +0.000 A 
ATOM     17  N   UNL     1       9.539  10.133  19.713  0.00  0.00    +0.000 NA
ATOM     18  C   UNL     1       9.456  11.284  19.338  0.00  0.00    +0.000 A 
ATOM     19  C   UNL     1       9.386  12.583  18.959  0.00  0.00    +0.000 A 
ATOM     20 CL   UNL     1      10.090  14.046  19.749  0.00  0.00    +0.000 Cl
ATOM     21  C   UNL     1       8.401  11.587  17.777  0.00  0.00    +0.000 A 
ATOM     22  N   UNL     1       8.182   9.890  17.845  0.00  0.00    +0.000 N 
ATOM     23  N   UNL     1       7.469   8.870  16.987  0.00  0.00    +0.000 NA
ENDBRANCH  10  14
TORSDOF 1
ENDMDL
MODEL 4
REMARK VINA RESULT:      -7.1      4.996      9.111
REMARK  Name = 
REMARK  2 active torsions:
REMARK  status: ('A' for Active; 'I' for Inactive)
REMARK    1  A    between atoms: C_1  and  C_2
REMARK    2  A    between atoms: C_10  and  C_12
REMARK                            x       y       z     vdW  Elec       q    Type
REMARK                         _______ _______ _______ _____ _____    ______ ____
ROOT
ATOM      1  C   UNL     1      -0.239  13.492  20.508  0.00  0.00    +0.000 C 
ATOM      2  C   UNL     1       0.228  12.099  20.517  0.00  0.00    +0.000 A 
ATOM      3  N   UNL     1       0.685  11.302  21.474  0.00  0.00    +0.000 NA
ATOM      4  C   UNL     1       0.987  10.064  20.891  0.00  0.00    +0.000 A 
ATOM      5  C   UNL     1       0.719  10.029  19.542  0.00  0.00    +0.000 A 
ATOM      6  S   UNL     1       0.135  11.463  18.964  0.00  0.00    +0.000 S 
ATOM      7  C   UNL     1       0.873   8.971  18.538  0.00  0.00    +0.000 C 
ATOM      8  C   UNL     1       2.223   8.304  18.735  0.00  0.00    +0.000 C 
ATOM      9  N   UNL     1       2.131   7.232  19.741  0.00  0.00    +0.000 N 
ATOM     10  C   UNL     1       2.909   5.989  19.683  0.00  0.00    +0.000 C 
ATOM     11  O   UNL     1       2.753   5.153  20.586  0.00  0.00    +0.000 OA
ATOM     12  C   UNL     1       1.157   7.554  20.869  0.00  0.00    +0.000 C 
ATOM     13  C   UNL     1       1.541   8.867  21.605  0.00  0.00    +0.000 C 
ENDROOT
BRANCH  10  14
ATOM     14  C   UNL     1       4.012   5.710  18.472  0.00  0.00    +0.000 A 
ATOM     15  C   UNL     1       5.460   6.204  18.245  0.00  0.00    +0.000 A 
ATOM     16  C   UNL     1       5.878   5.765  16.947  0.00  0.00    +0.000 A 
ATOM     17  N   UNL     1       7.012   5.806  16.129  0.00  0.00    +0.000 NA
ATOM     18  C   UNL     1       6.841   5.252  15.062  0.00  0.00    +0.000 A 
ATOM     19  C   UNL     1       6.693   4.652  13.858  0.00  0.00    +0.000 A 
ATOM     20 CL   UNL     1       7.855   4.546  12.480  0.00  0.00    +0.000 Cl
ATOM     21  C   UNL     1       5.122   4.472  14.784  0.00  0.00    +0.000 A 
ATOM     22  N   UNL     1       4.820   5.075  16.359  0.00  0.00    +0.000 N 
ATOM     23  N   UNL     1       3.654   5.019  17.318  0.00  0.00    +0.000 NA
ENDBRANCH  10  14
TORSDOF 1
ENDMDL
MODEL 5
REMARK VINA RESULT:      -6.9      4.189      8.664
REMARK  Name = 
REMARK  2 active torsions:
REMARK  status: ('A' for Active; 'I' for Inactive)
REMARK    1  A    between atoms: C_1  and  C_2
REMARK    2  A    between atoms: C_10  and  C_12
REMARK                            x       y       z     vdW  Elec       q    Type
REMARK                         _______ _______ _______ _____ _____    ______ ____
ROOT
ATOM      1  C   UNL     1      -3.951  13.137  23.131  0.00  0.00    +0.000 C 
ATOM      2  C   UNL     1      -2.909  12.656  22.214  0.00  0.00    +0.000 A 
ATOM      3  N   UNL     1      -2.715  12.797  20.909  0.00  0.00    +0.000 NA
ATOM      4  C   UNL     1      -1.542  12.109  20.575  0.00  0.00    +0.000 A 
ATOM      5  C   UNL     1      -0.941  11.516  21.661  0.00  0.00    +0.000 A 
ATOM      6  S   UNL     1      -1.778  11.754  23.067  0.00  0.00    +0.000 S 
ATOM      7  C   UNL     1       0.277  10.710  21.792  0.00  0.00    +0.000 C 
ATOM      8  C   UNL     1       0.313   9.695  20.663  0.00  0.00    +0.000 C 
ATOM      9  N   UNL     1       0.920  10.281  19.456  0.00  0.00    +0.000 N 
ATOM     10  C   UNL     1       1.747   9.525  18.508  0.00  0.00    +0.000 C 
ATOM     11  O   UNL     1       2.208  10.120  17.522  0.00  0.00    +0.000 OA
ATOM     12  C   UNL     1       0.584  11.758  19.276  0.00  0.00    +0.000 C 
ATOM     13  C   UNL     1      -0.948  11.995  19.202  0.00  0.00    +0.000 C 
ENDROOT
BRANCH  10  14
ATOM     14  C   UNL     1       2.029   7.900  18.706  0.00  0.00    +0.000 A 
ATOM     15  C   UNL     1       2.163   7.009  19.963  0.00  0.00    +0.000 A 
ATOM     16  C   UNL     1       2.560   5.699  19.537  0.00  0.00    +0.000 A 
ATOM     17  N   UNL     1       2.818   4.440  20.086  0.00  0.00    +0.000 NA
ATOM     18  C   UNL     1       3.135   3.620  19.249  0.00  0.00    +0.000 A 
ATOM     19  C   UNL     1       3.499   2.674  18.351  0.00  0.00    +0.000 A 
ATOM     20 CL   UNL     1       3.998   0.961  18.630  0.00  0.00    +0.000 Cl
ATOM     21  C   UNL     1       3.182   4.233  17.443  0.00  0.00    +0.000 A 
ATOM     22  N   UNL     1       2.700   5.717  18.151  0.00  0.00    +0.000 N 
ATOM     23  N   UNL     1       2.349   7.089  17.621  0.00  0.00    +0.000 NA
ENDBRANCH  10  14
TORSDOF 1
ENDMDL
MODEL 6
REMARK VINA RESULT:      -6.9      2.993      3.790
REMARK  Name = 
REMARK  2 active torsions:
REMARK  status: ('A' for Active; 'I' for Inactive)
REMARK    1  A    between atoms: C_1  and  C_2
REMARK    2  A    between atoms: C_10  and  C_12
REMARK                            x       y       z     vdW  Elec       q    Type
REMARK                         _______ _______ _______ _____ _____    ______ ____
ROOT
ATOM      1  C   UNL     1       6.724   4.037  13.564  0.00  0.00    +0.000 C 
ATOM      2  C   UNL     1       5.919   4.223  14.778  0.00  0.00    +0.000 A 
ATOM      3  N   UNL     1       4.868   3.585  15.275  0.00  0.00    +0.000 NA
ATOM      4  C   UNL     1       4.515   4.214  16.477  0.00  0.00    +0.000 A 
ATOM      5  C   UNL     1       5.341   5.268  16.791  0.00  0.00    +0.000 A 
ATOM      6  S   UNL     1       6.514   5.526  15.656  0.00  0.00    +0.000 S 
ATOM      7  C   UNL     1       5.358   6.199  17.924  0.00  0.00    +0.000 C 
ATOM      8  C   UNL     1       3.936   6.659  18.198  0.00  0.00    +0.000 C 
ATOM      9  N   UNL     1       3.244   5.708  19.085  0.00  0.00    +0.000 N 
ATOM     10  C   UNL     1       2.252   6.106  20.091  0.00  0.00    +0.000 C 
ATOM     11  O   UNL     1       1.730   5.220  20.785  0.00  0.00    +0.000 OA
ATOM     12  C   UNL     1       3.648   4.259  18.838  0.00  0.00    +0.000 C 
ATOM     13  C   UNL     1       3.376   3.826  17.372  0.00  0.00    +0.000 C 
ENDROOT
BRANCH  10  14
ATOM     14  C   UNL     1       1.790   7.690  20.278  0.00  0.00    +0.000 A 
ATOM     15  C   UNL     1       1.369   8.515  21.517  0.00  0.00    +0.000 A 
ATOM     16  C   UNL     1       0.927   9.800  21.062  0.00  0.00    +0.000 A 
ATOM     17  N   UNL     1       0.465  11.010  21.590  0.00  0.00    +0.000 NA
ATOM     18  C   UNL     1       0.214  11.831  20.732  0.00  0.00    +0.000 A 
ATOM     19  C   UNL     1      -0.086  12.775  19.809  0.00  0.00    +0.000 A 
ATOM     20 CL   UNL     1      -0.783  14.425  20.043  0.00  0.00    +0.000 Cl
ATOM     21  C   UNL     1       0.520  11.287  18.930  0.00  0.00    +0.000 A 
ATOM     22  N   UNL     1       1.018   9.825  19.672  0.00  0.00    +0.000 N 
ATOM     23  N   UNL     1       1.578   8.512  19.175  0.00  0.00    +0.000 NA
ENDBRANCH  10  14
TORSDOF 1
ENDMDL
MODEL 7
REMARK VINA RESULT:      -6.9      3.129      3.846
REMARK  Name = 
REMARK  2 active torsions:
REMARK  status: ('A' for Active; 'I' for Inactive)
REMARK    1  A    between atoms: C_1  and  C_2
REMARK    2  A    between atoms: C_10  and  C_12
REMARK                            x       y       z     vdW  Elec       q    Type
REMARK                         _______ _______ _______ _____ _____    ______ ____
ROOT
ATOM      1  C   UNL     1       5.779   3.789  14.673  0.00  0.00    +0.000 C 
ATOM      2  C   UNL     1       5.017   4.391  15.776  0.00  0.00    +0.000 A 
ATOM      3  N   UNL     1       4.044   3.940  16.556  0.00  0.00    +0.000 NA
ATOM      4  C   UNL     1       3.696   4.968  17.443  0.00  0.00    +0.000 A 
ATOM      5  C   UNL     1       4.448   6.106  17.263  0.00  0.00    +0.000 A 
ATOM      6  S   UNL     1       5.544   5.965  16.034  0.00  0.00    +0.000 S 
ATOM      7  C   UNL     1       4.440   7.406  17.942  0.00  0.00    +0.000 C 
ATOM      8  C   UNL     1       3.000   7.855  18.118  0.00  0.00    +0.000 C 
ATOM      9  N   UNL     1       2.427   7.291  19.352  0.00  0.00    +0.000 N 
ATOM     10  C   UNL     1       1.452   7.993  20.195  0.00  0.00    +0.000 C 
ATOM     11  O   UNL     1       1.035   7.422  21.214  0.00  0.00    +0.000 OA
ATOM     12  C   UNL     1       2.935   5.886  19.658  0.00  0.00    +0.000 C 
ATOM     13  C   UNL     1       2.633   4.899  18.498  0.00  0.00    +0.000 C 
ENDROOT
BRANCH  10  14
ATOM     14  C   UNL     1       0.873   9.495  19.786  0.00  0.00    +0.000 A 
ATOM     15  C   UNL     1       0.164  10.031  18.520  0.00  0.00    +0.000 A 
ATOM     16  C   UNL     1       0.027  11.451  18.658  0.00  0.00    +0.000 A 
ATOM     17  N   UNL     1      -0.518  12.535  17.964  0.00  0.00    +0.000 NA
ATOM     18  C   UNL     1      -0.361  13.590  18.544  0.00  0.00    +0.000 A 
ATOM     19  C   UNL     1      -0.204  14.790  19.151  0.00  0.00    +0.000 A 
ATOM     20 CL   UNL     1      -0.671  16.436  18.575  0.00  0.00    +0.000 Cl
ATOM     21  C   UNL     1       0.548  13.504  20.218  0.00  0.00    +0.000 A 
ATOM     22  N   UNL     1       0.603  11.828  19.870  0.00  0.00    +0.000 N 
ATOM     23  N   UNL     1       1.117  10.603  20.592  0.00  0.00    +0.000 NA
ENDBRANCH  10  14
TORSDOF 1
ENDMDL
MODEL 8
REMARK VINA RESULT:      -6.8      0.931      1.333
REMARK  Name = 
REMARK  2 active torsions:
REMARK  status: ('A' for Active; 'I' for Inactive)
REMARK    1  A    between atoms: C_1  and  C_2
REMARK    2  A    between atoms: C_10  and  C_12
REMARK                            x       y       z     vdW  Elec       q    Type
REMARK                         _______ _______ _______ _____ _____    ______ ____
ROOT
ATOM      1  C   UNL     1       4.969   1.238  20.668  0.00  0.00    +0.000 C 
ATOM      2  C   UNL     1       4.592   2.522  20.061  0.00  0.00    +0.000 A 
ATOM      3  N   UNL     1       5.296   3.526  19.555  0.00  0.00    +0.000 NA
ATOM      4  C   UNL     1       4.392   4.502  19.116  0.00  0.00    +0.000 A 
ATOM      5  C   UNL     1       3.079   4.145  19.318  0.00  0.00    +0.000 A 
ATOM      6  S   UNL     1       2.918   2.669  20.046  0.00  0.00    +0.000 S 
ATOM      7  C   UNL     1       1.818   4.833  19.025  0.00  0.00    +0.000 C 
ATOM      8  C   UNL     1       1.946   6.287  19.445  0.00  0.00    +0.000 C 
ATOM      9  N   UNL     1       2.548   7.089  18.366  0.00  0.00    +0.000 N 
ATOM     10  C   UNL     1       2.190   8.485  18.091  0.00  0.00    +0.000 C 
ATOM     11  O   UNL     1       2.762   9.067  17.156  0.00  0.00    +0.000 OA
ATOM     12  C   UNL     1       3.602   6.325  17.573  0.00  0.00    +0.000 C 
ATOM     13  C   UNL     1       4.751   5.814  18.483  0.00  0.00    +0.000 C 
ENDROOT
BRANCH  10  14
ATOM     14  C   UNL     1       1.086   9.301  19.027  0.00  0.00    +0.000 A 
ATOM     15  C   UNL     1       0.002  10.350  18.685  0.00  0.00    +0.000 A 
ATOM     16  C   UNL     1      -0.556  10.825  19.917  0.00  0.00    +0.000 A 
ATOM     17  N   UNL     1      -1.552  11.700  20.361  0.00  0.00    +0.000 NA
ATOM     18  C   UNL     1      -1.631  11.745  21.571  0.00  0.00    +0.000 A 
ATOM     19  C   UNL     1      -1.751  11.832  22.917  0.00  0.00    +0.000 A 
ATOM     20 CL   UNL     1      -2.832  12.888  23.906  0.00  0.00    +0.000 Cl
ATOM     21  C   UNL     1      -0.425  10.626  22.537  0.00  0.00    +0.000 A 
ATOM     22  N   UNL     1       0.098  10.183  20.967  0.00  0.00    +0.000 N 
ATOM     23  N   UNL     1       1.115   9.211  20.415  0.00  0.00    +0.000 NA
ENDBRANCH  10  14
TORSDOF 1
ENDMDL
MODEL 9
REMARK VINA RESULT:      -6.8      4.889      9.083
REMARK  Name = 
REMARK  2 active torsions:
REMARK  status: ('A' for Active; 'I' for Inactive)
REMARK    1  A    between atoms: C_1  and  C_2
REMARK    2  A    between atoms: C_10  and  C_12
REMARK                            x       y       z     vdW  Elec       q    Type
REMARK                         _______ _______ _______ _____ _____    ______ ____
ROOT
ATOM      1  C   UNL     1      -0.385  15.520  19.082  0.00  0.00    +0.000 C 
ATOM      2  C   UNL     1      -0.091  14.134  19.469  0.00  0.00    +0.000 A 
ATOM      3  N   UNL     1       0.450  13.591  20.552  0.00  0.00    +0.000 NA
ATOM      4  C   UNL     1       0.484  12.203  20.362  0.00  0.00    +0.000 A 
ATOM      5  C   UNL     1      -0.048  11.815  19.154  0.00  0.00    +0.000 A 
ATOM      6  S   UNL     1      -0.564  13.092  18.239  0.00  0.00    +0.000 S 
ATOM      7  C   UNL     1      -0.222  10.497  18.535  0.00  0.00    +0.000 C 
ATOM      8  C   UNL     1       1.053   9.695  18.730  0.00  0.00    +0.000 C 
ATOM      9  N   UNL     1       1.038   9.003  20.031  0.00  0.00    +0.000 N 
ATOM     10  C   UNL     1       1.638   7.684  20.260  0.00  0.00    +0.000 C 
ATOM     11  O   UNL     1       1.567   7.195  21.398  0.00  0.00    +0.000 OA
ATOM     12  C   UNL     1       0.351   9.810  21.127  0.00  0.00    +0.000 C 
ATOM     13  C   UNL     1       1.024  11.194  21.332  0.00  0.00    +0.000 C 
ENDROOT
BRANCH  10  14
ATOM     14  C   UNL     1       2.438   6.871  19.052  0.00  0.00    +0.000 A 
ATOM     15  C   UNL     1       2.578   5.366  18.722  0.00  0.00    +0.000 A 
ATOM     16  C   UNL     1       3.518   5.236  17.648  0.00  0.00    +0.000 A 
ATOM     17  N   UNL     1       4.077   4.236  16.846  0.00  0.00    +0.000 NA
ATOM     18  C   UNL     1       4.867   4.674  16.034  0.00  0.00    +0.000 A 
ATOM     19  C   UNL     1       5.760   5.116  15.117  0.00  0.00    +0.000 A 
ATOM     20 CL   UNL     1       6.767   4.174  13.952  0.00  0.00    +0.000 Cl
ATOM     21  C   UNL     1       5.125   6.564  16.044  0.00  0.00    +0.000 A 
ATOM     22  N   UNL     1       3.976   6.508  17.313  0.00  0.00    +0.000 N 
ATOM     23  N   UNL     1       3.287   7.540  18.176  0.00  0.00    +0.000 NA
ENDBRANCH  10  14
TORSDOF 1
ENDMDL
