MODEL 1
REMARK VINA RESULT:     -10.2      0.000      0.000
REMARK  Name = 
REMARK  5 active torsions:
REMARK  status: ('A' for Active; 'I' for Inactive)
REMARK    1  A    between atoms: C_7  and  C_8
REMARK    2  A    between atoms: C_13  and  C_14
REMARK    3  A    between atoms: C_17  and  O_18
REMARK    4  A    between atoms: O_18  and  C_19
REMARK    5  A    between atoms: C_23  and  C_24
REMARK                            x       y       z     vdW  Elec       q    Type
REMARK                         _______ _______ _______ _____ _____    ______ ____
ROOT
ATOM      1  C   UNL     1       2.407   6.623  19.019  0.00  0.00    +0.000 A 
ATOM      2  C   UNL     1       1.976   6.592  20.353  0.00  0.00    +0.000 A 
ATOM      3  C   UNL     1       1.497   7.756  20.970  0.00  0.00    +0.000 A 
ATOM      4  C   UNL     1       1.463   8.960  20.264  0.00  0.00    +0.000 A 
ATOM      5  C   UNL     1       1.769   8.964  18.904  0.00  0.00    +0.000 A 
ATOM      6  C   UNL     1       2.224   7.799  18.288  0.00  0.00    +0.000 A 
ENDROOT
BRANCH   1  15
ATOM      7  N   UNL     1       0.725   3.909  20.158  0.00  0.00    +0.000 N 
ATOM      8  C   UNL     1       1.707   3.366  19.386  0.00  0.00    +0.000 A 
ATOM      9  N   UNL     1       1.723   2.051  19.374  0.00  0.00    +0.000 NA
ATOM     10  C   UNL     1       2.663   1.398  18.605  0.00  0.00    +0.000 A 
ATOM     11  C   UNL     1       3.568   2.028  17.845  0.00  0.00    +0.000 A 
ATOM     12  N   UNL     1       3.580   3.409  17.840  0.00  0.00    +0.000 N 
ATOM     13  C   UNL     1       4.391   4.320  17.205  0.00  0.00    +0.000 A 
ATOM     14  N   UNL     1       4.044   5.556  17.506  0.00  0.00    +0.000 NA
ATOM     15  C   UNL     1       3.009   5.448  18.412  0.00  0.00    +0.000 A 
ATOM     16  C   UNL     1       2.678   4.115  18.610  0.00  0.00    +0.000 A 
ATOM     17  H   UNL     1       0.055   3.215  20.466  0.00  0.00    +0.000 HD
ATOM     18  H   UNL     1       0.293   4.752  19.797  0.00  0.00    +0.000 HD
BRANCH  13  19
ATOM     19  C   UNL     1       5.591   3.980  16.327  0.00  0.00    +0.000 C 
ATOM     20  C   UNL     1       5.495   4.442  14.842  0.00  0.00    +0.000 C 
ATOM     21  C   UNL     1       6.971   4.871  14.944  0.00  0.00    +0.000 C 
ATOM     22  C   UNL     1       6.731   5.040  16.452  0.00  0.00    +0.000 C 
ENDBRANCH  13  19
ENDBRANCH   1  15
BRANCH   4  23
ATOM     23  O   UNL     1       1.060  10.076  20.961  0.00  0.00    +0.000 OA
BRANCH  23  24
ATOM     24  C   UNL     1      -0.073  10.757  20.567  0.00  0.00    +0.000 A 
ATOM     25  C   UNL     1      -0.557  11.704  21.467  0.00  0.00    +0.000 A 
ATOM     26  C   UNL     1      -1.691  12.443  21.151  0.00  0.00    +0.000 A 
ATOM     27  C   UNL     1      -2.352  12.232  19.937  0.00  0.00    +0.000 A 
ATOM     28  C   UNL     1      -1.890  11.288  19.000  0.00  0.00    +0.000 A 
ATOM     29  C   UNL     1      -0.712  10.590  19.328  0.00  0.00    +0.000 A 
BRANCH  28  30
ATOM     30  C   UNL     1      -2.628  11.022  17.737  0.00  0.00    +0.000 A 
ATOM     31  C   UNL     1      -3.900  11.573  17.488  0.00  0.00    +0.000 A 
ATOM     32  C   UNL     1      -4.588  11.320  16.295  0.00  0.00    +0.000 A 
ATOM     33  C   UNL     1      -4.026  10.500  15.324  0.00  0.00    +0.000 A 
ATOM     34  C   UNL     1      -2.767   9.949  15.535  0.00  0.00    +0.000 A 
ATOM     35  C   UNL     1      -2.076  10.217  16.721  0.00  0.00    +0.000 A 
ENDBRANCH  28  30
ENDBRANCH  23  24
ENDBRANCH   4  23
TORSDOF 5
ENDMDL
MODEL 2
REMARK VINA RESULT:     -10.1      3.016      9.397
REMARK  Name = 
REMARK  5 active torsions:
REMARK  status: ('A' for Active; 'I' for Inactive)
REMARK    1  A    between atoms: C_7  and  C_8
REMARK    2  A    between atoms: C_13  and  C_14
REMARK    3  A    between atoms: C_17  and  O_18
REMARK    4  A    between atoms: O_18  and  C_19
REMARK    5  A    between atoms: C_23  and  C_24
REMARK                            x       y       z     vdW  Elec       q    Type
REMARK                         _______ _______ _______ _____ _____    ______ ____
ROOT
ATOM      1  C   UNL     1       1.394   8.419  19.308  0.00  0.00    +0.000 A 
ATOM      2  C   UNL     1       1.431   7.398  20.268  0.00  0.00    +0.000 A 
ATOM      3  C   UNL     1       2.245   6.274  20.077  0.00  0.00    +0.000 A 
ATOM      4  C   UNL     1       3.014   6.154  18.917  0.00  0.00    +0.000 A 
ATOM      5  C   UNL     1       3.076   7.224  18.024  0.00  0.00    +0.000 A 
ATOM      6  C   UNL     1       2.281   8.350  18.230  0.00  0.00    +0.000 A 
ENDROOT
BRANCH   1  15
ATOM      7  N   UNL     1       1.401   9.349  22.567  0.00  0.00    +0.000 N 
ATOM      8  C   UNL     1       0.462  10.165  22.011  0.00  0.00    +0.000 A 
ATOM      9  N   UNL     1      -0.141  10.961  22.868  0.00  0.00    +0.000 NA
ATOM     10  C   UNL     1      -1.092  11.846  22.407  0.00  0.00    +0.000 A 
ATOM     11  C   UNL     1      -1.439  11.960  21.118  0.00  0.00    +0.000 A 
ATOM     12  N   UNL     1      -0.827  11.134  20.195  0.00  0.00    +0.000 N 
ATOM     13  C   UNL     1      -0.991  10.992  18.837  0.00  0.00    +0.000 A 
ATOM     14  N   UNL     1      -0.196  10.055  18.358  0.00  0.00    +0.000 NA
ATOM     15  C   UNL     1       0.468   9.530  19.447  0.00  0.00    +0.000 A 
ATOM     16  C   UNL     1       0.115  10.212  20.603  0.00  0.00    +0.000 A 
ATOM     17  H   UNL     1       1.608   9.604  23.525  0.00  0.00    +0.000 HD
ATOM     18  H   UNL     1       2.230   9.182  22.008  0.00  0.00    +0.000 HD
BRANCH  13  19
ATOM     19  C   UNL     1      -2.006  11.744  17.982  0.00  0.00    +0.000 C 
ATOM     20  C   UNL     1      -2.323  11.109  16.594  0.00  0.00    +0.000 C 
ATOM     21  C   UNL     1      -3.805  11.441  16.849  0.00  0.00    +0.000 C 
ATOM     22  C   UNL     1      -3.477  11.368  18.349  0.00  0.00    +0.000 C 
ENDBRANCH  13  19
ENDBRANCH   1  15
BRANCH   4  23
ATOM     23  O   UNL     1       3.721   4.984  18.760  0.00  0.00    +0.000 OA
BRANCH  23  24
ATOM     24  C   UNL     1       4.947   5.006  18.124  0.00  0.00    +0.000 A 
ATOM     25  C   UNL     1       6.042   5.308  18.930  0.00  0.00    +0.000 A 
ATOM     26  C   UNL     1       7.318   5.347  18.378  0.00  0.00    +0.000 A 
ATOM     27  C   UNL     1       7.501   5.092  17.015  0.00  0.00    +0.000 A 
ATOM     28  C   UNL     1       6.418   4.779  16.170  0.00  0.00    +0.000 A 
ATOM     29  C   UNL     1       5.146   4.701  16.769  0.00  0.00    +0.000 A 
BRANCH  28  30
ATOM     30  C   UNL     1       6.608   4.570  14.710  0.00  0.00    +0.000 A 
ATOM     31  C   UNL     1       5.836   3.642  13.985  0.00  0.00    +0.000 A 
ATOM     32  C   UNL     1       6.018   3.452  12.610  0.00  0.00    +0.000 A 
ATOM     33  C   UNL     1       6.987   4.179  11.926  0.00  0.00    +0.000 A 
ATOM     34  C   UNL     1       7.759   5.109  12.612  0.00  0.00    +0.000 A 
ATOM     35  C   UNL     1       7.562   5.308  13.983  0.00  0.00    +0.000 A 
ENDBRANCH  28  30
ENDBRANCH  23  24
ENDBRANCH   4  23
TORSDOF 5
ENDMDL
MODEL 3
REMARK VINA RESULT:     -10.0      2.711      3.815
REMARK  Name = 
REMARK  5 active torsions:
REMARK  status: ('A' for Active; 'I' for Inactive)
REMARK    1  A    between atoms: C_7  and  C_8
REMARK    2  A    between atoms: C_13  and  C_14
REMARK    3  A    between atoms: C_17  and  O_18
REMARK    4  A    between atoms: O_18  and  C_19
REMARK    5  A    between atoms: C_23  and  C_24
REMARK                            x       y       z     vdW  Elec       q    Type
REMARK                         _______ _______ _______ _____ _____    ______ ____
ROOT
ATOM      1  C   UNL     1       2.367   6.818  19.015  0.00  0.00    +0.000 A 
ATOM      2  C   UNL     1       2.109   7.976  18.268  0.00  0.00    +0.000 A 
ATOM      3  C   UNL     1       1.492   9.083  18.866  0.00  0.00    +0.000 A 
ATOM      4  C   UNL     1       1.113   9.032  20.210  0.00  0.00    +0.000 A 
ATOM      5  C   UNL     1       1.483   7.933  20.984  0.00  0.00    +0.000 A 
ATOM      6  C   UNL     1       2.117   6.844  20.389  0.00  0.00    +0.000 A 
ENDROOT
BRANCH   1  15
ATOM      7  N   UNL     1       0.715   4.141  20.278  0.00  0.00    +0.000 N 
ATOM      8  C   UNL     1       1.630   3.577  19.442  0.00  0.00    +0.000 A 
ATOM      9  N   UNL     1       1.619   2.261  19.433  0.00  0.00    +0.000 NA
ATOM     10  C   UNL     1       2.490   1.588  18.603  0.00  0.00    +0.000 A 
ATOM     11  C   UNL     1       3.353   2.198  17.780  0.00  0.00    +0.000 A 
ATOM     12  N   UNL     1       3.392   3.579  17.770  0.00  0.00    +0.000 N 
ATOM     13  C   UNL     1       4.175   4.471  17.076  0.00  0.00    +0.000 A 
ATOM     14  N   UNL     1       3.874   5.715  17.396  0.00  0.00    +0.000 NA
ATOM     15  C   UNL     1       2.903   5.630  18.371  0.00  0.00    +0.000 A 
ATOM     16  C   UNL     1       2.560   4.304  18.597  0.00  0.00    +0.000 A 
ATOM     17  H   UNL     1       0.054   3.462  20.633  0.00  0.00    +0.000 HD
ATOM     18  H   UNL     1       0.276   4.992  19.944  0.00  0.00    +0.000 HD
BRANCH  13  19
ATOM     19  C   UNL     1       5.304   4.105  16.118  0.00  0.00    +0.000 C 
ATOM     20  C   UNL     1       5.617   5.153  15.009  0.00  0.00    +0.000 C 
ATOM     21  C   UNL     1       7.113   4.892  15.269  0.00  0.00    +0.000 C 
ATOM     22  C   UNL     1       6.708   4.480  16.693  0.00  0.00    +0.000 C 
ENDBRANCH  13  19
ENDBRANCH   1  15
BRANCH   4  23
ATOM     23  O   UNL     1       0.436  10.124  20.704  0.00  0.00    +0.000 OA
BRANCH  23  24
ATOM     24  C   UNL     1       0.212  11.215  19.889  0.00  0.00    +0.000 A 
ATOM     25  C   UNL     1      -1.026  11.251  19.250  0.00  0.00    +0.000 A 
ATOM     26  C   UNL     1      -1.343  12.317  18.414  0.00  0.00    +0.000 A 
ATOM     27  C   UNL     1      -0.419  13.346  18.208  0.00  0.00    +0.000 A 
ATOM     28  C   UNL     1       0.840  13.346  18.840  0.00  0.00    +0.000 A 
ATOM     29  C   UNL     1       1.112  12.278  19.717  0.00  0.00    +0.000 A 
BRANCH  28  30
ATOM     30  C   UNL     1       1.843  14.410  18.571  0.00  0.00    +0.000 A 
ATOM     31  C   UNL     1       3.152  14.109  18.148  0.00  0.00    +0.000 A 
ATOM     32  C   UNL     1       4.091  15.116  17.894  0.00  0.00    +0.000 A 
ATOM     33  C   UNL     1       3.747  16.452  18.068  0.00  0.00    +0.000 A 
ATOM     34  C   UNL     1       2.460  16.783  18.475  0.00  0.00    +0.000 A 
ATOM     35  C   UNL     1       1.520  15.774  18.712  0.00  0.00    +0.000 A 
ENDBRANCH  28  30
ENDBRANCH  23  24
ENDBRANCH   4  23
TORSDOF 5
ENDMDL
MODEL 4
REMARK VINA RESULT:     -10.0      1.041      1.550
REMARK  Name = 
REMARK  5 active torsions:
REMARK  status: ('A' for Active; 'I' for Inactive)
REMARK    1  A    between atoms: C_7  and  C_8
REMARK    2  A    between atoms: C_13  and  C_14
REMARK    3  A    between atoms: C_17  and  O_18
REMARK    4  A    between atoms: O_18  and  C_19
REMARK    5  A    between atoms: C_23  and  C_24
REMARK                            x       y       z     vdW  Elec       q    Type
REMARK                         _______ _______ _______ _____ _____    ______ ____
ROOT
ATOM      1  C   UNL     1       2.446   6.655  18.858  0.00  0.00    +0.000 A 
ATOM      2  C   UNL     1       2.082   6.679  20.212  0.00  0.00    +0.000 A 
ATOM      3  C   UNL     1       1.563   7.847  20.785  0.00  0.00    +0.000 A 
ATOM      4  C   UNL     1       1.421   9.003  20.015  0.00  0.00    +0.000 A 
ATOM      5  C   UNL     1       1.661   8.944  18.643  0.00  0.00    +0.000 A 
ATOM      6  C   UNL     1       2.156   7.773  18.072  0.00  0.00    +0.000 A 
ENDROOT
BRANCH   1  15
ATOM      7  N   UNL     1       0.826   3.923  20.042  0.00  0.00    +0.000 N 
ATOM      8  C   UNL     1       1.834   3.390  19.297  0.00  0.00    +0.000 A 
ATOM      9  N   UNL     1       1.887   2.075  19.317  0.00  0.00    +0.000 NA
ATOM     10  C   UNL     1       2.855   1.431  18.576  0.00  0.00    +0.000 A 
ATOM     11  C   UNL     1       3.752   2.068  17.813  0.00  0.00    +0.000 A 
ATOM     12  N   UNL     1       3.725   3.448  17.774  0.00  0.00    +0.000 N 
ATOM     13  C   UNL     1       4.519   4.366  17.126  0.00  0.00    +0.000 A 
ATOM     14  N   UNL     1       4.132   5.599  17.392  0.00  0.00    +0.000 NA
ATOM     15  C   UNL     1       3.089   5.483  18.287  0.00  0.00    +0.000 A 
ATOM     16  C   UNL     1       2.793   4.147  18.514  0.00  0.00    +0.000 A 
ATOM     17  H   UNL     1       0.172   3.218  20.358  0.00  0.00    +0.000 HD
ATOM     18  H   UNL     1       0.375   4.745  19.655  0.00  0.00    +0.000 HD
BRANCH  13  19
ATOM     19  C   UNL     1       5.740   4.039  16.273  0.00  0.00    +0.000 C 
ATOM     20  C   UNL     1       5.560   4.226  14.736  0.00  0.00    +0.000 C 
ATOM     21  C   UNL     1       6.967   4.852  14.709  0.00  0.00    +0.000 C 
ATOM     22  C   UNL     1       6.730   5.243  16.177  0.00  0.00    +0.000 C 
ENDBRANCH  13  19
ENDBRANCH   1  15
BRANCH   4  23
ATOM     23  O   UNL     1       0.985  10.133  20.668  0.00  0.00    +0.000 OA
BRANCH  23  24
ATOM     24  C   UNL     1       0.285  11.098  19.972  0.00  0.00    +0.000 A 
ATOM     25  C   UNL     1       1.002  12.245  19.637  0.00  0.00    +0.000 A 
ATOM     26  C   UNL     1       0.380  13.268  18.929  0.00  0.00    +0.000 A 
ATOM     27  C   UNL     1      -0.964  13.151  18.562  0.00  0.00    +0.000 A 
ATOM     28  C   UNL     1      -1.719  12.006  18.878  0.00  0.00    +0.000 A 
ATOM     29  C   UNL     1      -1.049  10.967  19.553  0.00  0.00    +0.000 A 
BRANCH  28  30
ATOM     30  C   UNL     1      -3.164  11.911  18.540  0.00  0.00    +0.000 A 
ATOM     31  C   UNL     1      -3.607  11.438  17.289  0.00  0.00    +0.000 A 
ATOM     32  C   UNL     1      -4.969  11.349  16.979  0.00  0.00    +0.000 A 
ATOM     33  C   UNL     1      -5.925  11.741  17.909  0.00  0.00    +0.000 A 
ATOM     34  C   UNL     1      -5.521  12.203  19.157  0.00  0.00    +0.000 A 
ATOM     35  C   UNL     1      -4.159  12.275  19.469  0.00  0.00    +0.000 A 
ENDBRANCH  28  30
ENDBRANCH  23  24
ENDBRANCH   4  23
TORSDOF 5
ENDMDL
MODEL 5
REMARK VINA RESULT:     -10.0      2.762      3.590
REMARK  Name = 
REMARK  5 active torsions:
REMARK  status: ('A' for Active; 'I' for Inactive)
REMARK    1  A    between atoms: C_7  and  C_8
REMARK    2  A    between atoms: C_13  and  C_14
REMARK    3  A    between atoms: C_17  and  O_18
REMARK    4  A    between atoms: O_18  and  C_19
REMARK    5  A    between atoms: C_23  and  C_24
REMARK                            x       y       z     vdW  Elec       q    Type
REMARK                         _______ _______ _______ _____ _____    ______ ____
ROOT
ATOM      1  C   UNL     1       2.356   6.693  18.893  0.00  0.00    +0.000 A 
ATOM      2  C   UNL     1       1.997   6.724  20.248  0.00  0.00    +0.000 A 
ATOM      3  C   UNL     1       1.492   7.899  20.821  0.00  0.00    +0.000 A 
ATOM      4  C   UNL     1       1.360   9.054  20.048  0.00  0.00    +0.000 A 
ATOM      5  C   UNL     1       1.595   8.990  18.676  0.00  0.00    +0.000 A 
ATOM      6  C   UNL     1       2.076   7.813  18.105  0.00  0.00    +0.000 A 
ENDROOT
BRANCH   1  15
ATOM      7  N   UNL     1       0.719   3.981  20.101  0.00  0.00    +0.000 N 
ATOM      8  C   UNL     1       1.717   3.435  19.350  0.00  0.00    +0.000 A 
ATOM      9  N   UNL     1       1.758   2.120  19.376  0.00  0.00    +0.000 NA
ATOM     10  C   UNL     1       2.715   1.464  18.631  0.00  0.00    +0.000 A 
ATOM     11  C   UNL     1       3.612   2.089  17.858  0.00  0.00    +0.000 A 
ATOM     12  N   UNL     1       3.598   3.470  17.814  0.00  0.00    +0.000 N 
ATOM     13  C   UNL     1       4.395   4.378  17.157  0.00  0.00    +0.000 A 
ATOM     14  N   UNL     1       4.022   5.615  17.420  0.00  0.00    +0.000 NA
ATOM     15  C   UNL     1       2.984   5.513  18.323  0.00  0.00    +0.000 A 
ATOM     16  C   UNL     1       2.678   4.180  18.558  0.00  0.00    +0.000 A 
ATOM     17  H   UNL     1       0.061   3.283  20.424  0.00  0.00    +0.000 HD
ATOM     18  H   UNL     1       0.274   4.805  19.713  0.00  0.00    +0.000 HD
BRANCH  13  19
ATOM     19  C   UNL     1       5.607   4.036  16.296  0.00  0.00    +0.000 C 
ATOM     20  C   UNL     1       5.529   4.491  14.808  0.00  0.00    +0.000 C 
ATOM     21  C   UNL     1       7.003   4.923  14.926  0.00  0.00    +0.000 C 
ATOM     22  C   UNL     1       6.743   5.099  16.431  0.00  0.00    +0.000 C 
ENDBRANCH  13  19
ENDBRANCH   1  15
BRANCH   4  23
ATOM     23  O   UNL     1       0.939  10.191  20.700  0.00  0.00    +0.000 OA
BRANCH  23  24
ATOM     24  C   UNL     1       0.528  11.286  19.968  0.00  0.00    +0.000 A 
ATOM     25  C   UNL     1      -0.798  11.266  19.539  0.00  0.00    +0.000 A 
ATOM     26  C   UNL     1      -1.302  12.331  18.801  0.00  0.00    +0.000 A 
ATOM     27  C   UNL     1      -0.480  13.416  18.481  0.00  0.00    +0.000 A 
ATOM     28  C   UNL     1       0.863  13.473  18.901  0.00  0.00    +0.000 A 
ATOM     29  C   UNL     1       1.330  12.403  19.687  0.00  0.00    +0.000 A 
BRANCH  28  30
ATOM     30  C   UNL     1       1.752  14.599  18.507  0.00  0.00    +0.000 A 
ATOM     31  C   UNL     1       1.327  15.940  18.566  0.00  0.00    +0.000 A 
ATOM     32  C   UNL     1       2.171  16.994  18.196  0.00  0.00    +0.000 A 
ATOM     33  C   UNL     1       3.460  16.732  17.746  0.00  0.00    +0.000 A 
ATOM     34  C   UNL     1       3.914  15.420  17.686  0.00  0.00    +0.000 A 
ATOM     35  C   UNL     1       3.073  14.370  18.072  0.00  0.00    +0.000 A 
ENDBRANCH  28  30
ENDBRANCH  23  24
ENDBRANCH   4  23
TORSDOF 5
ENDMDL
MODEL 6
REMARK VINA RESULT:      -9.8      1.727      2.827
REMARK  Name = 
REMARK  5 active torsions:
REMARK  status: ('A' for Active; 'I' for Inactive)
REMARK    1  A    between atoms: C_7  and  C_8
REMARK    2  A    between atoms: C_13  and  C_14
REMARK    3  A    between atoms: C_17  and  O_18
REMARK    4  A    between atoms: O_18  and  C_19
REMARK    5  A    between atoms: C_23  and  C_24
REMARK                            x       y       z     vdW  Elec       q    Type
REMARK                         _______ _______ _______ _____ _____    ______ ____
ROOT
ATOM      1  C   UNL     1       2.516   7.523  18.769  0.00  0.00    +0.000 A 
ATOM      2  C   UNL     1       2.361   8.434  17.714  0.00  0.00    +0.000 A 
ATOM      3  C   UNL     1       1.519   9.545  17.855  0.00  0.00    +0.000 A 
ATOM      4  C   UNL     1       0.814   9.744  19.044  0.00  0.00    +0.000 A 
ATOM      5  C   UNL     1       1.065   8.913  20.135  0.00  0.00    +0.000 A 
ATOM      6  C   UNL     1       1.920   7.821  19.997  0.00  0.00    +0.000 A 
ENDROOT
BRANCH   1  15
ATOM      7  N   UNL     1       1.209   5.153  20.809  0.00  0.00    +0.000 N 
ATOM      8  C   UNL     1       2.280   4.526  20.248  0.00  0.00    +0.000 A 
ATOM      9  N   UNL     1       2.485   3.303  20.688  0.00  0.00    +0.000 NA
ATOM     10  C   UNL     1       3.530   2.568  20.168  0.00  0.00    +0.000 A 
ATOM     11  C   UNL     1       4.355   3.022  19.217  0.00  0.00    +0.000 A 
ATOM     12  N   UNL     1       4.170   4.305  18.738  0.00  0.00    +0.000 N 
ATOM     13  C   UNL     1       4.859   5.049  17.810  0.00  0.00    +0.000 A 
ATOM     14  N   UNL     1       4.330   6.249  17.676  0.00  0.00    +0.000 NA
ATOM     15  C   UNL     1       3.297   6.311  18.588  0.00  0.00    +0.000 A 
ATOM     16  C   UNL     1       3.155   5.094  19.239  0.00  0.00    +0.000 A 
ATOM     17  H   UNL     1       0.637   4.518  21.352  0.00  0.00    +0.000 HD
ATOM     18  H   UNL     1       0.671   5.749  20.191  0.00  0.00    +0.000 HD
BRANCH  13  19
ATOM     19  C   UNL     1       6.120   4.605  17.074  0.00  0.00    +0.000 C 
ATOM     20  C   UNL     1       5.890   3.908  15.700  0.00  0.00    +0.000 C 
ATOM     21  C   UNL     1       7.079   4.722  15.157  0.00  0.00    +0.000 C 
ATOM     22  C   UNL     1       6.752   5.764  16.239  0.00  0.00    +0.000 C 
ENDBRANCH  13  19
ENDBRANCH   1  15
BRANCH   4  23
ATOM     23  O   UNL     1      -0.057  10.809  19.077  0.00  0.00    +0.000 OA
BRANCH  23  24
ATOM     24  C   UNL     1      -1.274  10.716  18.432  0.00  0.00    +0.000 A 
ATOM     25  C   UNL     1      -1.298   9.914  17.294  0.00  0.00    +0.000 A 
ATOM     26  C   UNL     1      -2.483   9.756  16.583  0.00  0.00    +0.000 A 
ATOM     27  C   UNL     1      -3.646  10.409  17.003  0.00  0.00    +0.000 A 
ATOM     28  C   UNL     1      -3.661  11.224  18.151  0.00  0.00    +0.000 A 
ATOM     29  C   UNL     1      -2.459  11.325  18.876  0.00  0.00    +0.000 A 
BRANCH  28  30
ATOM     30  C   UNL     1      -4.884  11.965  18.560  0.00  0.00    +0.000 A 
ATOM     31  C   UNL     1      -4.943  12.698  19.761  0.00  0.00    +0.000 A 
ATOM     32  C   UNL     1      -6.097  13.396  20.138  0.00  0.00    +0.000 A 
ATOM     33  C   UNL     1      -7.227  13.369  19.329  0.00  0.00    +0.000 A 
ATOM     34  C   UNL     1      -7.197  12.663  18.132  0.00  0.00    +0.000 A 
ATOM     35  C   UNL     1      -6.037  11.980  17.750  0.00  0.00    +0.000 A 
ENDBRANCH  28  30
ENDBRANCH  23  24
ENDBRANCH   4  23
TORSDOF 5
ENDMDL
MODEL 7
REMARK VINA RESULT:      -9.8      2.983      4.434
REMARK  Name = 
REMARK  5 active torsions:
REMARK  status: ('A' for Active; 'I' for Inactive)
REMARK    1  A    between atoms: C_7  and  C_8
REMARK    2  A    between atoms: C_13  and  C_14
REMARK    3  A    between atoms: C_17  and  O_18
REMARK    4  A    between atoms: O_18  and  C_19
REMARK    5  A    between atoms: C_23  and  C_24
REMARK                            x       y       z     vdW  Elec       q    Type
REMARK                         _______ _______ _______ _____ _____    ______ ____
ROOT
ATOM      1  C   UNL     1       2.441   7.007  18.755  0.00  0.00    +0.000 A 
ATOM      2  C   UNL     1       2.034   8.027  17.883  0.00  0.00    +0.000 A 
ATOM      3  C   UNL     1       1.325   9.134  18.369  0.00  0.00    +0.000 A 
ATOM      4  C   UNL     1       1.004   9.221  19.725  0.00  0.00    +0.000 A 
ATOM      5  C   UNL     1       1.517   8.274  20.611  0.00  0.00    +0.000 A 
ATOM      6  C   UNL     1       2.240   7.186  20.126  0.00  0.00    +0.000 A 
ENDROOT
BRANCH   1  15
ATOM      7  N   UNL     1       0.823   4.346  20.092  0.00  0.00    +0.000 N 
ATOM      8  C   UNL     1       1.822   3.772  19.366  0.00  0.00    +0.000 A 
ATOM      9  N   UNL     1       1.871   2.460  19.454  0.00  0.00    +0.000 NA
ATOM     10  C   UNL     1       2.831   1.774  18.738  0.00  0.00    +0.000 A 
ATOM     11  C   UNL     1       3.722   2.368  17.935  0.00  0.00    +0.000 A 
ATOM     12  N   UNL     1       3.700   3.745  17.826  0.00  0.00    +0.000 N 
ATOM     13  C   UNL     1       4.490   4.625  17.125  0.00  0.00    +0.000 A 
ATOM     14  N   UNL     1       4.110   5.871  17.331  0.00  0.00    +0.000 NA
ATOM     15  C   UNL     1       3.075   5.806  18.240  0.00  0.00    +0.000 A 
ATOM     16  C   UNL     1       2.777   4.484  18.537  0.00  0.00    +0.000 A 
ATOM     17  H   UNL     1       0.169   3.661  20.450  0.00  0.00    +0.000 HD
ATOM     18  H   UNL     1       0.372   5.148  19.668  0.00  0.00    +0.000 HD
BRANCH  13  19
ATOM     19  C   UNL     1       5.702   4.251  16.278  0.00  0.00    +0.000 C 
ATOM     20  C   UNL     1       5.512   4.367  14.736  0.00  0.00    +0.000 C 
ATOM     21  C   UNL     1       6.923   4.981  14.669  0.00  0.00    +0.000 C 
ATOM     22  C   UNL     1       6.699   5.442  16.119  0.00  0.00    +0.000 C 
ENDBRANCH  13  19
ENDBRANCH   1  15
BRANCH   4  23
ATOM     23  O   UNL     1       0.233  10.293  20.112  0.00  0.00    +0.000 OA
BRANCH  23  24
ATOM     24  C   UNL     1       0.510  11.550  19.610  0.00  0.00    +0.000 A 
ATOM     25  C   UNL     1      -0.532  12.171  18.925  0.00  0.00    +0.000 A 
ATOM     26  C   UNL     1      -0.347  13.442  18.390  0.00  0.00    +0.000 A 
ATOM     27  C   UNL     1       0.884  14.091  18.532  0.00  0.00    +0.000 A 
ATOM     28  C   UNL     1       1.957  13.496  19.222  0.00  0.00    +0.000 A 
ATOM     29  C   UNL     1       1.723  12.230  19.793  0.00  0.00    +0.000 A 
BRANCH  28  30
ATOM     30  C   UNL     1       3.283  14.162  19.318  0.00  0.00    +0.000 A 
ATOM     31  C   UNL     1       4.043  14.478  18.175  0.00  0.00    +0.000 A 
ATOM     32  C   UNL     1       5.289  15.108  18.273  0.00  0.00    +0.000 A 
ATOM     33  C   UNL     1       5.814  15.428  19.520  0.00  0.00    +0.000 A 
ATOM     34  C   UNL     1       5.084  15.139  20.668  0.00  0.00    +0.000 A 
ATOM     35  C   UNL     1       3.832  14.524  20.564  0.00  0.00    +0.000 A 
ENDBRANCH  28  30
ENDBRANCH  23  24
ENDBRANCH   4  23
TORSDOF 5
ENDMDL
MODEL 8
REMARK VINA RESULT:      -9.7      3.921      9.868
REMARK  Name = 
REMARK  5 active torsions:
REMARK  status: ('A' for Active; 'I' for Inactive)
REMARK    1  A    between atoms: C_7  and  C_8
REMARK    2  A    between atoms: C_13  and  C_14
REMARK    3  A    between atoms: C_17  and  O_18
REMARK    4  A    between atoms: O_18  and  C_19
REMARK    5  A    between atoms: C_23  and  C_24
REMARK                            x       y       z     vdW  Elec       q    Type
REMARK                         _______ _______ _______ _____ _____    ______ ____
ROOT
ATOM      1  C   UNL     1       1.409   9.079  19.522  0.00  0.00    +0.000 A 
ATOM      2  C   UNL     1       1.677   8.845  18.166  0.00  0.00    +0.000 A 
ATOM      3  C   UNL     1       2.236   7.628  17.754  0.00  0.00    +0.000 A 
ATOM      4  C   UNL     1       2.547   6.645  18.696  0.00  0.00    +0.000 A 
ATOM      5  C   UNL     1       2.164   6.825  20.024  0.00  0.00    +0.000 A 
ATOM      6  C   UNL     1       1.588   8.029  20.426  0.00  0.00    +0.000 A 
ENDROOT
BRANCH   1  15
ATOM      7  N   UNL     1       2.786  11.416  17.490  0.00  0.00    +0.000 N 
ATOM      8  C   UNL     1       2.093  12.160  18.396  0.00  0.00    +0.000 A 
ATOM      9  N   UNL     1       2.215  13.461  18.238  0.00  0.00    +0.000 NA
ATOM     10  C   UNL     1       1.534  14.307  19.086  0.00  0.00    +0.000 A 
ATOM     11  C   UNL     1       0.731  13.884  20.071  0.00  0.00    +0.000 A 
ATOM     12  N   UNL     1       0.586  12.524  20.266  0.00  0.00    +0.000 N 
ATOM     13  C   UNL     1      -0.124  11.798  21.194  0.00  0.00    +0.000 A 
ATOM     14  N   UNL     1       0.043  10.503  21.011  0.00  0.00    +0.000 NA
ATOM     15  C   UNL     1       0.936  10.380  19.967  0.00  0.00    +0.000 A 
ATOM     16  C   UNL     1       1.262  11.630  19.461  0.00  0.00    +0.000 A 
ATOM     17  H   UNL     1       3.150  11.980  16.732  0.00  0.00    +0.000 HD
ATOM     18  H   UNL     1       2.333  10.566  17.175  0.00  0.00    +0.000 HD
BRANCH  13  19
ATOM     19  C   UNL     1      -0.940  12.382  22.343  0.00  0.00    +0.000 C 
ATOM     20  C   UNL     1      -2.398  12.802  21.991  0.00  0.00    +0.000 C 
ATOM     21  C   UNL     1      -2.835  12.183  23.332  0.00  0.00    +0.000 C 
ATOM     22  C   UNL     1      -1.604  11.270  23.216  0.00  0.00    +0.000 C 
ENDBRANCH  13  19
ENDBRANCH   1  15
BRANCH   4  23
ATOM     23  O   UNL     1       3.171   5.512  18.226  0.00  0.00    +0.000 OA
BRANCH  23  24
ATOM     24  C   UNL     1       4.423   5.610  17.653  0.00  0.00    +0.000 A 
ATOM     25  C   UNL     1       5.399   6.231  18.429  0.00  0.00    +0.000 A 
ATOM     26  C   UNL     1       6.692   6.368  17.935  0.00  0.00    +0.000 A 
ATOM     27  C   UNL     1       7.011   5.892  16.660  0.00  0.00    +0.000 A 
ATOM     28  C   UNL     1       6.053   5.255  15.849  0.00  0.00    +0.000 A 
ATOM     29  C   UNL     1       4.765   5.088  16.395  0.00  0.00    +0.000 A 
BRANCH  28  30
ATOM     30  C   UNL     1       6.379   4.805  14.469  0.00  0.00    +0.000 A 
ATOM     31  C   UNL     1       5.614   3.827  13.805  0.00  0.00    +0.000 A 
ATOM     32  C   UNL     1       5.926   3.411  12.505  0.00  0.00    +0.000 A 
ATOM     33  C   UNL     1       7.019   3.954  11.840  0.00  0.00    +0.000 A 
ATOM     34  C   UNL     1       7.788   4.929  12.465  0.00  0.00    +0.000 A 
ATOM     35  C   UNL     1       7.463   5.354  13.757  0.00  0.00    +0.000 A 
ENDBRANCH  28  30
ENDBRANCH  23  24
ENDBRANCH   4  23
TORSDOF 5
ENDMDL
MODEL 9
REMARK VINA RESULT:      -9.7      1.468      2.779
REMARK  Name = 
REMARK  5 active torsions:
REMARK  status: ('A' for Active; 'I' for Inactive)
REMARK    1  A    between atoms: C_7  and  C_8
REMARK    2  A    between atoms: C_13  and  C_14
REMARK    3  A    between atoms: C_17  and  O_18
REMARK    4  A    between atoms: O_18  and  C_19
REMARK    5  A    between atoms: C_23  and  C_24
REMARK                            x       y       z     vdW  Elec       q    Type
REMARK                         _______ _______ _______ _____ _____    ______ ____
ROOT
ATOM      1  C   UNL     1       2.616   7.062  18.472  0.00  0.00    +0.000 A 
ATOM      2  C   UNL     1       2.523   8.151  17.594  0.00  0.00    +0.000 A 
ATOM      3  C   UNL     1       1.881   9.331  17.993  0.00  0.00    +0.000 A 
ATOM      4  C   UNL     1       1.312   9.423  19.265  0.00  0.00    +0.000 A 
ATOM      5  C   UNL     1       1.515   8.392  20.181  0.00  0.00    +0.000 A 
ATOM      6  C   UNL     1       2.173   7.229  19.787  0.00  0.00    +0.000 A 
ENDROOT
BRANCH   1  15
ATOM      7  N   UNL     1       0.949   4.578  20.067  0.00  0.00    +0.000 N 
ATOM      8  C   UNL     1       1.893   3.909  19.348  0.00  0.00    +0.000 A 
ATOM      9  N   UNL     1       1.894   2.606  19.532  0.00  0.00    +0.000 NA
ATOM     10  C   UNL     1       2.794   1.830  18.833  0.00  0.00    +0.000 A 
ATOM     11  C   UNL     1       3.675   2.324  17.954  0.00  0.00    +0.000 A 
ATOM     12  N   UNL     1       3.703   3.689  17.743  0.00  0.00    +0.000 N 
ATOM     13  C   UNL     1       4.498   4.480  16.948  0.00  0.00    +0.000 A 
ATOM     14  N   UNL     1       4.177   5.753  17.074  0.00  0.00    +0.000 NA
ATOM     15  C   UNL     1       3.179   5.799  18.025  0.00  0.00    +0.000 A 
ATOM     16  C   UNL     1       2.841   4.517  18.432  0.00  0.00    +0.000 A 
ATOM     17  H   UNL     1       0.284   3.949  20.500  0.00  0.00    +0.000 HD
ATOM     18  H   UNL     1       0.513   5.365  19.601  0.00  0.00    +0.000 HD
BRANCH  13  19
ATOM     19  C   UNL     1       5.658   3.992  16.085  0.00  0.00    +0.000 C 
ATOM     20  C   UNL     1       5.574   4.353  14.572  0.00  0.00    +0.000 C 
ATOM     21  C   UNL     1       7.078   4.680  14.629  0.00  0.00    +0.000 C 
ATOM     22  C   UNL     1       6.873   4.974  16.123  0.00  0.00    +0.000 C 
ENDBRANCH  13  19
ENDBRANCH   1  15
BRANCH   4  23
ATOM     23  O   UNL     1       0.625  10.580  19.554  0.00  0.00    +0.000 OA
BRANCH  23  24
ATOM     24  C   UNL     1      -0.662  10.747  19.083  0.00  0.00    +0.000 A 
ATOM     25  C   UNL     1      -0.974  10.054  17.915  0.00  0.00    +0.000 A 
ATOM     26  C   UNL     1      -2.250  10.157  17.370  0.00  0.00    +0.000 A 
ATOM     27  C   UNL     1      -3.215  10.959  17.987  0.00  0.00    +0.000 A 
ATOM     28  C   UNL     1      -2.937  11.670  19.170  0.00  0.00    +0.000 A 
ATOM     29  C   UNL     1      -1.652  11.508  19.723  0.00  0.00    +0.000 A 
BRANCH  28  30
ATOM     30  C   UNL     1      -3.945  12.570  19.790  0.00  0.00    +0.000 A 
ATOM     31  C   UNL     1      -3.627  13.409  20.875  0.00  0.00    +0.000 A 
ATOM     32  C   UNL     1      -4.582  14.256  21.451  0.00  0.00    +0.000 A 
ATOM     33  C   UNL     1      -5.883  14.278  20.963  0.00  0.00    +0.000 A 
ATOM     34  C   UNL     1      -6.226  13.469  19.886  0.00  0.00    +0.000 A 
ATOM     35  C   UNL     1      -5.266  12.636  19.303  0.00  0.00    +0.000 A 
ENDBRANCH  28  30
ENDBRANCH  23  24
ENDBRANCH   4  23
TORSDOF 5
ENDMDL
