MODEL 1
REMARK VINA RESULT:      -7.0      0.000      0.000
REMARK  Name = 
REMARK  4 active torsions:
REMARK  status: ('A' for Active; 'I' for Inactive)
REMARK    1  A    between atoms: O_1  and  C_2
REMARK    2  A    between atoms: C_5  and  C_6
REMARK    3  A    between atoms: C_6  and  C_7
REMARK    4  A    between atoms: C_12  and  O_13
REMARK                            x       y       z     vdW  Elec       q    Type
REMARK                         _______ _______ _______ _____ _____    ______ ____
ROOT
ATOM      1  C   UNL     1       3.042   5.862  17.843  0.00  0.00    +0.000 C 
ENDROOT
BRANCH   1   5
ATOM      2  C   UNL     1       7.131   4.569  17.404  0.00  0.00    +0.000 A 
ATOM      3  C   UNL     1       6.714   5.125  18.609  0.00  0.00    +0.000 A 
ATOM      4  C   UNL     1       5.391   5.555  18.749  0.00  0.00    +0.000 A 
ATOM      5  C   UNL     1       4.482   5.421  17.689  0.00  0.00    +0.000 A 
ATOM      6  C   UNL     1       4.931   4.878  16.476  0.00  0.00    +0.000 A 
ATOM      7  C   UNL     1       6.252   4.451  16.334  0.00  0.00    +0.000 A 
BRANCH   2   8
ATOM      8  O   UNL     1       8.407   4.120  17.231  0.00  0.00    +0.000 OA
ATOM      9  H   UNL     1       8.450   3.199  17.536  0.00  0.00    +0.000 HD
ENDBRANCH   2   8
ENDBRANCH   1   5
BRANCH   1  10
ATOM     10  C   UNL     1       2.181   4.891  18.617  0.00  0.00    +0.000 A 
ATOM     11  C   UNL     1       1.656   3.757  17.974  0.00  0.00    +0.000 A 
ATOM     12  C   UNL     1       0.889   2.828  18.681  0.00  0.00    +0.000 A 
ATOM     13  C   UNL     1       0.639   3.018  20.038  0.00  0.00    +0.000 A 
ATOM     14  C   UNL     1       1.148   4.142  20.689  0.00  0.00    +0.000 A 
ATOM     15  C   UNL     1       1.911   5.067  19.979  0.00  0.00    +0.000 A 
BRANCH  15  16
ATOM     16  O   UNL     1       2.402   6.175  20.615  0.00  0.00    +0.000 OA
ATOM     17  H   UNL     1       1.669   6.792  20.767  0.00  0.00    +0.000 HD
ENDBRANCH  15  16
ENDBRANCH   1  10
TORSDOF 4
ENDMDL
MODEL 2
REMARK VINA RESULT:      -7.0      1.971      2.222
REMARK  Name = 
REMARK  4 active torsions:
REMARK  status: ('A' for Active; 'I' for Inactive)
REMARK    1  A    between atoms: O_1  and  C_2
REMARK    2  A    between atoms: C_5  and  C_6
REMARK    3  A    between atoms: C_6  and  C_7
REMARK    4  A    between atoms: C_12  and  O_13
REMARK                            x       y       z     vdW  Elec       q    Type
REMARK                         _______ _______ _______ _____ _____    ______ ____
ROOT
ATOM      1  C   UNL     1       3.341   3.273  17.242  0.00  0.00    +0.000 C 
ENDROOT
BRANCH   1   5
ATOM      2  C   UNL     1       6.587   6.050  16.666  0.00  0.00    +0.000 A 
ATOM      3  C   UNL     1       5.457   6.454  17.368  0.00  0.00    +0.000 A 
ATOM      4  C   UNL     1       4.398   5.558  17.546  0.00  0.00    +0.000 A 
ATOM      5  C   UNL     1       4.473   4.255  17.031  0.00  0.00    +0.000 A 
ATOM      6  C   UNL     1       5.614   3.878  16.307  0.00  0.00    +0.000 A 
ATOM      7  C   UNL     1       6.670   4.772  16.127  0.00  0.00    +0.000 A 
BRANCH   2   8
ATOM      8  O   UNL     1       7.650   6.887  16.487  0.00  0.00    +0.000 OA
ATOM      9  H   UNL     1       7.695   7.125  15.547  0.00  0.00    +0.000 HD
ENDBRANCH   2   8
ENDBRANCH   1   5
BRANCH   1  10
ATOM     10  C   UNL     1       2.772   3.283  18.641  0.00  0.00    +0.000 A 
ATOM     11  C   UNL     1       1.482   3.793  18.867  0.00  0.00    +0.000 A 
ATOM     12  C   UNL     1       0.923   3.777  20.146  0.00  0.00    +0.000 A 
ATOM     13  C   UNL     1       1.643   3.250  21.216  0.00  0.00    +0.000 A 
ATOM     14  C   UNL     1       2.927   2.745  21.010  0.00  0.00    +0.000 A 
ATOM     15  C   UNL     1       3.482   2.765  19.731  0.00  0.00    +0.000 A 
BRANCH  15  16
ATOM     16  O   UNL     1       4.745   2.280  19.530  0.00  0.00    +0.000 OA
ATOM     17  H   UNL     1       5.382   2.930  19.868  0.00  0.00    +0.000 HD
ENDBRANCH  15  16
ENDBRANCH   1  10
TORSDOF 4
ENDMDL
MODEL 3
REMARK VINA RESULT:      -6.9      1.517      2.170
REMARK  Name = 
REMARK  4 active torsions:
REMARK  status: ('A' for Active; 'I' for Inactive)
REMARK    1  A    between atoms: O_1  and  C_2
REMARK    2  A    between atoms: C_5  and  C_6
REMARK    3  A    between atoms: C_6  and  C_7
REMARK    4  A    between atoms: C_12  and  O_13
REMARK                            x       y       z     vdW  Elec       q    Type
REMARK                         _______ _______ _______ _____ _____    ______ ____
ROOT
ATOM      1  C   UNL     1       2.768   5.857  18.085  0.00  0.00    +0.000 C 
ENDROOT
BRANCH   1   5
ATOM      2  C   UNL     1       6.592   4.909  16.335  0.00  0.00    +0.000 A 
ATOM      3  C   UNL     1       5.567   3.970  16.291  0.00  0.00    +0.000 A 
ATOM      4  C   UNL     1       4.330   4.271  16.868  0.00  0.00    +0.000 A 
ATOM      5  C   UNL     1       4.113   5.515  17.481  0.00  0.00    +0.000 A 
ATOM      6  C   UNL     1       5.169   6.438  17.532  0.00  0.00    +0.000 A 
ATOM      7  C   UNL     1       6.405   6.136  16.958  0.00  0.00    +0.000 A 
BRANCH   2   8
ATOM      8  O   UNL     1       7.808   4.662  15.767  0.00  0.00    +0.000 OA
ATOM      9  H   UNL     1       8.140   3.818  16.114  0.00  0.00    +0.000 HD
ENDBRANCH   2   8
ENDBRANCH   1   5
BRANCH   1  10
ATOM     10  C   UNL     1       2.270   4.845  19.089  0.00  0.00    +0.000 A 
ATOM     11  C   UNL     1       2.672   4.936  20.433  0.00  0.00    +0.000 A 
ATOM     12  C   UNL     1       2.193   4.033  21.383  0.00  0.00    +0.000 A 
ATOM     13  C   UNL     1       1.306   3.027  21.006  0.00  0.00    +0.000 A 
ATOM     14  C   UNL     1       0.902   2.919  19.675  0.00  0.00    +0.000 A 
ATOM     15  C   UNL     1       1.385   3.822  18.729  0.00  0.00    +0.000 A 
BRANCH  15  16
ATOM     16  O   UNL     1       0.997   3.710  17.422  0.00  0.00    +0.000 OA
ATOM     17  H   UNL     1       0.095   3.351  17.398  0.00  0.00    +0.000 HD
ENDBRANCH  15  16
ENDBRANCH   1  10
TORSDOF 4
ENDMDL
MODEL 4
REMARK VINA RESULT:      -6.9      0.107      1.252
REMARK  Name = 
REMARK  4 active torsions:
REMARK  status: ('A' for Active; 'I' for Inactive)
REMARK    1  A    between atoms: O_1  and  C_2
REMARK    2  A    between atoms: C_5  and  C_6
REMARK    3  A    between atoms: C_6  and  C_7
REMARK    4  A    between atoms: C_12  and  O_13
REMARK                            x       y       z     vdW  Elec       q    Type
REMARK                         _______ _______ _______ _____ _____    ______ ____
ROOT
ATOM      1  C   UNL     1       3.024   5.843  17.935  0.00  0.00    +0.000 C 
ENDROOT
BRANCH   1   5
ATOM      2  C   UNL     1       7.095   4.569  17.311  0.00  0.00    +0.000 A 
ATOM      3  C   UNL     1       6.160   4.398  16.295  0.00  0.00    +0.000 A 
ATOM      4  C   UNL     1       4.837   4.800  16.500  0.00  0.00    +0.000 A 
ATOM      5  C   UNL     1       4.449   5.382  17.716  0.00  0.00    +0.000 A 
ATOM      6  C   UNL     1       5.404   5.525  18.734  0.00  0.00    +0.000 A 
ATOM      7  C   UNL     1       6.725   5.121  18.532  0.00  0.00    +0.000 A 
BRANCH   2   8
ATOM      8  O   UNL     1       8.400   4.208  17.146  0.00  0.00    +0.000 OA
ATOM      9  H   UNL     1       8.704   3.780  17.962  0.00  0.00    +0.000 HD
ENDBRANCH   2   8
ENDBRANCH   1   5
BRANCH   1  10
ATOM     10  C   UNL     1       2.164   4.850  18.680  0.00  0.00    +0.000 A 
ATOM     11  C   UNL     1       1.598   3.761  17.994  0.00  0.00    +0.000 A 
ATOM     12  C   UNL     1       0.831   2.812  18.672  0.00  0.00    +0.000 A 
ATOM     13  C   UNL     1       0.621   2.936  20.044  0.00  0.00    +0.000 A 
ATOM     14  C   UNL     1       1.170   4.014  20.739  0.00  0.00    +0.000 A 
ATOM     15  C   UNL     1       1.934   4.960  20.056  0.00  0.00    +0.000 A 
BRANCH  15  16
ATOM     16  O   UNL     1       2.464   6.023  20.735  0.00  0.00    +0.000 OA
ATOM     17  H   UNL     1       1.741   6.620  20.984  0.00  0.00    +0.000 HD
ENDBRANCH  15  16
ENDBRANCH   1  10
TORSDOF 4
ENDMDL
MODEL 5
REMARK VINA RESULT:      -6.9      1.607      2.022
REMARK  Name = 
REMARK  4 active torsions:
REMARK  status: ('A' for Active; 'I' for Inactive)
REMARK    1  A    between atoms: O_1  and  C_2
REMARK    2  A    between atoms: C_5  and  C_6
REMARK    3  A    between atoms: C_6  and  C_7
REMARK    4  A    between atoms: C_12  and  O_13
REMARK                            x       y       z     vdW  Elec       q    Type
REMARK                         _______ _______ _______ _____ _____    ______ ____
ROOT
ATOM      1  C   UNL     1       2.623   5.994  18.193  0.00  0.00    +0.000 C 
ENDROOT
BRANCH   1   5
ATOM      2  C   UNL     1       6.423   5.195  16.320  0.00  0.00    +0.000 A 
ATOM      3  C   UNL     1       6.127   6.486  16.747  0.00  0.00    +0.000 A 
ATOM      4  C   UNL     1       4.891   6.749  17.344  0.00  0.00    +0.000 A 
ATOM      5  C   UNL     1       3.953   5.720  17.524  0.00  0.00    +0.000 A 
ATOM      6  C   UNL     1       4.265   4.432  17.066  0.00  0.00    +0.000 A 
ATOM      7  C   UNL     1       5.498   4.169  16.466  0.00  0.00    +0.000 A 
BRANCH   2   8
ATOM      8  O   UNL     1       7.624   4.892  15.750  0.00  0.00    +0.000 OA
ATOM      9  H   UNL     1       7.853   3.979  15.987  0.00  0.00    +0.000 HD
ENDBRANCH   2   8
ENDBRANCH   1   5
BRANCH   1  10
ATOM     10  C   UNL     1       2.169   4.898  19.128  0.00  0.00    +0.000 A 
ATOM     11  C   UNL     1       2.577   4.912  20.473  0.00  0.00    +0.000 A 
ATOM     12  C   UNL     1       2.138   3.929  21.361  0.00  0.00    +0.000 A 
ATOM     13  C   UNL     1       1.284   2.920  20.920  0.00  0.00    +0.000 A 
ATOM     14  C   UNL     1       0.875   2.888  19.587  0.00  0.00    +0.000 A 
ATOM     15  C   UNL     1       1.318   3.871  18.703  0.00  0.00    +0.000 A 
BRANCH  15  16
ATOM     16  O   UNL     1       0.925   3.834  17.393  0.00  0.00    +0.000 OA
ATOM     17  H   UNL     1       1.521   3.240  16.910  0.00  0.00    +0.000 HD
ENDBRANCH  15  16
ENDBRANCH   1  10
TORSDOF 4
ENDMDL
MODEL 6
REMARK VINA RESULT:      -6.8      2.063      5.626
REMARK  Name = 
REMARK  4 active torsions:
REMARK  status: ('A' for Active; 'I' for Inactive)
REMARK    1  A    between atoms: O_1  and  C_2
REMARK    2  A    between atoms: C_5  and  C_6
REMARK    3  A    between atoms: C_6  and  C_7
REMARK    4  A    between atoms: C_12  and  O_13
REMARK                            x       y       z     vdW  Elec       q    Type
REMARK                         _______ _______ _______ _____ _____    ______ ____
ROOT
ATOM      1  C   UNL     1       4.833   4.112  16.515  0.00  0.00    +0.000 C 
ENDROOT
BRANCH   1   5
ATOM      2  C   UNL     1       1.485   3.226  19.083  0.00  0.00    +0.000 A 
ATOM      3  C   UNL     1       2.279   2.187  18.610  0.00  0.00    +0.000 A 
ATOM      4  C   UNL     1       3.359   2.471  17.768  0.00  0.00    +0.000 A 
ATOM      5  C   UNL     1       3.650   3.795  17.406  0.00  0.00    +0.000 A 
ATOM      6  C   UNL     1       2.822   4.825  17.878  0.00  0.00    +0.000 A 
ATOM      7  C   UNL     1       1.743   4.541  18.716  0.00  0.00    +0.000 A 
BRANCH   2   8
ATOM      8  O   UNL     1       0.435   2.994  19.921  0.00  0.00    +0.000 OA
ATOM      9  H   UNL     1       0.193   3.832  20.347  0.00  0.00    +0.000 HD
ENDBRANCH   2   8
ENDBRANCH   1   5
BRANCH   1  10
ATOM     10  C   UNL     1       5.823   5.074  17.127  0.00  0.00    +0.000 A 
ATOM     11  C   UNL     1       6.622   4.663  18.207  0.00  0.00    +0.000 A 
ATOM     12  C   UNL     1       7.570   5.525  18.762  0.00  0.00    +0.000 A 
ATOM     13  C   UNL     1       7.733   6.809  18.245  0.00  0.00    +0.000 A 
ATOM     14  C   UNL     1       6.942   7.235  17.178  0.00  0.00    +0.000 A 
ATOM     15  C   UNL     1       5.996   6.371  16.628  0.00  0.00    +0.000 A 
BRANCH  15  16
ATOM     16  O   UNL     1       5.214   6.792  15.589  0.00  0.00    +0.000 OA
ATOM     17  H   UNL     1       5.025   7.737  15.709  0.00  0.00    +0.000 HD
ENDBRANCH  15  16
ENDBRANCH   1  10
TORSDOF 4
ENDMDL
MODEL 7
REMARK VINA RESULT:      -6.8      2.186      2.413
REMARK  Name = 
REMARK  4 active torsions:
REMARK  status: ('A' for Active; 'I' for Inactive)
REMARK    1  A    between atoms: O_1  and  C_2
REMARK    2  A    between atoms: C_5  and  C_6
REMARK    3  A    between atoms: C_6  and  C_7
REMARK    4  A    between atoms: C_12  and  O_13
REMARK                            x       y       z     vdW  Elec       q    Type
REMARK                         _______ _______ _______ _____ _____    ______ ____
ROOT
ATOM      1  C   UNL     1       3.945   3.407  17.516  0.00  0.00    +0.000 C 
ENDROOT
BRANCH   1   5
ATOM      2  C   UNL     1       6.650   6.748  17.204  0.00  0.00    +0.000 A 
ATOM      3  C   UNL     1       7.155   5.482  17.480  0.00  0.00    +0.000 A 
ATOM      4  C   UNL     1       6.277   4.399  17.593  0.00  0.00    +0.000 A 
ATOM      5  C   UNL     1       4.897   4.580  17.421  0.00  0.00    +0.000 A 
ATOM      6  C   UNL     1       4.409   5.870  17.164  0.00  0.00    +0.000 A 
ATOM      7  C   UNL     1       5.284   6.952  17.054  0.00  0.00    +0.000 A 
BRANCH   2   8
ATOM      8  O   UNL     1       7.473   7.827  17.067  0.00  0.00    +0.000 OA
ATOM      9  H   UNL     1       7.721   7.905  16.131  0.00  0.00    +0.000 HD
ENDBRANCH   2   8
ENDBRANCH   1   5
BRANCH   1  10
ATOM     10  C   UNL     1       3.148   3.365  18.799  0.00  0.00    +0.000 A 
ATOM     11  C   UNL     1       1.861   3.928  18.842  0.00  0.00    +0.000 A 
ATOM     12  C   UNL     1       1.095   3.866  20.007  0.00  0.00    +0.000 A 
ATOM     13  C   UNL     1       1.602   3.240  21.144  0.00  0.00    +0.000 A 
ATOM     14  C   UNL     1       2.880   2.682  21.120  0.00  0.00    +0.000 A 
ATOM     15  C   UNL     1       3.643   2.748  19.955  0.00  0.00    +0.000 A 
BRANCH  15  16
ATOM     16  O   UNL     1       4.900   2.210  19.934  0.00  0.00    +0.000 OA
ATOM     17  H   UNL     1       5.544   2.935  19.882  0.00  0.00    +0.000 HD
ENDBRANCH  15  16
ENDBRANCH   1  10
TORSDOF 4
ENDMDL
MODEL 8
REMARK VINA RESULT:      -6.8      2.100      5.604
REMARK  Name = 
REMARK  4 active torsions:
REMARK  status: ('A' for Active; 'I' for Inactive)
REMARK    1  A    between atoms: O_1  and  C_2
REMARK    2  A    between atoms: C_5  and  C_6
REMARK    3  A    between atoms: C_6  and  C_7
REMARK    4  A    between atoms: C_12  and  O_13
REMARK                            x       y       z     vdW  Elec       q    Type
REMARK                         _______ _______ _______ _____ _____    ______ ____
ROOT
ATOM      1  C   UNL     1       4.940   4.090  16.497  0.00  0.00    +0.000 C 
ENDROOT
BRANCH   1   5
ATOM      2  C   UNL     1       1.492   3.193  18.923  0.00  0.00    +0.000 A 
ATOM      3  C   UNL     1       1.756   4.512  18.569  0.00  0.00    +0.000 A 
ATOM      4  C   UNL     1       2.880   4.806  17.791  0.00  0.00    +0.000 A 
ATOM      5  C   UNL     1       3.736   3.781  17.360  0.00  0.00    +0.000 A 
ATOM      6  C   UNL     1       3.461   2.461  17.749  0.00  0.00    +0.000 A 
ATOM      7  C   UNL     1       2.341   2.167  18.527  0.00  0.00    +0.000 A 
BRANCH   2   8
ATOM      8  O   UNL     1       0.396   2.861  19.664  0.00  0.00    +0.000 OA
ATOM      9  H   UNL     1       0.619   2.965  20.604  0.00  0.00    +0.000 HD
ENDBRANCH   2   8
ENDBRANCH   1   5
BRANCH   1  10
ATOM     10  C   UNL     1       5.906   5.072  17.118  0.00  0.00    +0.000 A 
ATOM     11  C   UNL     1       6.719   4.669  18.192  0.00  0.00    +0.000 A 
ATOM     12  C   UNL     1       7.644   5.550  18.755  0.00  0.00    +0.000 A 
ATOM     13  C   UNL     1       7.771   6.844  18.253  0.00  0.00    +0.000 A 
ATOM     14  C   UNL     1       6.967   7.261  17.193  0.00  0.00    +0.000 A 
ATOM     15  C   UNL     1       6.043   6.378  16.635  0.00  0.00    +0.000 A 
BRANCH  15  16
ATOM     16  O   UNL     1       5.247   6.791  15.602  0.00  0.00    +0.000 OA
ATOM     17  H   UNL     1       4.321   6.630  15.843  0.00  0.00    +0.000 HD
ENDBRANCH  15  16
ENDBRANCH   1  10
TORSDOF 4
ENDMDL
MODEL 9
REMARK VINA RESULT:      -6.8      2.149      2.664
REMARK  Name = 
REMARK  4 active torsions:
REMARK  status: ('A' for Active; 'I' for Inactive)
REMARK    1  A    between atoms: O_1  and  C_2
REMARK    2  A    between atoms: C_5  and  C_6
REMARK    3  A    between atoms: C_6  and  C_7
REMARK    4  A    between atoms: C_12  and  O_13
REMARK                            x       y       z     vdW  Elec       q    Type
REMARK                         _______ _______ _______ _____ _____    ______ ____
ROOT
ATOM      1  C   UNL     1       4.696   3.794  16.629  0.00  0.00    +0.000 C 
ENDROOT
BRANCH   1   5
ATOM      2  C   UNL     1       7.570   6.455  18.429  0.00  0.00    +0.000 A 
ATOM      3  C   UNL     1       6.941   5.493  19.213  0.00  0.00    +0.000 A 
ATOM      4  C   UNL     1       6.001   4.637  18.633  0.00  0.00    +0.000 A 
ATOM      5  C   UNL     1       5.694   4.735  17.267  0.00  0.00    +0.000 A 
ATOM      6  C   UNL     1       6.325   5.727  16.501  0.00  0.00    +0.000 A 
ATOM      7  C   UNL     1       7.262   6.585  17.080  0.00  0.00    +0.000 A 
BRANCH   2   8
ATOM      8  O   UNL     1       8.507   7.297  18.951  0.00  0.00    +0.000 OA
ATOM      9  H   UNL     1       9.309   6.783  19.138  0.00  0.00    +0.000 HD
ENDBRANCH   2   8
ENDBRANCH   1   5
BRANCH   1  10
ATOM     10  C   UNL     1       3.492   3.498  17.491  0.00  0.00    +0.000 A 
ATOM     11  C   UNL     1       2.518   4.490  17.698  0.00  0.00    +0.000 A 
ATOM     12  C   UNL     1       1.380   4.223  18.461  0.00  0.00    +0.000 A 
ATOM     13  C   UNL     1       1.197   2.963  19.026  0.00  0.00    +0.000 A 
ATOM     14  C   UNL     1       2.158   1.969  18.836  0.00  0.00    +0.000 A 
ATOM     15  C   UNL     1       3.294   2.241  18.075  0.00  0.00    +0.000 A 
BRANCH  15  16
ATOM     16  O   UNL     1       4.240   1.270  17.897  0.00  0.00    +0.000 OA
ATOM     17  H   UNL     1       4.566   0.993  18.768  0.00  0.00    +0.000 HD
ENDBRANCH  15  16
ENDBRANCH   1  10
TORSDOF 4
ENDMDL
