MODEL 1
REMARK VINA RESULT:      -7.2      0.000      0.000
REMARK  Name = 
REMARK  4 active torsions:
REMARK  status: ('A' for Active; 'I' for Inactive)
REMARK    1  A    between atoms: N_4  and  C_5
REMARK    2  A    between atoms: C_8  and  N_9
REMARK    3  A    between atoms: C_10  and  C_12
REMARK    4  A    between atoms: C_18  and  O_19
REMARK                            x       y       z     vdW  Elec       q    Type
REMARK                         _______ _______ _______ _____ _____    ______ ____
ROOT
ATOM      1  C   UNL     1       3.380   3.943  19.540  0.00  0.00    +0.000 A 
ATOM      2  C   UNL     1       3.935   5.020  18.843  0.00  0.00    +0.000 A 
ATOM      3  C   UNL     1       3.444   6.317  19.002  0.00  0.00    +0.000 A 
ATOM      4  C   UNL     1       2.365   6.585  19.842  0.00  0.00    +0.000 A 
ATOM      5  C   UNL     1       1.821   5.521  20.570  0.00  0.00    +0.000 A 
ATOM      6  C   UNL     1       2.327   4.216  20.417  0.00  0.00    +0.000 A 
ENDROOT
BRANCH   1  10
ATOM      7  N   UNL     1       2.455   1.787  17.641  0.00  0.00    +0.000 NA
ATOM      8  C   UNL     1       3.449   1.704  18.451  0.00  0.00    +0.000 C 
ATOM      9  N   UNL     1       4.166   0.558  18.557  0.00  0.00    +0.000 N 
ATOM     10  N   UNL     1       3.909   2.661  19.299  0.00  0.00    +0.000 N 
ATOM     11  H   UNL     1       2.313   0.894  17.173  0.00  0.00    +0.000 HD
ATOM     12  H   UNL     1       4.034  -0.097  17.798  0.00  0.00    +0.000 HD
ATOM     13  H   UNL     1       5.152   0.697  18.743  0.00  0.00    +0.000 HD
ATOM     14  H   UNL     1       4.466   2.314  20.067  0.00  0.00    +0.000 HD
ENDBRANCH   1  10
BRANCH   4  15
ATOM     15  N   UNL     1       1.796   7.875  19.977  0.00  0.00    +0.000 N 
ATOM     16  C   UNL     1       1.543   8.762  18.944  0.00  0.00    +0.000 C 
ATOM     17  O   UNL     1       1.765   8.552  17.755  0.00  0.00    +0.000 OA
ATOM     18  H   UNL     1       1.501   8.161  20.909  0.00  0.00    +0.000 HD
BRANCH  16  19
ATOM     19  C   UNL     1       0.943  10.089  19.286  0.00  0.00    +0.000 A 
ATOM     20  C   UNL     1      -0.104  10.066  20.231  0.00  0.00    +0.000 A 
ATOM     21  C   UNL     1      -0.770  11.228  20.614  0.00  0.00    +0.000 A 
ATOM     22  C   UNL     1      -0.396  12.446  20.058  0.00  0.00    +0.000 A 
ATOM     23  C   UNL     1       0.649  12.491  19.132  0.00  0.00    +0.000 A 
ATOM     24 CL   UNL     1       1.095  14.019  18.462  0.00  0.00    +0.000 Cl
ATOM     25  C   UNL     1       1.325  11.322  18.743  0.00  0.00    +0.000 A 
BRANCH  25  26
ATOM     26  O   UNL     1       2.354  11.400  17.835  0.00  0.00    +0.000 OA
ATOM     27  H   UNL     1       3.060  10.801  18.154  0.00  0.00    +0.000 HD
ENDBRANCH  25  26
ENDBRANCH  16  19
ENDBRANCH   4  15
TORSDOF 4
ENDMDL
MODEL 2
REMARK VINA RESULT:      -7.2      0.784      1.026
REMARK  Name = 
REMARK  4 active torsions:
REMARK  status: ('A' for Active; 'I' for Inactive)
REMARK    1  A    between atoms: N_4  and  C_5
REMARK    2  A    between atoms: C_8  and  N_9
REMARK    3  A    between atoms: C_10  and  C_12
REMARK    4  A    between atoms: C_18  and  O_19
REMARK                            x       y       z     vdW  Elec       q    Type
REMARK                         _______ _______ _______ _____ _____    ______ ____
ROOT
ATOM      1  C   UNL     1       2.707   4.130  19.055  0.00  0.00    +0.000 A 
ATOM      2  C   UNL     1       3.142   5.143  18.198  0.00  0.00    +0.000 A 
ATOM      3  C   UNL     1       2.892   6.488  18.477  0.00  0.00    +0.000 A 
ATOM      4  C   UNL     1       2.176   6.871  19.610  0.00  0.00    +0.000 A 
ATOM      5  C   UNL     1       1.762   5.867  20.494  0.00  0.00    +0.000 A 
ATOM      6  C   UNL     1       2.027   4.513  20.216  0.00  0.00    +0.000 A 
ENDROOT
BRANCH   1  10
ATOM      7  N   UNL     1       4.918   2.271  19.932  0.00  0.00    +0.000 NA
ATOM      8  C   UNL     1       3.992   1.996  19.085  0.00  0.00    +0.000 C 
ATOM      9  N   UNL     1       3.966   0.800  18.446  0.00  0.00    +0.000 N 
ATOM     10  N   UNL     1       2.969   2.796  18.687  0.00  0.00    +0.000 N 
ATOM     11  H   UNL     1       5.579   1.499  19.988  0.00  0.00    +0.000 HD
ATOM     12  H   UNL     1       4.544   0.082  18.865  0.00  0.00    +0.000 HD
ATOM     13  H   UNL     1       3.036   0.446  18.257  0.00  0.00    +0.000 HD
ATOM     14  H   UNL     1       2.552   2.543  17.802  0.00  0.00    +0.000 HD
ENDBRANCH   1  10
BRANCH   4  15
ATOM     15  N   UNL     1       1.844   8.218  19.892  0.00  0.00    +0.000 N 
ATOM     16  C   UNL     1       1.412   9.157  18.969  0.00  0.00    +0.000 C 
ATOM     17  O   UNL     1       1.242   8.951  17.771  0.00  0.00    +0.000 OA
ATOM     18  H   UNL     1       1.879   8.514  20.865  0.00  0.00    +0.000 HD
BRANCH  16  19
ATOM     19  C   UNL     1       1.116  10.540  19.458  0.00  0.00    +0.000 A 
ATOM     20  C   UNL     1       0.343  10.624  20.634  0.00  0.00    +0.000 A 
ATOM     21  C   UNL     1      -0.030  11.853  21.178  0.00  0.00    +0.000 A 
ATOM     22  C   UNL     1       0.370  13.028  20.552  0.00  0.00    +0.000 A 
ATOM     23  C   UNL     1       1.149  12.964  19.395  0.00  0.00    +0.000 A 
ATOM     24 CL   UNL     1       1.636  14.439  18.643  0.00  0.00    +0.000 Cl
ATOM     25  C   UNL     1       1.529  11.728  18.843  0.00  0.00    +0.000 A 
BRANCH  25  26
ATOM     26  O   UNL     1       2.302  11.698  17.707  0.00  0.00    +0.000 OA
ATOM     27  H   UNL     1       1.701  11.851  16.949  0.00  0.00    +0.000 HD
ENDBRANCH  25  26
ENDBRANCH  16  19
ENDBRANCH   4  15
TORSDOF 4
ENDMDL
MODEL 3
REMARK VINA RESULT:      -7.1      5.696      7.858
REMARK  Name = 
REMARK  4 active torsions:
REMARK  status: ('A' for Active; 'I' for Inactive)
REMARK    1  A    between atoms: N_4  and  C_5
REMARK    2  A    between atoms: C_8  and  N_9
REMARK    3  A    between atoms: C_10  and  C_12
REMARK    4  A    between atoms: C_18  and  O_19
REMARK                            x       y       z     vdW  Elec       q    Type
REMARK                         _______ _______ _______ _____ _____    ______ ____
ROOT
ATOM      1  C   UNL     1       1.817   3.199  19.447  0.00  0.00    +0.000 A 
ATOM      2  C   UNL     1       2.305   4.473  19.148  0.00  0.00    +0.000 A 
ATOM      3  C   UNL     1       3.022   4.719  17.975  0.00  0.00    +0.000 A 
ATOM      4  C   UNL     1       3.302   3.697  17.071  0.00  0.00    +0.000 A 
ATOM      5  C   UNL     1       2.792   2.423  17.343  0.00  0.00    +0.000 A 
ATOM      6  C   UNL     1       2.058   2.181  18.520  0.00  0.00    +0.000 A 
ENDROOT
BRANCH   1  10
ATOM      7  N   UNL     1       2.825   2.211  22.116  0.00  0.00    +0.000 NA
ATOM      8  C   UNL     1       1.616   2.552  21.845  0.00  0.00    +0.000 C 
ATOM      9  N   UNL     1       0.636   2.439  22.774  0.00  0.00    +0.000 N 
ATOM     10  N   UNL     1       1.133   3.024  20.665  0.00  0.00    +0.000 N 
ATOM     11  H   UNL     1       2.878   1.843  23.063  0.00  0.00    +0.000 HD
ATOM     12  H   UNL     1       0.963   2.327  23.725  0.00  0.00    +0.000 HD
ATOM     13  H   UNL     1      -0.076   3.158  22.723  0.00  0.00    +0.000 HD
ATOM     14  H   UNL     1       0.135   2.924  20.546  0.00  0.00    +0.000 HD
ENDBRANCH   1  10
BRANCH   4  15
ATOM     15  N   UNL     1       4.083   3.893  15.906  0.00  0.00    +0.000 N 
ATOM     16  C   UNL     1       5.465   3.970  15.860  0.00  0.00    +0.000 C 
ATOM     17  O   UNL     1       6.216   3.867  16.826  0.00  0.00    +0.000 OA
ATOM     18  H   UNL     1       3.592   3.933  15.014  0.00  0.00    +0.000 HD
BRANCH  16  19
ATOM     19  C   UNL     1       6.115   4.190  14.530  0.00  0.00    +0.000 A 
ATOM     20  C   UNL     1       5.589   3.440  13.457  0.00  0.00    +0.000 A 
ATOM     21  C   UNL     1       6.123   3.527  12.173  0.00  0.00    +0.000 A 
ATOM     22  C   UNL     1       7.199   4.375  11.935  0.00  0.00    +0.000 A 
ATOM     23  C   UNL     1       7.723   5.137  12.981  0.00  0.00    +0.000 A 
ATOM     24 CL   UNL     1       9.055   6.185  12.655  0.00  0.00    +0.000 Cl
ATOM     25  C   UNL     1       7.187   5.054  14.278  0.00  0.00    +0.000 A 
BRANCH  25  26
ATOM     26  O   UNL     1       7.721   5.821  15.286  0.00  0.00    +0.000 OA
ATOM     27  H   UNL     1       8.560   6.194  14.947  0.00  0.00    +0.000 HD
ENDBRANCH  25  26
ENDBRANCH  16  19
ENDBRANCH   4  15
TORSDOF 4
ENDMDL
MODEL 4
REMARK VINA RESULT:      -7.1      0.601      1.184
REMARK  Name = 
REMARK  4 active torsions:
REMARK  status: ('A' for Active; 'I' for Inactive)
REMARK    1  A    between atoms: N_4  and  C_5
REMARK    2  A    between atoms: C_8  and  N_9
REMARK    3  A    between atoms: C_10  and  C_12
REMARK    4  A    between atoms: C_18  and  O_19
REMARK                            x       y       z     vdW  Elec       q    Type
REMARK                         _______ _______ _______ _____ _____    ______ ____
ROOT
ATOM      1  C   UNL     1       3.417   4.292  18.917  0.00  0.00    +0.000 A 
ATOM      2  C   UNL     1       2.609   4.566  20.024  0.00  0.00    +0.000 A 
ATOM      3  C   UNL     1       2.070   5.836  20.232  0.00  0.00    +0.000 A 
ATOM      4  C   UNL     1       2.338   6.889  19.360  0.00  0.00    +0.000 A 
ATOM      5  C   UNL     1       3.119   6.620  18.230  0.00  0.00    +0.000 A 
ATOM      6  C   UNL     1       3.651   5.335  18.015  0.00  0.00    +0.000 A 
ENDROOT
BRANCH   1  10
ATOM      7  N   UNL     1       2.179   1.782  17.786  0.00  0.00    +0.000 NA
ATOM      8  C   UNL     1       3.353   1.880  18.300  0.00  0.00    +0.000 C 
ATOM      9  N   UNL     1       4.149   0.790  18.428  0.00  0.00    +0.000 N 
ATOM     10  N   UNL     1       3.951   2.995  18.795  0.00  0.00    +0.000 N 
ATOM     11  H   UNL     1       1.981   0.811  17.553  0.00  0.00    +0.000 HD
ATOM     12  H   UNL     1       3.869  -0.008  17.872  0.00  0.00    +0.000 HD
ATOM     13  H   UNL     1       5.138   0.978  18.313  0.00  0.00    +0.000 HD
ATOM     14  H   UNL     1       4.711   2.819  19.436  0.00  0.00    +0.000 HD
ENDBRANCH   1  10
BRANCH   4  15
ATOM     15  N   UNL     1       1.865   8.206  19.574  0.00  0.00    +0.000 N 
ATOM     16  C   UNL     1       1.692   9.174  18.598  0.00  0.00    +0.000 C 
ATOM     17  O   UNL     1       1.913   9.024  17.399  0.00  0.00    +0.000 OA
ATOM     18  H   UNL     1       1.580   8.453  20.520  0.00  0.00    +0.000 HD
BRANCH  16  19
ATOM     19  C   UNL     1       1.187  10.518  19.020  0.00  0.00    +0.000 A 
ATOM     20  C   UNL     1       0.149  10.513  19.975  0.00  0.00    +0.000 A 
ATOM     21  C   UNL     1      -0.433  11.695  20.430  0.00  0.00    +0.000 A 
ATOM     22  C   UNL     1       0.020  12.914  19.938  0.00  0.00    +0.000 A 
ATOM     23  C   UNL     1       1.059  12.939  19.004  0.00  0.00    +0.000 A 
ATOM     24 CL   UNL     1       1.604  14.468  18.414  0.00  0.00    +0.000 Cl
ATOM     25  C   UNL     1       1.649  11.750  18.542  0.00  0.00    +0.000 A 
BRANCH  25  26
ATOM     26  O   UNL     1       2.673  11.808  17.627  0.00  0.00    +0.000 OA
ATOM     27  H   UNL     1       2.272  11.684  16.743  0.00  0.00    +0.000 HD
ENDBRANCH  25  26
ENDBRANCH  16  19
ENDBRANCH   4  15
TORSDOF 4
ENDMDL
MODEL 5
REMARK VINA RESULT:      -7.0      2.562      3.015
REMARK  Name = 
REMARK  4 active torsions:
REMARK  status: ('A' for Active; 'I' for Inactive)
REMARK    1  A    between atoms: N_4  and  C_5
REMARK    2  A    between atoms: C_8  and  N_9
REMARK    3  A    between atoms: C_10  and  C_12
REMARK    4  A    between atoms: C_18  and  O_19
REMARK                            x       y       z     vdW  Elec       q    Type
REMARK                         _______ _______ _______ _____ _____    ______ ____
ROOT
ATOM      1  C   UNL     1       4.100   5.215  17.089  0.00  0.00    +0.000 A 
ATOM      2  C   UNL     1       4.213   6.608  17.067  0.00  0.00    +0.000 A 
ATOM      3  C   UNL     1       3.543   7.405  17.998  0.00  0.00    +0.000 A 
ATOM      4  C   UNL     1       2.716   6.844  18.968  0.00  0.00    +0.000 A 
ATOM      5  C   UNL     1       2.620   5.449  19.022  0.00  0.00    +0.000 A 
ATOM      6  C   UNL     1       3.306   4.647  18.090  0.00  0.00    +0.000 A 
ENDROOT
BRANCH   1  10
ATOM      7  N   UNL     1       6.967   4.275  16.990  0.00  0.00    +0.000 NA
ATOM      8  C   UNL     1       6.082   4.097  16.075  0.00  0.00    +0.000 C 
ATOM      9  N   UNL     1       6.400   3.485  14.908  0.00  0.00    +0.000 N 
ATOM     10  N   UNL     1       4.779   4.483  16.097  0.00  0.00    +0.000 N 
ATOM     11  H   UNL     1       7.870   3.928  16.672  0.00  0.00    +0.000 HD
ATOM     12  H   UNL     1       7.270   2.968  14.924  0.00  0.00    +0.000 HD
ATOM     13  H   UNL     1       5.656   2.922  14.514  0.00  0.00    +0.000 HD
ATOM     14  H   UNL     1       4.343   4.552  15.188  0.00  0.00    +0.000 HD
ENDBRANCH   1  10
BRANCH   4  15
ATOM     15  N   UNL     1       1.968   7.622  19.885  0.00  0.00    +0.000 N 
ATOM     16  C   UNL     1       1.394   8.856  19.623  0.00  0.00    +0.000 C 
ATOM     17  O   UNL     1       1.441   9.448  18.548  0.00  0.00    +0.000 OA
ATOM     18  H   UNL     1       1.793   7.222  20.805  0.00  0.00    +0.000 HD
BRANCH  16  19
ATOM     19  C   UNL     1       0.644   9.533  20.727  0.00  0.00    +0.000 A 
ATOM     20  C   UNL     1       0.755   8.938  22.000  0.00  0.00    +0.000 A 
ATOM     21  C   UNL     1       0.081   9.450  23.108  0.00  0.00    +0.000 A 
ATOM     22  C   UNL     1      -0.718  10.579  22.962  0.00  0.00    +0.000 A 
ATOM     23  C   UNL     1      -0.826  11.191  21.711  0.00  0.00    +0.000 A 
ATOM     24 CL   UNL     1      -1.820  12.594  21.560  0.00  0.00    +0.000 Cl
ATOM     25  C   UNL     1      -0.148  10.679  20.591  0.00  0.00    +0.000 A 
BRANCH  25  26
ATOM     26  O   UNL     1      -0.270  11.308  19.374  0.00  0.00    +0.000 OA
ATOM     27  H   UNL     1       0.105  12.206  19.480  0.00  0.00    +0.000 HD
ENDBRANCH  25  26
ENDBRANCH  16  19
ENDBRANCH   4  15
TORSDOF 4
ENDMDL
MODEL 6
REMARK VINA RESULT:      -6.9      2.141      2.359
REMARK  Name = 
REMARK  4 active torsions:
REMARK  status: ('A' for Active; 'I' for Inactive)
REMARK    1  A    between atoms: N_4  and  C_5
REMARK    2  A    between atoms: C_8  and  N_9
REMARK    3  A    between atoms: C_10  and  C_12
REMARK    4  A    between atoms: C_18  and  O_19
REMARK                            x       y       z     vdW  Elec       q    Type
REMARK                         _______ _______ _______ _____ _____    ______ ____
ROOT
ATOM      1  C   UNL     1       3.324   4.310  19.262  0.00  0.00    +0.000 A 
ATOM      2  C   UNL     1       3.655   5.356  18.396  0.00  0.00    +0.000 A 
ATOM      3  C   UNL     1       3.107   6.630  18.554  0.00  0.00    +0.000 A 
ATOM      4  C   UNL     1       2.189   6.903  19.566  0.00  0.00    +0.000 A 
ATOM      5  C   UNL     1       1.873   5.873  20.460  0.00  0.00    +0.000 A 
ATOM      6  C   UNL     1       2.437   4.592  20.306  0.00  0.00    +0.000 A 
ENDROOT
BRANCH   1  10
ATOM      7  N   UNL     1       2.241   1.965  17.700  0.00  0.00    +0.000 NA
ATOM      8  C   UNL     1       3.363   2.002  18.326  0.00  0.00    +0.000 C 
ATOM      9  N   UNL     1       4.166   0.911  18.379  0.00  0.00    +0.000 N 
ATOM     10  N   UNL     1       3.892   3.046  19.017  0.00  0.00    +0.000 N 
ATOM     11  H   UNL     1       2.084   1.033  17.324  0.00  0.00    +0.000 HD
ATOM     12  H   UNL     1       3.952   0.193  17.699  0.00  0.00    +0.000 HD
ATOM     13  H   UNL     1       5.157   1.121  18.379  0.00  0.00    +0.000 HD
ATOM     14  H   UNL     1       4.596   2.791  19.695  0.00  0.00    +0.000 HD
ENDBRANCH   1  10
BRANCH   4  15
ATOM     15  N   UNL     1       1.561   8.163  19.716  0.00  0.00    +0.000 N 
ATOM     16  C   UNL     1       1.278   8.789  20.919  0.00  0.00    +0.000 C 
ATOM     17  O   UNL     1       1.544   8.345  22.033  0.00  0.00    +0.000 OA
ATOM     18  H   UNL     1       1.339   8.680  18.867  0.00  0.00    +0.000 HD
BRANCH  16  19
ATOM     19  C   UNL     1       0.600  10.122  20.877  0.00  0.00    +0.000 A 
ATOM     20  C   UNL     1       0.548  10.746  19.614  0.00  0.00    +0.000 A 
ATOM     21  C   UNL     1      -0.028  12.004  19.442  0.00  0.00    +0.000 A 
ATOM     22  C   UNL     1      -0.571  12.664  20.539  0.00  0.00    +0.000 A 
ATOM     23  C   UNL     1      -0.543  12.054  21.795  0.00  0.00    +0.000 A 
ATOM     24 CL   UNL     1      -1.230  12.894  23.138  0.00  0.00    +0.000 Cl
ATOM     25  C   UNL     1       0.036  10.785  21.974  0.00  0.00    +0.000 A 
BRANCH  25  26
ATOM     26  O   UNL     1       0.042  10.208  23.222  0.00  0.00    +0.000 OA
ATOM     27  H   UNL     1       0.663   9.453  23.182  0.00  0.00    +0.000 HD
ENDBRANCH  25  26
ENDBRANCH  16  19
ENDBRANCH   4  15
TORSDOF 4
ENDMDL
MODEL 7
REMARK VINA RESULT:      -6.9      1.867      2.245
REMARK  Name = 
REMARK  4 active torsions:
REMARK  status: ('A' for Active; 'I' for Inactive)
REMARK    1  A    between atoms: N_4  and  C_5
REMARK    2  A    between atoms: C_8  and  N_9
REMARK    3  A    between atoms: C_10  and  C_12
REMARK    4  A    between atoms: C_18  and  O_19
REMARK                            x       y       z     vdW  Elec       q    Type
REMARK                         _______ _______ _______ _____ _____    ______ ____
ROOT
ATOM      1  C   UNL     1       3.306   3.943  19.563  0.00  0.00    +0.000 A 
ATOM      2  C   UNL     1       3.731   5.125  18.950  0.00  0.00    +0.000 A 
ATOM      3  C   UNL     1       3.208   6.364  19.324  0.00  0.00    +0.000 A 
ATOM      4  C   UNL     1       2.224   6.469  20.304  0.00  0.00    +0.000 A 
ATOM      5  C   UNL     1       1.813   5.296  20.949  0.00  0.00    +0.000 A 
ATOM      6  C   UNL     1       2.351   4.049  20.578  0.00  0.00    +0.000 A 
ENDROOT
BRANCH   1  10
ATOM      7  N   UNL     1       2.176   1.897  17.652  0.00  0.00    +0.000 NA
ATOM      8  C   UNL     1       3.305   1.818  18.262  0.00  0.00    +0.000 C 
ATOM      9  N   UNL     1       4.094   0.725  18.125  0.00  0.00    +0.000 N 
ATOM     10  N   UNL     1       3.855   2.729  19.106  0.00  0.00    +0.000 N 
ATOM     11  H   UNL     1       2.002   1.040  17.130  0.00  0.00    +0.000 HD
ATOM     12  H   UNL     1       3.864   0.130  17.339  0.00  0.00    +0.000 HD
ATOM     13  H   UNL     1       5.088   0.921  18.146  0.00  0.00    +0.000 HD
ATOM     14  H   UNL     1       4.563   2.360  19.725  0.00  0.00    +0.000 HD
ENDBRANCH   1  10
BRANCH   4  15
ATOM     15  N   UNL     1       1.623   7.699  20.663  0.00  0.00    +0.000 N 
ATOM     16  C   UNL     1       1.347   8.748  19.801  0.00  0.00    +0.000 C 
ATOM     17  O   UNL     1       1.574   8.757  18.594  0.00  0.00    +0.000 OA
ATOM     18  H   UNL     1       1.321   7.809  21.630  0.00  0.00    +0.000 HD
BRANCH  16  19
ATOM     19  C   UNL     1       0.712   9.979  20.369  0.00  0.00    +0.000 A 
ATOM     20  C   UNL     1       1.057  11.194  19.743  0.00  0.00    +0.000 A 
ATOM     21  C   UNL     1       0.562  12.416  20.193  0.00  0.00    +0.000 A 
ATOM     22  C   UNL     1      -0.299  12.445  21.285  0.00  0.00    +0.000 A 
ATOM     23  C   UNL     1      -0.665  11.250  21.908  0.00  0.00    +0.000 A 
ATOM     24 CL   UNL     1      -1.740  11.316  23.257  0.00  0.00    +0.000 Cl
ATOM     25  C   UNL     1      -0.169  10.014  21.457  0.00  0.00    +0.000 A 
BRANCH  25  26
ATOM     26  O   UNL     1      -0.552   8.855  22.087  0.00  0.00    +0.000 OA
ATOM     27  H   UNL     1      -1.487   8.693  21.842  0.00  0.00    +0.000 HD
ENDBRANCH  25  26
ENDBRANCH  16  19
ENDBRANCH   4  15
TORSDOF 4
ENDMDL
MODEL 8
REMARK VINA RESULT:      -6.9      1.623      2.077
REMARK  Name = 
REMARK  4 active torsions:
REMARK  status: ('A' for Active; 'I' for Inactive)
REMARK    1  A    between atoms: N_4  and  C_5
REMARK    2  A    between atoms: C_8  and  N_9
REMARK    3  A    between atoms: C_10  and  C_12
REMARK    4  A    between atoms: C_18  and  O_19
REMARK                            x       y       z     vdW  Elec       q    Type
REMARK                         _______ _______ _______ _____ _____    ______ ____
ROOT
ATOM      1  C   UNL     1       2.646   4.196  19.083  0.00  0.00    +0.000 A 
ATOM      2  C   UNL     1       3.160   5.225  18.289  0.00  0.00    +0.000 A 
ATOM      3  C   UNL     1       2.913   6.566  18.589  0.00  0.00    +0.000 A 
ATOM      4  C   UNL     1       2.123   6.931  19.677  0.00  0.00    +0.000 A 
ATOM      5  C   UNL     1       1.628   5.912  20.499  0.00  0.00    +0.000 A 
ATOM      6  C   UNL     1       1.889   4.561  20.201  0.00  0.00    +0.000 A 
ENDROOT
BRANCH   1  10
ATOM      7  N   UNL     1       4.926   2.370  19.842  0.00  0.00    +0.000 NA
ATOM      8  C   UNL     1       3.965   2.083  19.040  0.00  0.00    +0.000 C 
ATOM      9  N   UNL     1       3.927   0.891  18.397  0.00  0.00    +0.000 N 
ATOM     10  N   UNL     1       2.911   2.869  18.696  0.00  0.00    +0.000 N 
ATOM     11  H   UNL     1       5.601   1.609  19.863  0.00  0.00    +0.000 HD
ATOM     12  H   UNL     1       4.535   0.180  18.784  0.00  0.00    +0.000 HD
ATOM     13  H   UNL     1       2.994   0.522  18.252  0.00  0.00    +0.000 HD
ATOM     14  H   UNL     1       2.456   2.613  17.831  0.00  0.00    +0.000 HD
ENDBRANCH   1  10
BRANCH   4  15
ATOM     15  N   UNL     1       1.795   8.276  19.973  0.00  0.00    +0.000 N 
ATOM     16  C   UNL     1       1.323   9.214  19.069  0.00  0.00    +0.000 C 
ATOM     17  O   UNL     1       1.110   9.009  17.877  0.00  0.00    +0.000 OA
ATOM     18  H   UNL     1       1.864   8.571  20.945  0.00  0.00    +0.000 HD
BRANCH  16  19
ATOM     19  C   UNL     1       1.039  10.595  19.570  0.00  0.00    +0.000 A 
ATOM     20  C   UNL     1       1.563  11.650  18.795  0.00  0.00    +0.000 A 
ATOM     21  C   UNL     1       1.397  12.983  19.167  0.00  0.00    +0.000 A 
ATOM     22  C   UNL     1       0.695  13.288  20.328  0.00  0.00    +0.000 A 
ATOM     23  C   UNL     1       0.155  12.256  21.099  0.00  0.00    +0.000 A 
ATOM     24 CL   UNL     1      -0.717  12.664  22.532  0.00  0.00    +0.000 Cl
ATOM     25  C   UNL     1       0.318  10.910  20.728  0.00  0.00    +0.000 A 
BRANCH  25  26
ATOM     26  O   UNL     1      -0.230   9.917  21.505  0.00  0.00    +0.000 OA
ATOM     27  H   UNL     1       0.041  10.096  22.429  0.00  0.00    +0.000 HD
ENDBRANCH  25  26
ENDBRANCH  16  19
ENDBRANCH   4  15
TORSDOF 4
ENDMDL
MODEL 9
REMARK VINA RESULT:      -6.9      1.102      1.673
REMARK  Name = 
REMARK  4 active torsions:
REMARK  status: ('A' for Active; 'I' for Inactive)
REMARK    1  A    between atoms: N_4  and  C_5
REMARK    2  A    between atoms: C_8  and  N_9
REMARK    3  A    between atoms: C_10  and  C_12
REMARK    4  A    between atoms: C_18  and  O_19
REMARK                            x       y       z     vdW  Elec       q    Type
REMARK                         _______ _______ _______ _____ _____    ______ ____
ROOT
ATOM      1  C   UNL     1       2.609   4.548  18.952  0.00  0.00    +0.000 A 
ATOM      2  C   UNL     1       1.979   4.942  20.136  0.00  0.00    +0.000 A 
ATOM      3  C   UNL     1       1.709   6.285  20.401  0.00  0.00    +0.000 A 
ATOM      4  C   UNL     1       2.080   7.289  19.509  0.00  0.00    +0.000 A 
ATOM      5  C   UNL     1       2.683   6.906  18.305  0.00  0.00    +0.000 A 
ATOM      6  C   UNL     1       2.943   5.549  18.034  0.00  0.00    +0.000 A 
ENDROOT
BRANCH   1  10
ATOM      7  N   UNL     1       5.179   3.009  19.327  0.00  0.00    +0.000 NA
ATOM      8  C   UNL     1       4.058   2.522  18.928  0.00  0.00    +0.000 C 
ATOM      9  N   UNL     1       3.952   1.217  18.576  0.00  0.00    +0.000 N 
ATOM     10  N   UNL     1       2.878   3.178  18.773  0.00  0.00    +0.000 N 
ATOM     11  H   UNL     1       5.901   2.292  19.291  0.00  0.00    +0.000 HD
ATOM     12  H   UNL     1       4.713   0.629  18.892  0.00  0.00    +0.000 HD
ATOM     13  H   UNL     1       3.058   0.795  18.797  0.00  0.00    +0.000 HD
ATOM     14  H   UNL     1       2.220   2.724  18.156  0.00  0.00    +0.000 HD
ENDBRANCH   1  10
BRANCH   4  15
ATOM     15  N   UNL     1       1.884   8.666  19.774  0.00  0.00    +0.000 N 
ATOM     16  C   UNL     1       1.290   9.579  18.918  0.00  0.00    +0.000 C 
ATOM     17  O   UNL     1       0.836   9.322  17.806  0.00  0.00    +0.000 OA
ATOM     18  H   UNL     1       2.158   9.010  20.692  0.00  0.00    +0.000 HD
BRANCH  16  19
ATOM     19  C   UNL     1       1.178  11.001  19.372  0.00  0.00    +0.000 A 
ATOM     20  C   UNL     1       0.456  11.210  20.565  0.00  0.00    +0.000 A 
ATOM     21  C   UNL     1       0.250  12.488  21.082  0.00  0.00    +0.000 A 
ATOM     22  C   UNL     1       0.770  13.589  20.411  0.00  0.00    +0.000 A 
ATOM     23  C   UNL     1       1.502  13.400  19.236  0.00  0.00    +0.000 A 
ATOM     24 CL   UNL     1       2.141  14.785  18.428  0.00  0.00    +0.000 Cl
ATOM     25  C   UNL     1       1.714  12.113  18.712  0.00  0.00    +0.000 A 
BRANCH  25  26
ATOM     26  O   UNL     1       2.443  11.959  17.557  0.00  0.00    +0.000 OA
ATOM     27  H   UNL     1       2.525  12.846  17.151  0.00  0.00    +0.000 HD
ENDBRANCH  25  26
ENDBRANCH  16  19
ENDBRANCH   4  15
TORSDOF 4
ENDMDL
