MODEL 1
REMARK VINA RESULT:      -6.5      0.000      0.000
REMARK  Name = 
REMARK  10 active torsions:
REMARK  status: ('A' for Active; 'I' for Inactive)
REMARK    1  A    between atoms: C_1  and  C_2
REMARK    2  A    between atoms: C_2  and  N_3
REMARK    3  A    between atoms: C_7  and  C_8
REMARK    4  A    between atoms: C_9  and  C_10
REMARK    5  A    between atoms: C_10  and  C_11
REMARK    6  A    between atoms: C_10  and  C_15
REMARK    7  A    between atoms: C_11  and  C_12
REMARK    8  A    between atoms: C_12  and  O_14
REMARK    9  A    between atoms: C_23  and  C_25
REMARK   10  A    between atoms: C_30  and  C_31
REMARK                            x       y       z     vdW  Elec       q    Type
REMARK                         _______ _______ _______ _____ _____    ______ ____
ROOT
ATOM      1  C   UNL     1      -0.078  13.530  19.326  0.00  0.00    +0.000 A 
ATOM      2  C   UNL     1       1.181  13.611  19.963  0.00  0.00    +0.000 A 
ATOM      3  C   UNL     1       1.893  14.851  20.093  0.00  0.00    +0.000 A 
ATOM      4  C   UNL     1       1.241  16.039  19.773  0.00  0.00    +0.000 A 
ATOM      5  C   UNL     1       0.070  15.911  19.018  0.00  0.00    +0.000 A 
ATOM      6  C   UNL     1      -0.427  14.668  18.608  0.00  0.00    +0.000 A 
ATOM      7  C   UNL     1      -0.953  17.019  19.096  0.00  0.00    +0.000 C 
ATOM      8  N   UNL     1      -1.008  17.390  20.511  0.00  0.00    +0.000 N 
ATOM      9  C   UNL     1      -2.072  16.786  21.197  0.00  0.00    +0.000 C 
ATOM     10  O   UNL     1      -3.055  16.429  20.526  0.00  0.00    +0.000 OA
ATOM     11  C   UNL     1       0.218  18.119  20.901  0.00  0.00    +0.000 C 
ATOM     12  C   UNL     1       1.536  17.408  20.391  0.00  0.00    +0.000 C 
ENDROOT
BRANCH   9  13
ATOM     13  C   UNL     1      -2.228  16.418  22.658  0.00  0.00    +0.000 A 
ATOM     14  C   UNL     1      -3.560  16.607  23.140  0.00  0.00    +0.000 A 
ATOM     15  C   UNL     1      -4.028  16.072  24.345  0.00  0.00    +0.000 A 
ATOM     16  C   UNL     1      -3.150  15.398  25.167  0.00  0.00    +0.000 A 
ATOM     17  C   UNL     1      -1.834  15.211  24.748  0.00  0.00    +0.000 A 
ATOM     18  C   UNL     1      -1.379  15.651  23.475  0.00  0.00    +0.000 A 
ATOM     19  C   UNL     1      -0.099  15.046  23.004  0.00  0.00    +0.000 C 
ENDBRANCH   9  13
BRANCH   1  20
ATOM     20  C   UNL     1      -1.239  12.457  19.437  0.00  0.00    +0.000 C 
BRANCH  20  27
ATOM     21  N   UNL     1      -5.333  12.803  23.288  0.00  0.00    +0.000 N 
ATOM     22  N   UNL     1      -4.744  12.309  24.390  0.00  0.00    +0.000 NA
ATOM     23  N   UNL     1      -3.487  12.011  24.064  0.00  0.00    +0.000 NA
ATOM     24  C   UNL     1      -3.286  12.326  22.735  0.00  0.00    +0.000 A 
ATOM     25  C   UNL     1      -2.155  12.201  21.893  0.00  0.00    +0.000 A 
ATOM     26  C   UNL     1      -0.909  11.553  22.452  0.00  0.00    +0.000 C 
ATOM     27  C   UNL     1      -2.307  12.623  20.517  0.00  0.00    +0.000 A 
ATOM     28  C   UNL     1      -3.537  13.124  20.081  0.00  0.00    +0.000 A 
ATOM     29  C   UNL     1      -4.635  13.256  20.916  0.00  0.00    +0.000 A 
ATOM     30  C   UNL     1      -4.465  12.851  22.230  0.00  0.00    +0.000 A 
BRANCH  21  32
ATOM     31  C   UNL     1      -7.096  14.541  23.837  0.00  0.00    +0.000 C 
ATOM     32  C   UNL     1      -6.717  13.219  23.208  0.00  0.00    +0.000 C 
ENDBRANCH  21  32
ENDBRANCH  20  27
BRANCH  20  33
ATOM     33  C   UNL     1      -1.827  11.887  18.115  0.00  0.00    +0.000 C 
BRANCH  33  34
ATOM     34  C   UNL     1      -1.782  10.413  17.841  0.00  0.00    +0.000 C 
ATOM     35  O   UNL     1      -2.722   9.639  17.903  0.00  0.00    +0.000 OA
BRANCH  34  36
ATOM     36  O   UNL     1      -0.510   9.950  17.562  0.00  0.00    +0.000 OA
ATOM     37  H   UNL     1      -0.160  10.298  16.739  0.00  0.00    +0.000 HD
ENDBRANCH  34  36
ENDBRANCH  33  34
ENDBRANCH  20  33
ENDBRANCH   1  20
TORSDOF 7
ENDMDL
MODEL 2
REMARK VINA RESULT:      -6.3      4.479      7.178
REMARK  Name = 
REMARK  10 active torsions:
REMARK  status: ('A' for Active; 'I' for Inactive)
REMARK    1  A    between atoms: C_1  and  C_2
REMARK    2  A    between atoms: C_2  and  N_3
REMARK    3  A    between atoms: C_7  and  C_8
REMARK    4  A    between atoms: C_9  and  C_10
REMARK    5  A    between atoms: C_10  and  C_11
REMARK    6  A    between atoms: C_10  and  C_15
REMARK    7  A    between atoms: C_11  and  C_12
REMARK    8  A    between atoms: C_12  and  O_14
REMARK    9  A    between atoms: C_23  and  C_25
REMARK   10  A    between atoms: C_30  and  C_31
REMARK                            x       y       z     vdW  Elec       q    Type
REMARK                         _______ _______ _______ _____ _____    ______ ____
ROOT
ATOM      1  C   UNL     1      -0.496  11.126  19.690  0.00  0.00    +0.000 A 
ATOM      2  C   UNL     1      -1.543  11.453  18.798  0.00  0.00    +0.000 A 
ATOM      3  C   UNL     1      -2.738  12.117  19.235  0.00  0.00    +0.000 A 
ATOM      4  C   UNL     1      -2.787  12.640  20.524  0.00  0.00    +0.000 A 
ATOM      5  C   UNL     1      -1.809  12.176  21.411  0.00  0.00    +0.000 A 
ATOM      6  C   UNL     1      -0.835  11.244  21.034  0.00  0.00    +0.000 A 
ATOM      7  C   UNL     1      -1.445  13.046  22.590  0.00  0.00    +0.000 C 
ATOM      8  N   UNL     1      -1.389  14.409  22.057  0.00  0.00    +0.000 N 
ATOM      9  C   UNL     1      -0.086  14.825  21.747  0.00  0.00    +0.000 C 
ATOM     10  O   UNL     1       0.850  14.265  22.345  0.00  0.00    +0.000 OA
ATOM     11  C   UNL     1      -2.750  14.902  21.761  0.00  0.00    +0.000 C 
ATOM     12  C   UNL     1      -3.618  13.849  20.962  0.00  0.00    +0.000 C 
ENDROOT
BRANCH   9  13
ATOM     13  C   UNL     1       0.419  15.831  20.735  0.00  0.00    +0.000 A 
ATOM     14  C   UNL     1       1.419  16.703  21.267  0.00  0.00    +0.000 A 
ATOM     15  C   UNL     1       2.242  17.509  20.474  0.00  0.00    +0.000 A 
ATOM     16  C   UNL     1       2.037  17.543  19.111  0.00  0.00    +0.000 A 
ATOM     17  C   UNL     1       1.056  16.728  18.550  0.00  0.00    +0.000 A 
ATOM     18  C   UNL     1       0.291  15.821  19.335  0.00  0.00    +0.000 A 
ATOM     19  C   UNL     1      -0.417  14.751  18.575  0.00  0.00    +0.000 C 
ENDBRANCH   9  13
BRANCH   1  20
ATOM     20  C   UNL     1       1.041  10.834  19.437  0.00  0.00    +0.000 C 
BRANCH  20  27
ATOM     21  N   UNL     1       3.038   5.639  18.575  0.00  0.00    +0.000 N 
ATOM     22  N   UNL     1       2.816   5.038  19.756  0.00  0.00    +0.000 NA
ATOM     23  N   UNL     1       2.210   5.927  20.543  0.00  0.00    +0.000 NA
ATOM     24  C   UNL     1       2.049   7.104  19.840  0.00  0.00    +0.000 A 
ATOM     25  C   UNL     1       1.484   8.352  20.199  0.00  0.00    +0.000 A 
ATOM     26  C   UNL     1       1.001   8.541  21.618  0.00  0.00    +0.000 C 
ATOM     27  C   UNL     1       1.496   9.396  19.196  0.00  0.00    +0.000 A 
ATOM     28  C   UNL     1       2.054   9.139  17.940  0.00  0.00    +0.000 A 
ATOM     29  C   UNL     1       2.593   7.910  17.592  0.00  0.00    +0.000 A 
ATOM     30  C   UNL     1       2.565   6.924  18.566  0.00  0.00    +0.000 A 
BRANCH  21  32
ATOM     31  C   UNL     1       3.757   3.514  17.392  0.00  0.00    +0.000 C 
ATOM     32  C   UNL     1       3.709   5.025  17.450  0.00  0.00    +0.000 C 
ENDBRANCH  21  32
ENDBRANCH  20  27
BRANCH  20  33
ATOM     33  C   UNL     1       1.838  11.853  18.575  0.00  0.00    +0.000 C 
BRANCH  33  34
ATOM     34  C   UNL     1       2.556  12.998  19.226  0.00  0.00    +0.000 C 
ATOM     35  O   UNL     1       3.193  13.867  18.657  0.00  0.00    +0.000 OA
BRANCH  34  36
ATOM     36  O   UNL     1       2.501  12.959  20.607  0.00  0.00    +0.000 OA
ATOM     37  H   UNL     1       1.639  13.202  20.951  0.00  0.00    +0.000 HD
ENDBRANCH  34  36
ENDBRANCH  33  34
ENDBRANCH  20  33
ENDBRANCH   1  20
TORSDOF 7
ENDMDL
MODEL 3
REMARK VINA RESULT:      -6.3      2.986      6.521
REMARK  Name = 
REMARK  10 active torsions:
REMARK  status: ('A' for Active; 'I' for Inactive)
REMARK    1  A    between atoms: C_1  and  C_2
REMARK    2  A    between atoms: C_2  and  N_3
REMARK    3  A    between atoms: C_7  and  C_8
REMARK    4  A    between atoms: C_9  and  C_10
REMARK    5  A    between atoms: C_10  and  C_11
REMARK    6  A    between atoms: C_10  and  C_15
REMARK    7  A    between atoms: C_11  and  C_12
REMARK    8  A    between atoms: C_12  and  O_14
REMARK    9  A    between atoms: C_23  and  C_25
REMARK   10  A    between atoms: C_30  and  C_31
REMARK                            x       y       z     vdW  Elec       q    Type
REMARK                         _______ _______ _______ _____ _____    ______ ____
ROOT
ATOM      1  C   UNL     1      -2.712  13.511  23.099  0.00  0.00    +0.000 A 
ATOM      2  C   UNL     1      -3.302  12.427  23.789  0.00  0.00    +0.000 A 
ATOM      3  C   UNL     1      -4.612  12.514  24.371  0.00  0.00    +0.000 A 
ATOM      4  C   UNL     1      -5.410  13.616  24.074  0.00  0.00    +0.000 A 
ATOM      5  C   UNL     1      -4.750  14.718  23.520  0.00  0.00    +0.000 A 
ATOM      6  C   UNL     1      -3.372  14.723  23.272  0.00  0.00    +0.000 A 
ATOM      7  C   UNL     1      -5.556  15.688  22.689  0.00  0.00    +0.000 C 
ATOM      8  N   UNL     1      -6.437  14.851  21.872  0.00  0.00    +0.000 N 
ATOM      9  C   UNL     1      -5.944  14.636  20.576  0.00  0.00    +0.000 C 
ATOM     10  O   UNL     1      -5.152  15.478  20.118  0.00  0.00    +0.000 OA
ATOM     11  C   UNL     1      -7.500  14.254  22.706  0.00  0.00    +0.000 C 
ATOM     12  C   UNL     1      -6.940  13.622  24.044  0.00  0.00    +0.000 C 
ENDROOT
BRANCH   9  13
ATOM     13  C   UNL     1      -6.161  13.490  19.610  0.00  0.00    +0.000 A 
ATOM     14  C   UNL     1      -6.238  12.220  20.261  0.00  0.00    +0.000 A 
ATOM     15  C   UNL     1      -6.720  11.063  19.641  0.00  0.00    +0.000 A 
ATOM     16  C   UNL     1      -7.063  11.108  18.307  0.00  0.00    +0.000 A 
ATOM     17  C   UNL     1      -6.980  12.320  17.624  0.00  0.00    +0.000 A 
ATOM     18  C   UNL     1      -6.600  13.526  18.275  0.00  0.00    +0.000 A 
ATOM     19  C   UNL     1      -6.935  14.784  17.547  0.00  0.00    +0.000 C 
ENDBRANCH   9  13
BRANCH   1  20
ATOM     20  C   UNL     1      -1.553  13.556  22.020  0.00  0.00    +0.000 C 
BRANCH  20  27
ATOM     21  N   UNL     1      -1.613  10.143  17.540  0.00  0.00    +0.000 N 
ATOM     22  N   UNL     1      -0.360   9.659  17.522  0.00  0.00    +0.000 NA
ATOM     23  N   UNL     1       0.278  10.178  18.570  0.00  0.00    +0.000 NA
ATOM     24  C   UNL     1      -0.592  11.000  19.258  0.00  0.00    +0.000 A 
ATOM     25  C   UNL     1      -0.428  11.793  20.419  0.00  0.00    +0.000 A 
ATOM     26  C   UNL     1       0.941  11.863  21.055  0.00  0.00    +0.000 C 
ATOM     27  C   UNL     1      -1.574  12.559  20.862  0.00  0.00    +0.000 A 
ATOM     28  C   UNL     1      -2.770  12.492  20.142  0.00  0.00    +0.000 A 
ATOM     29  C   UNL     1      -2.925  11.701  19.013  0.00  0.00    +0.000 A 
ATOM     30  C   UNL     1      -1.818  10.972  18.611  0.00  0.00    +0.000 A 
BRANCH  21  32
ATOM     31  C   UNL     1      -2.856  10.862  15.450  0.00  0.00    +0.000 C 
ATOM     32  C   UNL     1      -2.626   9.850  16.550  0.00  0.00    +0.000 C 
ENDBRANCH  21  32
ENDBRANCH  20  27
BRANCH  20  33
ATOM     33  C   UNL     1      -1.026  14.952  21.582  0.00  0.00    +0.000 C 
BRANCH  33  34
ATOM     34  C   UNL     1      -1.209  15.420  20.169  0.00  0.00    +0.000 C 
ATOM     35  O   UNL     1      -0.383  15.355  19.275  0.00  0.00    +0.000 OA
BRANCH  34  36
ATOM     36  O   UNL     1      -2.430  16.031  19.952  0.00  0.00    +0.000 OA
ATOM     37  H   UNL     1      -3.066  15.450  19.527  0.00  0.00    +0.000 HD
ENDBRANCH  34  36
ENDBRANCH  33  34
ENDBRANCH  20  33
ENDBRANCH   1  20
TORSDOF 7
ENDMDL
MODEL 4
REMARK VINA RESULT:      -6.2      4.362      6.992
REMARK  Name = 
REMARK  10 active torsions:
REMARK  status: ('A' for Active; 'I' for Inactive)
REMARK    1  A    between atoms: C_1  and  C_2
REMARK    2  A    between atoms: C_2  and  N_3
REMARK    3  A    between atoms: C_7  and  C_8
REMARK    4  A    between atoms: C_9  and  C_10
REMARK    5  A    between atoms: C_10  and  C_11
REMARK    6  A    between atoms: C_10  and  C_15
REMARK    7  A    between atoms: C_11  and  C_12
REMARK    8  A    between atoms: C_12  and  O_14
REMARK    9  A    between atoms: C_23  and  C_25
REMARK   10  A    between atoms: C_30  and  C_31
REMARK                            x       y       z     vdW  Elec       q    Type
REMARK                         _______ _______ _______ _____ _____    ______ ____
ROOT
ATOM      1  C   UNL     1      -0.742  11.284  19.927  0.00  0.00    +0.000 A 
ATOM      2  C   UNL     1      -1.771  11.521  18.986  0.00  0.00    +0.000 A 
ATOM      3  C   UNL     1      -3.009  12.149  19.350  0.00  0.00    +0.000 A 
ATOM      4  C   UNL     1      -3.125  12.731  20.610  0.00  0.00    +0.000 A 
ATOM      5  C   UNL     1      -2.160  12.354  21.550  0.00  0.00    +0.000 A 
ATOM      6  C   UNL     1      -1.133  11.451  21.252  0.00  0.00    +0.000 A 
ATOM      7  C   UNL     1      -1.876  13.295  22.697  0.00  0.00    +0.000 C 
ATOM      8  N   UNL     1      -1.861  14.632  22.099  0.00  0.00    +0.000 N 
ATOM      9  C   UNL     1      -0.567  15.092  21.812  0.00  0.00    +0.000 C 
ATOM     10  O   UNL     1       0.371  14.604  22.467  0.00  0.00    +0.000 OA
ATOM     11  C   UNL     1      -3.232  15.048  21.735  0.00  0.00    +0.000 C 
ATOM     12  C   UNL     1      -4.024  13.919  20.960  0.00  0.00    +0.000 C 
ENDROOT
BRANCH   9  13
ATOM     13  C   UNL     1      -0.072  16.071  20.769  0.00  0.00    +0.000 A 
ATOM     14  C   UNL     1      -0.425  15.692  19.437  0.00  0.00    +0.000 A 
ATOM     15  C   UNL     1      -0.347  16.558  18.342  0.00  0.00    +0.000 A 
ATOM     16  C   UNL     1       0.177  17.821  18.519  0.00  0.00    +0.000 A 
ATOM     17  C   UNL     1       0.559  18.225  19.797  0.00  0.00    +0.000 A 
ATOM     18  C   UNL     1       0.378  17.393  20.936  0.00  0.00    +0.000 A 
ATOM     19  C   UNL     1       0.450  18.083  22.256  0.00  0.00    +0.000 C 
ENDBRANCH   9  13
BRANCH   1  20
ATOM     20  C   UNL     1       0.813  11.051  19.739  0.00  0.00    +0.000 C 
BRANCH  20  27
ATOM     21  N   UNL     1       3.004   5.998  18.560  0.00  0.00    +0.000 N 
ATOM     22  N   UNL     1       2.831   5.326  19.711  0.00  0.00    +0.000 NA
ATOM     23  N   UNL     1       2.206   6.146  20.555  0.00  0.00    +0.000 NA
ATOM     24  C   UNL     1       1.981   7.351  19.920  0.00  0.00    +0.000 A 
ATOM     25  C   UNL     1       1.374   8.553  20.357  0.00  0.00    +0.000 A 
ATOM     26  C   UNL     1       0.913   8.645  21.793  0.00  0.00    +0.000 C 
ATOM     27  C   UNL     1       1.322   9.648  19.412  0.00  0.00    +0.000 A 
ATOM     28  C   UNL     1       1.864   9.482  18.134  0.00  0.00    +0.000 A 
ATOM     29  C   UNL     1       2.445   8.297  17.710  0.00  0.00    +0.000 A 
ATOM     30  C   UNL     1       2.478   7.260  18.629  0.00  0.00    +0.000 A 
BRANCH  21  32
ATOM     31  C   UNL     1       3.919   3.982  17.323  0.00  0.00    +0.000 C 
ATOM     32  C   UNL     1       3.675   5.474  17.391  0.00  0.00    +0.000 C 
ENDBRANCH  21  32
ENDBRANCH  20  27
BRANCH  20  33
ATOM     33  C   UNL     1       1.627  12.154  19.006  0.00  0.00    +0.000 C 
BRANCH  33  34
ATOM     34  C   UNL     1       2.287  13.253  19.786  0.00  0.00    +0.000 C 
ATOM     35  O   UNL     1       2.822  14.245  19.323  0.00  0.00    +0.000 OA
BRANCH  34  36
ATOM     36  O   UNL     1       2.308  13.016  21.148  0.00  0.00    +0.000 OA
ATOM     37  H   UNL     1       1.831  13.682  21.648  0.00  0.00    +0.000 HD
ENDBRANCH  34  36
ENDBRANCH  33  34
ENDBRANCH  20  33
ENDBRANCH   1  20
TORSDOF 7
ENDMDL
MODEL 5
REMARK VINA RESULT:      -6.0      1.217      1.364
REMARK  Name = 
REMARK  10 active torsions:
REMARK  status: ('A' for Active; 'I' for Inactive)
REMARK    1  A    between atoms: C_1  and  C_2
REMARK    2  A    between atoms: C_2  and  N_3
REMARK    3  A    between atoms: C_7  and  C_8
REMARK    4  A    between atoms: C_9  and  C_10
REMARK    5  A    between atoms: C_10  and  C_11
REMARK    6  A    between atoms: C_10  and  C_15
REMARK    7  A    between atoms: C_11  and  C_12
REMARK    8  A    between atoms: C_12  and  O_14
REMARK    9  A    between atoms: C_23  and  C_25
REMARK   10  A    between atoms: C_30  and  C_31
REMARK                            x       y       z     vdW  Elec       q    Type
REMARK                         _______ _______ _______ _____ _____    ______ ____
ROOT
ATOM      1  C   UNL     1       0.674  13.108  19.814  0.00  0.00    +0.000 A 
ATOM      2  C   UNL     1       1.847  13.465  20.518  0.00  0.00    +0.000 A 
ATOM      3  C   UNL     1       2.386  14.795  20.480  0.00  0.00    +0.000 A 
ATOM      4  C   UNL     1       1.626  15.814  19.909  0.00  0.00    +0.000 A 
ATOM      5  C   UNL     1       0.557  15.404  19.105  0.00  0.00    +0.000 A 
ATOM      6  C   UNL     1       0.257  14.055  18.884  0.00  0.00    +0.000 A 
ATOM      7  C   UNL     1      -0.597  16.359  18.912  0.00  0.00    +0.000 C 
ATOM      8  N   UNL     1      -0.832  16.947  20.233  0.00  0.00    +0.000 N 
ATOM      9  C   UNL     1      -1.874  16.322  20.935  0.00  0.00    +0.000 C 
ATOM     10  O   UNL     1      -2.738  15.729  20.266  0.00  0.00    +0.000 OA
ATOM     11  C   UNL     1       0.252  17.890  20.577  0.00  0.00    +0.000 C 
ATOM     12  C   UNL     1       1.690  17.293  20.297  0.00  0.00    +0.000 C 
ENDROOT
BRANCH   9  13
ATOM     13  C   UNL     1      -2.123  16.182  22.422  0.00  0.00    +0.000 A 
ATOM     14  C   UNL     1      -3.509  16.246  22.763  0.00  0.00    +0.000 A 
ATOM     15  C   UNL     1      -4.017  15.854  24.006  0.00  0.00    +0.000 A 
ATOM     16  C   UNL     1      -3.141  15.464  24.997  0.00  0.00    +0.000 A 
ATOM     17  C   UNL     1      -1.777  15.410  24.717  0.00  0.00    +0.000 A 
ATOM     18  C   UNL     1      -1.262  15.697  23.423  0.00  0.00    +0.000 A 
ATOM     19  C   UNL     1       0.127  15.221  23.163  0.00  0.00    +0.000 C 
ENDBRANCH   9  13
BRANCH   1  20
ATOM     20  C   UNL     1      -0.351  11.919  20.027  0.00  0.00    +0.000 C 
BRANCH  20  27
ATOM     21  N   UNL     1      -5.551  12.727  22.036  0.00  0.00    +0.000 N 
ATOM     22  N   UNL     1      -5.377  12.600  23.362  0.00  0.00    +0.000 NA
ATOM     23  N   UNL     1      -4.079  12.382  23.570  0.00  0.00    +0.000 NA
ATOM     24  C   UNL     1      -3.429  12.375  22.353  0.00  0.00    +0.000 A 
ATOM     25  C   UNL     1      -2.070  12.179  22.006  0.00  0.00    +0.000 A 
ATOM     26  C   UNL     1      -1.088  11.847  23.104  0.00  0.00    +0.000 C 
ATOM     27  C   UNL     1      -1.736  12.222  20.598  0.00  0.00    +0.000 A 
ATOM     28  C   UNL     1      -2.744  12.446  19.656  0.00  0.00    +0.000 A 
ATOM     29  C   UNL     1      -4.070  12.650  20.006  0.00  0.00    +0.000 A 
ATOM     30  C   UNL     1      -4.366  12.612  21.358  0.00  0.00    +0.000 A 
BRANCH  21  32
ATOM     31  C   UNL     1      -7.916  11.916  21.612  0.00  0.00    +0.000 C 
ATOM     32  C   UNL     1      -6.826  12.940  21.386  0.00  0.00    +0.000 C 
ENDBRANCH  21  32
ENDBRANCH  20  27
BRANCH  20  33
ATOM     33  C   UNL     1      -0.394  10.799  18.950  0.00  0.00    +0.000 C 
BRANCH  33  34
ATOM     34  C   UNL     1       0.819   9.959  18.682  0.00  0.00    +0.000 C 
ATOM     35  O   UNL     1       1.292   9.117  19.425  0.00  0.00    +0.000 OA
BRANCH  34  36
ATOM     36  O   UNL     1       1.445  10.272  17.490  0.00  0.00    +0.000 OA
ATOM     37  H   UNL     1       2.398  10.161  17.530  0.00  0.00    +0.000 HD
ENDBRANCH  34  36
ENDBRANCH  33  34
ENDBRANCH  20  33
ENDBRANCH   1  20
TORSDOF 7
ENDMDL
MODEL 6
REMARK VINA RESULT:      -6.0      2.526      6.055
REMARK  Name = 
REMARK  10 active torsions:
REMARK  status: ('A' for Active; 'I' for Inactive)
REMARK    1  A    between atoms: C_1  and  C_2
REMARK    2  A    between atoms: C_2  and  N_3
REMARK    3  A    between atoms: C_7  and  C_8
REMARK    4  A    between atoms: C_9  and  C_10
REMARK    5  A    between atoms: C_10  and  C_11
REMARK    6  A    between atoms: C_10  and  C_15
REMARK    7  A    between atoms: C_11  and  C_12
REMARK    8  A    between atoms: C_12  and  O_14
REMARK    9  A    between atoms: C_23  and  C_25
REMARK   10  A    between atoms: C_30  and  C_31
REMARK                            x       y       z     vdW  Elec       q    Type
REMARK                         _______ _______ _______ _____ _____    ______ ____
ROOT
ATOM      1  C   UNL     1      -3.172  12.437  22.498  0.00  0.00    +0.000 A 
ATOM      2  C   UNL     1      -4.189  12.993  21.688  0.00  0.00    +0.000 A 
ATOM      3  C   UNL     1      -5.115  13.969  22.188  0.00  0.00    +0.000 A 
ATOM      4  C   UNL     1      -4.882  14.542  23.436  0.00  0.00    +0.000 A 
ATOM      5  C   UNL     1      -3.968  13.872  24.257  0.00  0.00    +0.000 A 
ATOM      6  C   UNL     1      -3.318  12.699  23.856  0.00  0.00    +0.000 A 
ATOM      7  C   UNL     1      -3.262  14.663  25.332  0.00  0.00    +0.000 C 
ATOM      8  N   UNL     1      -2.912  15.938  24.700  0.00  0.00    +0.000 N 
ATOM      9  C   UNL     1      -1.587  15.977  24.239  0.00  0.00    +0.000 C 
ATOM     10  O   UNL     1      -0.770  15.215  24.784  0.00  0.00    +0.000 OA
ATOM     11  C   UNL     1      -4.121  16.763  24.501  0.00  0.00    +0.000 C 
ATOM     12  C   UNL     1      -5.317  15.946  23.864  0.00  0.00    +0.000 C 
ENDROOT
BRANCH   9  13
ATOM     13  C   UNL     1      -0.952  16.768  23.115  0.00  0.00    +0.000 A 
ATOM     14  C   UNL     1       0.344  17.268  23.448  0.00  0.00    +0.000 A 
ATOM     15  C   UNL     1       1.247  17.765  22.503  0.00  0.00    +0.000 A 
ATOM     16  C   UNL     1       0.853  17.867  21.186  0.00  0.00    +0.000 A 
ATOM     17  C   UNL     1      -0.413  17.414  20.818  0.00  0.00    +0.000 A 
ATOM     18  C   UNL     1      -1.295  16.803  21.751  0.00  0.00    +0.000 A 
ATOM     19  C   UNL     1      -2.418  16.021  21.159  0.00  0.00    +0.000 C 
ENDBRANCH   9  13
BRANCH   1  20
ATOM     20  C   UNL     1      -1.803  11.735  22.121  0.00  0.00    +0.000 C 
BRANCH  20  27
ATOM     21  N   UNL     1       2.320  14.450  19.409  0.00  0.00    +0.000 N 
ATOM     22  N   UNL     1       2.207  13.980  18.155  0.00  0.00    +0.000 NA
ATOM     23  N   UNL     1       1.174  13.139  18.141  0.00  0.00    +0.000 NA
ATOM     24  C   UNL     1       0.629  13.083  19.408  0.00  0.00    +0.000 A 
ATOM     25  C   UNL     1      -0.459  12.350  19.941  0.00  0.00    +0.000 A 
ATOM     26  C   UNL     1      -1.176  11.371  19.040  0.00  0.00    +0.000 C 
ATOM     27  C   UNL     1      -0.748  12.525  21.348  0.00  0.00    +0.000 A 
ATOM     28  C   UNL     1       0.041  13.390  22.112  0.00  0.00    +0.000 A 
ATOM     29  C   UNL     1       1.096  14.115  21.579  0.00  0.00    +0.000 A 
ATOM     30  C   UNL     1       1.351  13.936  20.229  0.00  0.00    +0.000 A 
BRANCH  21  32
ATOM     31  C   UNL     1       3.614  16.594  19.011  0.00  0.00    +0.000 C 
ATOM     32  C   UNL     1       3.343  15.369  19.857  0.00  0.00    +0.000 C 
ENDBRANCH  21  32
ENDBRANCH  20  27
BRANCH  20  33
ATOM     33  C   UNL     1      -1.166  10.779  23.169  0.00  0.00    +0.000 C 
BRANCH  33  34
ATOM     34  C   UNL     1      -0.237   9.686  22.731  0.00  0.00    +0.000 C 
ATOM     35  O   UNL     1      -0.453   8.863  21.859  0.00  0.00    +0.000 OA
BRANCH  34  36
ATOM     36  O   UNL     1       0.925   9.628  23.477  0.00  0.00    +0.000 OA
ATOM     37  H   UNL     1       0.935   8.892  24.094  0.00  0.00    +0.000 HD
ENDBRANCH  34  36
ENDBRANCH  33  34
ENDBRANCH  20  33
ENDBRANCH   1  20
TORSDOF 7
ENDMDL
MODEL 7
REMARK VINA RESULT:      -5.9      0.627      1.207
REMARK  Name = 
REMARK  10 active torsions:
REMARK  status: ('A' for Active; 'I' for Inactive)
REMARK    1  A    between atoms: C_1  and  C_2
REMARK    2  A    between atoms: C_2  and  N_3
REMARK    3  A    between atoms: C_7  and  C_8
REMARK    4  A    between atoms: C_9  and  C_10
REMARK    5  A    between atoms: C_10  and  C_11
REMARK    6  A    between atoms: C_10  and  C_15
REMARK    7  A    between atoms: C_11  and  C_12
REMARK    8  A    between atoms: C_12  and  O_14
REMARK    9  A    between atoms: C_23  and  C_25
REMARK   10  A    between atoms: C_30  and  C_31
REMARK                            x       y       z     vdW  Elec       q    Type
REMARK                         _______ _______ _______ _____ _____    ______ ____
ROOT
ATOM      1  C   UNL     1      -0.169  13.143  19.539  0.00  0.00    +0.000 A 
ATOM      2  C   UNL     1       1.053  13.114  20.251  0.00  0.00    +0.000 A 
ATOM      3  C   UNL     1       1.892  14.272  20.374  0.00  0.00    +0.000 A 
ATOM      4  C   UNL     1       1.400  15.509  19.965  0.00  0.00    +0.000 A 
ATOM      5  C   UNL     1       0.267  15.476  19.145  0.00  0.00    +0.000 A 
ATOM      6  C   UNL     1      -0.344  14.278  18.755  0.00  0.00    +0.000 A 
ATOM      7  C   UNL     1      -0.625  16.694  19.112  0.00  0.00    +0.000 C 
ATOM      8  N   UNL     1      -0.719  17.136  20.505  0.00  0.00    +0.000 N 
ATOM      9  C   UNL     1      -1.883  16.686  21.147  0.00  0.00    +0.000 C 
ATOM     10  O   UNL     1      -2.861  16.410  20.430  0.00  0.00    +0.000 OA
ATOM     11  C   UNL     1       0.557  17.741  20.941  0.00  0.00    +0.000 C 
ATOM     12  C   UNL     1       1.812  16.864  20.544  0.00  0.00    +0.000 C 
ENDROOT
BRANCH   9  13
ATOM     13  C   UNL     1      -2.165  16.408  22.608  0.00  0.00    +0.000 A 
ATOM     14  C   UNL     1      -1.422  15.299  23.118  0.00  0.00    +0.000 A 
ATOM     15  C   UNL     1      -1.279  15.027  24.482  0.00  0.00    +0.000 A 
ATOM     16  C   UNL     1      -1.953  15.806  25.398  0.00  0.00    +0.000 A 
ATOM     17  C   UNL     1      -2.711  16.885  24.944  0.00  0.00    +0.000 A 
ATOM     18  C   UNL     1      -2.770  17.239  23.569  0.00  0.00    +0.000 A 
ATOM     19  C   UNL     1      -3.272  18.613  23.278  0.00  0.00    +0.000 C 
ENDBRANCH   9  13
BRANCH   1  20
ATOM     20  C   UNL     1      -1.448  12.213  19.621  0.00  0.00    +0.000 C 
BRANCH  20  27
ATOM     21  N   UNL     1      -5.488  12.937  23.478  0.00  0.00    +0.000 N 
ATOM     22  N   UNL     1      -4.935  12.412  24.585  0.00  0.00    +0.000 NA
ATOM     23  N   UNL     1      -3.708  12.009  24.260  0.00  0.00    +0.000 NA
ATOM     24  C   UNL     1      -3.487  12.290  22.926  0.00  0.00    +0.000 A 
ATOM     25  C   UNL     1      -2.373  12.063  22.083  0.00  0.00    +0.000 A 
ATOM     26  C   UNL     1      -1.181  11.325  22.647  0.00  0.00    +0.000 C 
ATOM     27  C   UNL     1      -2.495  12.478  20.701  0.00  0.00    +0.000 A 
ATOM     28  C   UNL     1      -3.683  13.071  20.262  0.00  0.00    +0.000 A 
ATOM     29  C   UNL     1      -4.764  13.301  21.099  0.00  0.00    +0.000 A 
ATOM     30  C   UNL     1      -4.622  12.901  22.417  0.00  0.00    +0.000 A 
BRANCH  21  32
ATOM     31  C   UNL     1      -7.045  14.923  23.723  0.00  0.00    +0.000 C 
ATOM     32  C   UNL     1      -6.833  13.461  23.396  0.00  0.00    +0.000 C 
ENDBRANCH  21  32
ENDBRANCH  20  27
BRANCH  20  33
ATOM     33  C   UNL     1      -2.092  11.748  18.284  0.00  0.00    +0.000 C 
BRANCH  33  34
ATOM     34  C   UNL     1      -1.714  10.427  17.681  0.00  0.00    +0.000 C 
ATOM     35  O   UNL     1      -2.480   9.599  17.220  0.00  0.00    +0.000 OA
BRANCH  34  36
ATOM     36  O   UNL     1      -0.358  10.167  17.748  0.00  0.00    +0.000 OA
ATOM     37  H   UNL     1       0.156  10.712  17.148  0.00  0.00    +0.000 HD
ENDBRANCH  34  36
ENDBRANCH  33  34
ENDBRANCH  20  33
ENDBRANCH   1  20
TORSDOF 7
ENDMDL
MODEL 8
REMARK VINA RESULT:      -5.9      3.787      5.638
REMARK  Name = 
REMARK  10 active torsions:
REMARK  status: ('A' for Active; 'I' for Inactive)
REMARK    1  A    between atoms: C_1  and  C_2
REMARK    2  A    between atoms: C_2  and  N_3
REMARK    3  A    between atoms: C_7  and  C_8
REMARK    4  A    between atoms: C_9  and  C_10
REMARK    5  A    between atoms: C_10  and  C_11
REMARK    6  A    between atoms: C_10  and  C_15
REMARK    7  A    between atoms: C_11  and  C_12
REMARK    8  A    between atoms: C_12  and  O_14
REMARK    9  A    between atoms: C_23  and  C_25
REMARK   10  A    between atoms: C_30  and  C_31
REMARK                            x       y       z     vdW  Elec       q    Type
REMARK                         _______ _______ _______ _____ _____    ______ ____
ROOT
ATOM      1  C   UNL     1       0.966  12.725  19.494  0.00  0.00    +0.000 A 
ATOM      2  C   UNL     1       1.880  12.853  20.565  0.00  0.00    +0.000 A 
ATOM      3  C   UNL     1       2.151  14.116  21.192  0.00  0.00    +0.000 A 
ATOM      4  C   UNL     1       1.344  15.208  20.883  0.00  0.00    +0.000 A 
ATOM      5  C   UNL     1       0.559  15.084  19.732  0.00  0.00    +0.000 A 
ATOM      6  C   UNL     1       0.574  13.936  18.932  0.00  0.00    +0.000 A 
ATOM      7  C   UNL     1      -0.692  15.924  19.627  0.00  0.00    +0.000 C 
ATOM      8  N   UNL     1      -1.299  15.872  20.959  0.00  0.00    +0.000 N 
ATOM      9  C   UNL     1      -2.324  14.919  21.059  0.00  0.00    +0.000 C 
ATOM     10  O   UNL     1      -2.903  14.591  20.009  0.00  0.00    +0.000 OA
ATOM     11  C   UNL     1      -0.509  16.673  21.917  0.00  0.00    +0.000 C 
ATOM     12  C   UNL     1       1.043  16.382  21.818  0.00  0.00    +0.000 C 
ENDROOT
BRANCH   9  13
ATOM     13  C   UNL     1      -2.839  14.139  22.250  0.00  0.00    +0.000 A 
ATOM     14  C   UNL     1      -4.255  14.238  22.410  0.00  0.00    +0.000 A 
ATOM     15  C   UNL     1      -5.000  13.391  23.237  0.00  0.00    +0.000 A 
ATOM     16  C   UNL     1      -4.342  12.460  24.013  0.00  0.00    +0.000 A 
ATOM     17  C   UNL     1      -2.957  12.345  23.908  0.00  0.00    +0.000 A 
ATOM     18  C   UNL     1      -2.204  13.123  22.987  0.00  0.00    +0.000 A 
ATOM     19  C   UNL     1      -0.828  12.627  22.699  0.00  0.00    +0.000 C 
ENDBRANCH   9  13
BRANCH   1  20
ATOM     20  C   UNL     1       0.165  11.472  18.948  0.00  0.00    +0.000 C 
BRANCH  20  27
ATOM     21  N   UNL     1       2.895   6.549  19.113  0.00  0.00    +0.000 N 
ATOM     22  N   UNL     1       2.555   6.064  20.320  0.00  0.00    +0.000 NA
ATOM     23  N   UNL     1       1.725   6.943  20.878  0.00  0.00    +0.000 NA
ATOM     24  C   UNL     1       1.539   7.996  20.004  0.00  0.00    +0.000 A 
ATOM     25  C   UNL     1       0.776   9.184  20.101  0.00  0.00    +0.000 A 
ATOM     26  C   UNL     1       0.045   9.466  21.393  0.00  0.00    +0.000 C 
ATOM     27  C   UNL     1       0.826  10.095  18.977  0.00  0.00    +0.000 A 
ATOM     28  C   UNL     1       1.611   9.776  17.865  0.00  0.00    +0.000 A 
ATOM     29  C   UNL     1       2.345   8.603  17.773  0.00  0.00    +0.000 A 
ATOM     30  C   UNL     1       2.277   7.744  18.857  0.00  0.00    +0.000 A 
BRANCH  21  32
ATOM     31  C   UNL     1       3.319   4.704  17.425  0.00  0.00    +0.000 C 
ATOM     32  C   UNL     1       3.812   5.910  18.195  0.00  0.00    +0.000 C 
ENDBRANCH  21  32
ENDBRANCH  20  27
BRANCH  20  33
ATOM     33  C   UNL     1      -1.358  11.397  19.252  0.00  0.00    +0.000 C 
BRANCH  33  34
ATOM     34  C   UNL     1      -2.360  11.604  18.155  0.00  0.00    +0.000 C 
ATOM     35  O   UNL     1      -2.218  11.304  16.982  0.00  0.00    +0.000 OA
BRANCH  34  36
ATOM     36  O   UNL     1      -3.500  12.261  18.576  0.00  0.00    +0.000 OA
ATOM     37  H   UNL     1      -4.306  11.797  18.338  0.00  0.00    +0.000 HD
ENDBRANCH  34  36
ENDBRANCH  33  34
ENDBRANCH  20  33
ENDBRANCH   1  20
TORSDOF 7
ENDMDL
MODEL 9
REMARK VINA RESULT:      -5.9      3.123      6.683
REMARK  Name = 
REMARK  10 active torsions:
REMARK  status: ('A' for Active; 'I' for Inactive)
REMARK    1  A    between atoms: C_1  and  C_2
REMARK    2  A    between atoms: C_2  and  N_3
REMARK    3  A    between atoms: C_7  and  C_8
REMARK    4  A    between atoms: C_9  and  C_10
REMARK    5  A    between atoms: C_10  and  C_11
REMARK    6  A    between atoms: C_10  and  C_15
REMARK    7  A    between atoms: C_11  and  C_12
REMARK    8  A    between atoms: C_12  and  O_14
REMARK    9  A    between atoms: C_23  and  C_25
REMARK   10  A    between atoms: C_30  and  C_31
REMARK                            x       y       z     vdW  Elec       q    Type
REMARK                         _______ _______ _______ _____ _____    ______ ____
ROOT
ATOM      1  C   UNL     1      -2.819  13.390  23.235  0.00  0.00    +0.000 A 
ATOM      2  C   UNL     1      -3.431  12.326  23.937  0.00  0.00    +0.000 A 
ATOM      3  C   UNL     1      -4.737  12.449  24.521  0.00  0.00    +0.000 A 
ATOM      4  C   UNL     1      -5.511  13.565  24.215  0.00  0.00    +0.000 A 
ATOM      5  C   UNL     1      -4.828  14.646  23.647  0.00  0.00    +0.000 A 
ATOM      6  C   UNL     1      -3.452  14.618  23.396  0.00  0.00    +0.000 A 
ATOM      7  C   UNL     1      -5.615  15.626  22.809  0.00  0.00    +0.000 C 
ATOM      8  N   UNL     1      -6.516  14.800  22.002  0.00  0.00    +0.000 N 
ATOM      9  C   UNL     1      -6.032  14.561  20.707  0.00  0.00    +0.000 C 
ATOM     10  O   UNL     1      -5.223  15.381  20.240  0.00  0.00    +0.000 OA
ATOM     11  C   UNL     1      -7.590  14.235  22.846  0.00  0.00    +0.000 C 
ATOM     12  C   UNL     1      -7.041  13.605  24.188  0.00  0.00    +0.000 C 
ENDROOT
BRANCH   9  13
ATOM     13  C   UNL     1      -6.276  13.410  19.754  0.00  0.00    +0.000 A 
ATOM     14  C   UNL     1      -6.425  12.155  20.422  0.00  0.00    +0.000 A 
ATOM     15  C   UNL     1      -6.943  11.011  19.808  0.00  0.00    +0.000 A 
ATOM     16  C   UNL     1      -7.252  11.049  18.465  0.00  0.00    +0.000 A 
ATOM     17  C   UNL     1      -7.099  12.246  17.767  0.00  0.00    +0.000 A 
ATOM     18  C   UNL     1      -6.681  13.444  18.408  0.00  0.00    +0.000 A 
ATOM     19  C   UNL     1      -6.943  14.704  17.653  0.00  0.00    +0.000 C 
ENDBRANCH   9  13
BRANCH   1  20
ATOM     20  C   UNL     1      -1.662  13.398  22.153  0.00  0.00    +0.000 C 
BRANCH  20  27
ATOM     21  N   UNL     1      -2.019  10.265  17.486  0.00  0.00    +0.000 N 
ATOM     22  N   UNL     1      -0.811   9.679  17.432  0.00  0.00    +0.000 NA
ATOM     23  N   UNL     1      -0.129  10.083  18.502  0.00  0.00    +0.000 NA
ATOM     24  C   UNL     1      -0.926  10.934  19.242  0.00  0.00    +0.000 A 
ATOM     25  C   UNL     1      -0.693  11.643  20.445  0.00  0.00    +0.000 A 
ATOM     26  C   UNL     1       0.679  11.561  21.074  0.00  0.00    +0.000 C 
ATOM     27  C   UNL     1      -1.769  12.475  20.940  0.00  0.00    +0.000 A 
ATOM     28  C   UNL     1      -2.968  12.548  20.226  0.00  0.00    +0.000 A 
ATOM     29  C   UNL     1      -3.193  11.840  19.055  0.00  0.00    +0.000 A 
ATOM     30  C   UNL     1      -2.152  11.045  18.604  0.00  0.00    +0.000 A 
BRANCH  21  32
ATOM     31  C   UNL     1      -2.691  10.369  15.043  0.00  0.00    +0.000 C 
ATOM     32  C   UNL     1      -3.056  10.114  16.489  0.00  0.00    +0.000 C 
ENDBRANCH  21  32
ENDBRANCH  20  27
BRANCH  20  33
ATOM     33  C   UNL     1      -1.019  14.767  21.791  0.00  0.00    +0.000 C 
BRANCH  33  34
ATOM     34  C   UNL     1       0.338  15.128  22.317  0.00  0.00    +0.000 C 
ATOM     35  O   UNL     1       1.404  14.933  21.758  0.00  0.00    +0.000 OA
BRANCH  34  36
ATOM     36  O   UNL     1       0.303  15.669  23.588  0.00  0.00    +0.000 OA
ATOM     37  H   UNL     1      -0.448  16.252  23.723  0.00  0.00    +0.000 HD
ENDBRANCH  34  36
ENDBRANCH  33  34
ENDBRANCH  20  33
ENDBRANCH   1  20
TORSDOF 7
ENDMDL
