MODEL 1
REMARK VINA RESULT:      -8.7      0.000      0.000
REMARK  Name = 
REMARK  5 active torsions:
REMARK  status: ('A' for Active; 'I' for Inactive)
REMARK    1  A    between atoms: C_1  and  C_2
REMARK    2  A    between atoms: C_3  and  C_4
REMARK    3  A    between atoms: N_7  and  C_8
REMARK    4  A    between atoms: C_8  and  C_9
REMARK    5  A    between atoms: C_9  and  N_10
REMARK                            x       y       z     vdW  Elec       q    Type
REMARK                         _______ _______ _______ _____ _____    ______ ____
ROOT
ATOM      1  C   UNL     1       4.295   4.901  17.415  0.00  0.00    +0.000 A 
ATOM      2  N   UNL     1       3.668   6.056  17.689  0.00  0.00    +0.000 NA
ATOM      3  C   UNL     1       2.981   6.101  18.848  0.00  0.00    +0.000 A 
ATOM      4  N   UNL     1       2.365   7.310  19.243  0.00  0.00    +0.000 N 
ATOM      5  C   UNL     1       2.860   4.974  19.690  0.00  0.00    +0.000 A 
ATOM      6  C   UNL     1       2.111   4.920  20.896  0.00  0.00    +0.000 A 
ATOM      7  C   UNL     1       2.025   3.738  21.633  0.00  0.00    +0.000 A 
ATOM      8  C   UNL     1       2.691   2.605  21.187  0.00  0.00    +0.000 A 
ATOM      9  C   UNL     1       3.436   2.660  20.011  0.00  0.00    +0.000 A 
ATOM     10  C   UNL     1       3.525   3.823  19.257  0.00  0.00    +0.000 A 
ATOM     11  N   UNL     1       4.248   3.783  18.144  0.00  0.00    +0.000 NA
ATOM     12  H   UNL     1       2.756   7.591  20.139  0.00  0.00    +0.000 HD
ENDROOT
BRANCH   1  15
ATOM     13  C   UNL     1       7.154   6.381  16.700  0.00  0.00    +0.000 C 
ATOM     14  C   UNL     1       6.327   5.451  15.879  0.00  0.00    +0.000 A 
ATOM     15  C   UNL     1       5.112   4.852  16.210  0.00  0.00    +0.000 A 
ATOM     16  N   UNL     1       4.730   4.102  15.121  0.00  0.00    +0.000 N 
ATOM     17  C   UNL     1       5.664   4.163  14.117  0.00  0.00    +0.000 A 
ATOM     18  C   UNL     1       5.698   3.543  12.862  0.00  0.00    +0.000 A 
ATOM     19  C   UNL     1       6.792   3.810  12.033  0.00  0.00    +0.000 A 
ATOM     20  C   UNL     1       7.814   4.663  12.444  0.00  0.00    +0.000 A 
ATOM     21  C   UNL     1       7.766   5.268  13.704  0.00  0.00    +0.000 A 
ATOM     22  C   UNL     1       6.675   5.014  14.559  0.00  0.00    +0.000 A 
ATOM     23  H   UNL     1       3.874   3.564  15.089  0.00  0.00    +0.000 HD
ENDBRANCH   1  15
BRANCH   4  24
ATOM     24  C   UNL     1       2.370   8.417  18.281  0.00  0.00    +0.000 C 
BRANCH  24  25
ATOM     25  C   UNL     1       1.031   9.189  18.354  0.00  0.00    +0.000 C 
BRANCH  25  26
ATOM     26  N   UNL     1       0.989  10.205  19.427  0.00  0.00    +0.000 NA
ATOM     27  C   UNL     1      -0.310  10.188  20.125  0.00  0.00    +0.000 C 
ATOM     28  C   UNL     1      -1.192  11.136  19.336  0.00  0.00    +0.000 C 
ATOM     29  C   UNL     1      -0.232  12.244  18.955  0.00  0.00    +0.000 C 
ATOM     30  C   UNL     1       1.136  11.573  18.899  0.00  0.00    +0.000 C 
ENDBRANCH  25  26
ENDBRANCH  24  25
ENDBRANCH   4  24
TORSDOF 4
ENDMDL
MODEL 2
REMARK VINA RESULT:      -8.7      1.916      7.939
REMARK  Name = 
REMARK  5 active torsions:
REMARK  status: ('A' for Active; 'I' for Inactive)
REMARK    1  A    between atoms: C_1  and  C_2
REMARK    2  A    between atoms: C_3  and  C_4
REMARK    3  A    between atoms: N_7  and  C_8
REMARK    4  A    between atoms: C_8  and  C_9
REMARK    5  A    between atoms: C_9  and  N_10
REMARK                            x       y       z     vdW  Elec       q    Type
REMARK                         _______ _______ _______ _____ _____    ______ ____
ROOT
ATOM      1  C   UNL     1       1.958   6.959  20.140  0.00  0.00    +0.000 A 
ATOM      2  N   UNL     1       2.801   6.869  19.100  0.00  0.00    +0.000 NA
ATOM      3  C   UNL     1       3.309   5.647  18.848  0.00  0.00    +0.000 A 
ATOM      4  N   UNL     1       4.139   5.458  17.720  0.00  0.00    +0.000 N 
ATOM      5  C   UNL     1       3.034   4.537  19.678  0.00  0.00    +0.000 A 
ATOM      6  C   UNL     1       3.571   3.231  19.517  0.00  0.00    +0.000 A 
ATOM      7  C   UNL     1       3.262   2.215  20.423  0.00  0.00    +0.000 A 
ATOM      8  C   UNL     1       2.410   2.481  21.486  0.00  0.00    +0.000 A 
ATOM      9  C   UNL     1       1.874   3.758  21.637  0.00  0.00    +0.000 A 
ATOM     10  C   UNL     1       2.176   4.787  20.754  0.00  0.00    +0.000 A 
ATOM     11  N   UNL     1       1.629   5.975  20.980  0.00  0.00    +0.000 NA
ATOM     12  H   UNL     1       3.706   4.761  17.117  0.00  0.00    +0.000 HD
ENDROOT
BRANCH   1  15
ATOM     13  C   UNL     1       1.423   9.501  18.107  0.00  0.00    +0.000 C 
ATOM     14  C   UNL     1       1.077   9.339  19.548  0.00  0.00    +0.000 A 
ATOM     15  C   UNL     1       1.331   8.252  20.383  0.00  0.00    +0.000 A 
ATOM     16  N   UNL     1       0.846   8.585  21.627  0.00  0.00    +0.000 N 
ATOM     17  C   UNL     1       0.258   9.826  21.620  0.00  0.00    +0.000 A 
ATOM     18  C   UNL     1      -0.379  10.540  22.643  0.00  0.00    +0.000 A 
ATOM     19  C   UNL     1      -0.877  11.810  22.338  0.00  0.00    +0.000 A 
ATOM     20  C   UNL     1      -0.745  12.345  21.058  0.00  0.00    +0.000 A 
ATOM     21  C   UNL     1      -0.111  11.615  20.048  0.00  0.00    +0.000 A 
ATOM     22  C   UNL     1       0.398  10.331  20.330  0.00  0.00    +0.000 A 
ATOM     23  H   UNL     1       0.907   7.973  22.429  0.00  0.00    +0.000 HD
ENDBRANCH   1  15
BRANCH   4  24
ATOM     24  C   UNL     1       4.537   6.651  16.967  0.00  0.00    +0.000 C 
BRANCH  24  25
ATOM     25  C   UNL     1       5.427   6.248  15.767  0.00  0.00    +0.000 C 
BRANCH  25  26
ATOM     26  N   UNL     1       6.876   6.328  16.049  0.00  0.00    +0.000 NA
ATOM     27  C   UNL     1       7.485   4.986  16.094  0.00  0.00    +0.000 C 
ATOM     28  C   UNL     1       7.335   4.533  17.532  0.00  0.00    +0.000 C 
ATOM     29  C   UNL     1       7.579   5.810  18.310  0.00  0.00    +0.000 C 
ATOM     30  C   UNL     1       7.150   6.929  17.367  0.00  0.00    +0.000 C 
ENDBRANCH  25  26
ENDBRANCH  24  25
ENDBRANCH   4  24
TORSDOF 4
ENDMDL
MODEL 3
REMARK VINA RESULT:      -8.5      1.381      8.117
REMARK  Name = 
REMARK  5 active torsions:
REMARK  status: ('A' for Active; 'I' for Inactive)
REMARK    1  A    between atoms: C_1  and  C_2
REMARK    2  A    between atoms: C_3  and  C_4
REMARK    3  A    between atoms: N_7  and  C_8
REMARK    4  A    between atoms: C_8  and  C_9
REMARK    5  A    between atoms: C_9  and  N_10
REMARK                            x       y       z     vdW  Elec       q    Type
REMARK                         _______ _______ _______ _____ _____    ______ ____
ROOT
ATOM      1  C   UNL     1       2.058   6.992  20.044  0.00  0.00    +0.000 A 
ATOM      2  N   UNL     1       2.931   6.914  19.028  0.00  0.00    +0.000 NA
ATOM      3  C   UNL     1       3.484   5.705  18.808  0.00  0.00    +0.000 A 
ATOM      4  N   UNL     1       4.348   5.527  17.704  0.00  0.00    +0.000 N 
ATOM      5  C   UNL     1       3.222   4.599  19.646  0.00  0.00    +0.000 A 
ATOM      6  C   UNL     1       3.803   3.309  19.519  0.00  0.00    +0.000 A 
ATOM      7  C   UNL     1       3.503   2.296  20.431  0.00  0.00    +0.000 A 
ATOM      8  C   UNL     1       2.615   2.549  21.467  0.00  0.00    +0.000 A 
ATOM      9  C   UNL     1       2.035   3.811  21.586  0.00  0.00    +0.000 A 
ATOM     10  C   UNL     1       2.328   4.836  20.696  0.00  0.00    +0.000 A 
ATOM     11  N   UNL     1       1.739   6.009  20.890  0.00  0.00    +0.000 NA
ATOM     12  H   UNL     1       3.954   4.809  17.100  0.00  0.00    +0.000 HD
ENDROOT
BRANCH   1  15
ATOM     13  C   UNL     1       1.490   9.483  17.959  0.00  0.00    +0.000 C 
ATOM     14  C   UNL     1       1.115   9.333  19.394  0.00  0.00    +0.000 A 
ATOM     15  C   UNL     1       1.385   8.267  20.252  0.00  0.00    +0.000 A 
ATOM     16  N   UNL     1       0.860   8.603  21.480  0.00  0.00    +0.000 N 
ATOM     17  C   UNL     1       0.234   9.825  21.440  0.00  0.00    +0.000 A 
ATOM     18  C   UNL     1      -0.450  10.533  22.436  0.00  0.00    +0.000 A 
ATOM     19  C   UNL     1      -0.981  11.781  22.099  0.00  0.00    +0.000 A 
ATOM     20  C   UNL     1      -0.836  12.301  20.814  0.00  0.00    +0.000 A 
ATOM     21  C   UNL     1      -0.155  11.576  19.830  0.00  0.00    +0.000 A 
ATOM     22  C   UNL     1       0.388  10.314  20.145  0.00  0.00    +0.000 A 
ATOM     23  H   UNL     1       0.922   8.006  22.293  0.00  0.00    +0.000 HD
ENDBRANCH   1  15
BRANCH   4  24
ATOM     24  C   UNL     1       4.729   6.722  16.945  0.00  0.00    +0.000 C 
BRANCH  24  25
ATOM     25  C   UNL     1       5.291   6.315  15.562  0.00  0.00    +0.000 C 
BRANCH  25  26
ATOM     26  N   UNL     1       5.812   4.932  15.516  0.00  0.00    +0.000 NA
ATOM     27  C   UNL     1       7.264   4.917  15.263  0.00  0.00    +0.000 C 
ATOM     28  C   UNL     1       7.399   4.907  13.753  0.00  0.00    +0.000 C 
ATOM     29  C   UNL     1       6.261   4.005  13.323  0.00  0.00    +0.000 C 
ATOM     30  C   UNL     1       5.212   4.151  14.418  0.00  0.00    +0.000 C 
ENDBRANCH  25  26
ENDBRANCH  24  25
ENDBRANCH   4  24
TORSDOF 4
ENDMDL
MODEL 4
REMARK VINA RESULT:      -8.4      1.858      7.605
REMARK  Name = 
REMARK  5 active torsions:
REMARK  status: ('A' for Active; 'I' for Inactive)
REMARK    1  A    between atoms: C_1  and  C_2
REMARK    2  A    between atoms: C_3  and  C_4
REMARK    3  A    between atoms: N_7  and  C_8
REMARK    4  A    between atoms: C_8  and  C_9
REMARK    5  A    between atoms: C_9  and  N_10
REMARK                            x       y       z     vdW  Elec       q    Type
REMARK                         _______ _______ _______ _____ _____    ______ ____
ROOT
ATOM      1  C   UNL     1       3.493   6.471  18.460  0.00  0.00    +0.000 A 
ATOM      2  N   UNL     1       3.732   5.290  19.051  0.00  0.00    +0.000 NA
ATOM      3  C   UNL     1       4.619   4.484  18.436  0.00  0.00    +0.000 A 
ATOM      4  N   UNL     1       4.983   3.260  19.043  0.00  0.00    +0.000 N 
ATOM      5  C   UNL     1       5.208   4.824  17.198  0.00  0.00    +0.000 A 
ATOM      6  C   UNL     1       6.107   4.011  16.458  0.00  0.00    +0.000 A 
ATOM      7  C   UNL     1       6.598   4.431  15.221  0.00  0.00    +0.000 A 
ATOM      8  C   UNL     1       6.213   5.664  14.715  0.00  0.00    +0.000 A 
ATOM      9  C   UNL     1       5.341   6.469  15.446  0.00  0.00    +0.000 A 
ATOM     10  C   UNL     1       4.832   6.065  16.674  0.00  0.00    +0.000 A 
ATOM     11  N   UNL     1       3.998   6.889  17.297  0.00  0.00    +0.000 NA
ATOM     12  H   UNL     1       5.987   3.269  19.207  0.00  0.00    +0.000 HD
ENDROOT
BRANCH   1  15
ATOM     13  C   UNL     1       1.960   9.180  17.371  0.00  0.00    +0.000 C 
ATOM     14  C   UNL     1       1.926   8.537  18.716  0.00  0.00    +0.000 A 
ATOM     15  C   UNL     1       2.601   7.395  19.146  0.00  0.00    +0.000 A 
ATOM     16  N   UNL     1       2.271   7.215  20.471  0.00  0.00    +0.000 N 
ATOM     17  C   UNL     1       1.385   8.172  20.901  0.00  0.00    +0.000 A 
ATOM     18  C   UNL     1       0.772   8.353  22.147  0.00  0.00    +0.000 A 
ATOM     19  C   UNL     1      -0.090   9.444  22.296  0.00  0.00    +0.000 A 
ATOM     20  C   UNL     1      -0.329  10.320  21.239  0.00  0.00    +0.000 A 
ATOM     21  C   UNL     1       0.288  10.119  20.000  0.00  0.00    +0.000 A 
ATOM     22  C   UNL     1       1.159   9.025  19.823  0.00  0.00    +0.000 A 
ATOM     23  H   UNL     1       2.630   6.457  21.035  0.00  0.00    +0.000 HD
ENDBRANCH   1  15
BRANCH   4  24
ATOM     24  C   UNL     1       4.244   2.855  20.243  0.00  0.00    +0.000 C 
BRANCH  24  25
ATOM     25  C   UNL     1       3.198   1.773  19.882  0.00  0.00    +0.000 C 
BRANCH  25  26
ATOM     26  N   UNL     1       1.882   1.982  20.523  0.00  0.00    +0.000 NA
ATOM     27  C   UNL     1       0.814   2.116  19.516  0.00  0.00    +0.000 C 
ATOM     28  C   UNL     1       0.770   3.593  19.183  0.00  0.00    +0.000 C 
ATOM     29  C   UNL     1       1.016   4.245  20.528  0.00  0.00    +0.000 C 
ATOM     30  C   UNL     1       1.842   3.229  21.309  0.00  0.00    +0.000 C 
ENDBRANCH  25  26
ENDBRANCH  24  25
ENDBRANCH   4  24
TORSDOF 4
ENDMDL
MODEL 5
REMARK VINA RESULT:      -8.3      0.877      1.128
REMARK  Name = 
REMARK  5 active torsions:
REMARK  status: ('A' for Active; 'I' for Inactive)
REMARK    1  A    between atoms: C_1  and  C_2
REMARK    2  A    between atoms: C_3  and  C_4
REMARK    3  A    between atoms: N_7  and  C_8
REMARK    4  A    between atoms: C_8  and  C_9
REMARK    5  A    between atoms: C_9  and  N_10
REMARK                            x       y       z     vdW  Elec       q    Type
REMARK                         _______ _______ _______ _____ _____    ______ ____
ROOT
ATOM      1  C   UNL     1       4.309   4.805  17.555  0.00  0.00    +0.000 A 
ATOM      2  N   UNL     1       3.631   5.924  17.854  0.00  0.00    +0.000 NA
ATOM      3  C   UNL     1       2.954   5.918  19.018  0.00  0.00    +0.000 A 
ATOM      4  N   UNL     1       2.286   7.091  19.439  0.00  0.00    +0.000 N 
ATOM      5  C   UNL     1       2.893   4.773  19.843  0.00  0.00    +0.000 A 
ATOM      6  C   UNL     1       2.159   4.665  21.054  0.00  0.00    +0.000 A 
ATOM      7  C   UNL     1       2.135   3.467  21.772  0.00  0.00    +0.000 A 
ATOM      8  C   UNL     1       2.850   2.374  21.301  0.00  0.00    +0.000 A 
ATOM      9  C   UNL     1       3.580   2.483  20.120  0.00  0.00    +0.000 A 
ATOM     10  C   UNL     1       3.608   3.662  19.385  0.00  0.00    +0.000 A 
ATOM     11  N   UNL     1       4.320   3.674  18.265  0.00  0.00    +0.000 NA
ATOM     12  H   UNL     1       2.671   7.375  20.337  0.00  0.00    +0.000 HD
ENDROOT
BRANCH   1  15
ATOM     13  C   UNL     1       7.126   6.374  16.864  0.00  0.00    +0.000 C 
ATOM     14  C   UNL     1       6.313   5.451  16.021  0.00  0.00    +0.000 A 
ATOM     15  C   UNL     1       5.115   4.814  16.342  0.00  0.00    +0.000 A 
ATOM     16  N   UNL     1       4.741   4.091  15.232  0.00  0.00    +0.000 N 
ATOM     17  C   UNL     1       5.665   4.207  14.223  0.00  0.00    +0.000 A 
ATOM     18  C   UNL     1       5.701   3.628  12.948  0.00  0.00    +0.000 A 
ATOM     19  C   UNL     1       6.781   3.947  12.119  0.00  0.00    +0.000 A 
ATOM     20  C   UNL     1       7.787   4.809  12.550  0.00  0.00    +0.000 A 
ATOM     21  C   UNL     1       7.736   5.373  13.829  0.00  0.00    +0.000 A 
ATOM     22  C   UNL     1       6.659   5.066  14.684  0.00  0.00    +0.000 A 
ATOM     23  H   UNL     1       3.897   3.534  15.190  0.00  0.00    +0.000 HD
ENDBRANCH   1  15
BRANCH   4  24
ATOM     24  C   UNL     1       2.230   8.212  18.496  0.00  0.00    +0.000 C 
BRANCH  24  25
ATOM     25  C   UNL     1       1.254   9.294  19.016  0.00  0.00    +0.000 C 
BRANCH  25  26
ATOM     26  N   UNL     1       1.480   9.668  20.429  0.00  0.00    +0.000 NA
ATOM     27  C   UNL     1       1.061   8.586  21.339  0.00  0.00    +0.000 C 
ATOM     28  C   UNL     1      -0.406   8.849  21.613  0.00  0.00    +0.000 C 
ATOM     29  C   UNL     1      -0.463  10.360  21.700  0.00  0.00    +0.000 C 
ATOM     30  C   UNL     1       0.685  10.845  20.823  0.00  0.00    +0.000 C 
ENDBRANCH  25  26
ENDBRANCH  24  25
ENDBRANCH   4  24
TORSDOF 4
ENDMDL
MODEL 6
REMARK VINA RESULT:      -8.3      2.347      7.577
REMARK  Name = 
REMARK  5 active torsions:
REMARK  status: ('A' for Active; 'I' for Inactive)
REMARK    1  A    between atoms: C_1  and  C_2
REMARK    2  A    between atoms: C_3  and  C_4
REMARK    3  A    between atoms: N_7  and  C_8
REMARK    4  A    between atoms: C_8  and  C_9
REMARK    5  A    between atoms: C_9  and  N_10
REMARK                            x       y       z     vdW  Elec       q    Type
REMARK                         _______ _______ _______ _____ _____    ______ ____
ROOT
ATOM      1  C   UNL     1       2.376   6.365  19.185  0.00  0.00    +0.000 A 
ATOM      2  N   UNL     1       3.239   6.501  18.166  0.00  0.00    +0.000 NA
ATOM      3  C   UNL     1       3.688   5.360  17.609  0.00  0.00    +0.000 A 
ATOM      4  N   UNL     1       4.534   5.424  16.478  0.00  0.00    +0.000 N 
ATOM      5  C   UNL     1       3.336   4.090  18.117  0.00  0.00    +0.000 A 
ATOM      6  C   UNL     1       3.807   2.842  17.626  0.00  0.00    +0.000 A 
ATOM      7  C   UNL     1       3.424   1.645  18.231  0.00  0.00    +0.000 A 
ATOM      8  C   UNL     1       2.562   1.673  19.318  0.00  0.00    +0.000 A 
ATOM      9  C   UNL     1       2.089   2.895  19.793  0.00  0.00    +0.000 A 
ATOM     10  C   UNL     1       2.466   4.099  19.212  0.00  0.00    +0.000 A 
ATOM     11  N   UNL     1       1.977   5.217  19.735  0.00  0.00    +0.000 NA
ATOM     12  H   UNL     1       4.080   4.935  15.710  0.00  0.00    +0.000 HD
ENDROOT
BRANCH   1  15
ATOM     13  C   UNL     1       1.876   9.330  17.830  0.00  0.00    +0.000 C 
ATOM     14  C   UNL     1       1.574   8.844  19.206  0.00  0.00    +0.000 A 
ATOM     15  C   UNL     1       1.812   7.583  19.751  0.00  0.00    +0.000 A 
ATOM     16  N   UNL     1       1.385   7.629  21.060  0.00  0.00    +0.000 N 
ATOM     17  C   UNL     1       0.850   8.855  21.369  0.00  0.00    +0.000 A 
ATOM     18  C   UNL     1       0.279   9.327  22.558  0.00  0.00    +0.000 A 
ATOM     19  C   UNL     1      -0.177  10.648  22.580  0.00  0.00    +0.000 A 
ATOM     20  C   UNL     1      -0.068  11.465  21.457  0.00  0.00    +0.000 A 
ATOM     21  C   UNL     1       0.500  10.974  20.277  0.00  0.00    +0.000 A 
ATOM     22  C   UNL     1       0.965   9.644  20.228  0.00  0.00    +0.000 A 
ATOM     23  H   UNL     1       1.449   6.843  21.692  0.00  0.00    +0.000 HD
ENDBRANCH   1  15
BRANCH   4  24
ATOM     24  C   UNL     1       5.013   6.748  16.067  0.00  0.00    +0.000 C 
BRANCH  24  25
ATOM     25  C   UNL     1       5.909   7.355  17.173  0.00  0.00    +0.000 C 
BRANCH  25  26
ATOM     26  N   UNL     1       7.310   6.884  17.127  0.00  0.00    +0.000 NA
ATOM     27  C   UNL     1       7.375   5.427  16.914  0.00  0.00    +0.000 C 
ATOM     28  C   UNL     1       7.327   4.823  18.303  0.00  0.00    +0.000 C 
ATOM     29  C   UNL     1       8.161   5.791  19.116  0.00  0.00    +0.000 C 
ATOM     30  C   UNL     1       8.017   7.128  18.398  0.00  0.00    +0.000 C 
ENDBRANCH  25  26
ENDBRANCH  24  25
ENDBRANCH   4  24
TORSDOF 4
ENDMDL
MODEL 7
REMARK VINA RESULT:      -8.2      1.960      7.732
REMARK  Name = 
REMARK  5 active torsions:
REMARK  status: ('A' for Active; 'I' for Inactive)
REMARK    1  A    between atoms: C_1  and  C_2
REMARK    2  A    between atoms: C_3  and  C_4
REMARK    3  A    between atoms: N_7  and  C_8
REMARK    4  A    between atoms: C_8  and  C_9
REMARK    5  A    between atoms: C_9  and  N_10
REMARK                            x       y       z     vdW  Elec       q    Type
REMARK                         _______ _______ _______ _____ _____    ______ ____
ROOT
ATOM      1  C   UNL     1       3.012   6.916  18.471  0.00  0.00    +0.000 A 
ATOM      2  N   UNL     1       2.499   5.692  18.277  0.00  0.00    +0.000 NA
ATOM      3  C   UNL     1       3.289   4.809  17.635  0.00  0.00    +0.000 A 
ATOM      4  N   UNL     1       2.848   3.476  17.468  0.00  0.00    +0.000 N 
ATOM      5  C   UNL     1       4.555   5.171  17.124  0.00  0.00    +0.000 A 
ATOM      6  C   UNL     1       5.424   4.321  16.389  0.00  0.00    +0.000 A 
ATOM      7  C   UNL     1       6.640   4.796  15.894  0.00  0.00    +0.000 A 
ATOM      8  C   UNL     1       7.008   6.112  16.135  0.00  0.00    +0.000 A 
ATOM      9  C   UNL     1       6.162   6.944  16.866  0.00  0.00    +0.000 A 
ATOM     10  C   UNL     1       4.943   6.494  17.358  0.00  0.00    +0.000 A 
ATOM     11  N   UNL     1       4.194   7.357  18.034  0.00  0.00    +0.000 NA
ATOM     12  H   UNL     1       3.518   2.858  17.922  0.00  0.00    +0.000 HD
ENDROOT
BRANCH   1  15
ATOM     13  C   UNL     1       1.488   9.684  17.528  0.00  0.00    +0.000 C 
ATOM     14  C   UNL     1       1.544   9.032  18.867  0.00  0.00    +0.000 A 
ATOM     15  C   UNL     1       2.212   7.865  19.234  0.00  0.00    +0.000 A 
ATOM     16  N   UNL     1       1.987   7.685  20.580  0.00  0.00    +0.000 N 
ATOM     17  C   UNL     1       1.173   8.668  21.088  0.00  0.00    +0.000 A 
ATOM     18  C   UNL     1       0.671   8.859  22.381  0.00  0.00    +0.000 A 
ATOM     19  C   UNL     1      -0.136   9.978  22.607  0.00  0.00    +0.000 A 
ATOM     20  C   UNL     1      -0.433  10.870  21.578  0.00  0.00    +0.000 A 
ATOM     21  C   UNL     1       0.072  10.658  20.291  0.00  0.00    +0.000 A 
ATOM     22  C   UNL     1       0.888   9.536  20.037  0.00  0.00    +0.000 A 
ATOM     23  H   UNL     1       2.366   6.911  21.108  0.00  0.00    +0.000 HD
ENDBRANCH   1  15
BRANCH   4  24
ATOM     24  C   UNL     1       1.472   3.165  17.863  0.00  0.00    +0.000 C 
BRANCH  24  25
ATOM     25  C   UNL     1       1.472   2.160  19.039  0.00  0.00    +0.000 C 
BRANCH  25  26
ATOM     26  N   UNL     1       0.797   2.666  20.254  0.00  0.00    +0.000 NA
ATOM     27  C   UNL     1       0.921   4.131  20.360  0.00  0.00    +0.000 C 
ATOM     28  C   UNL     1       2.217   4.363  21.109  0.00  0.00    +0.000 C 
ATOM     29  C   UNL     1       2.215   3.245  22.131  0.00  0.00    +0.000 C 
ATOM     30  C   UNL     1       1.401   2.129  21.486  0.00  0.00    +0.000 C 
ENDBRANCH  25  26
ENDBRANCH  24  25
ENDBRANCH   4  24
TORSDOF 4
ENDMDL
MODEL 8
REMARK VINA RESULT:      -8.1      1.416      7.717
REMARK  Name = 
REMARK  5 active torsions:
REMARK  status: ('A' for Active; 'I' for Inactive)
REMARK    1  A    between atoms: C_1  and  C_2
REMARK    2  A    between atoms: C_3  and  C_4
REMARK    3  A    between atoms: N_7  and  C_8
REMARK    4  A    between atoms: C_8  and  C_9
REMARK    5  A    between atoms: C_9  and  N_10
REMARK                            x       y       z     vdW  Elec       q    Type
REMARK                         _______ _______ _______ _____ _____    ______ ____
ROOT
ATOM      1  C   UNL     1       2.285   6.794  20.000  0.00  0.00    +0.000 A 
ATOM      2  N   UNL     1       3.432   6.644  19.319  0.00  0.00    +0.000 NA
ATOM      3  C   UNL     1       3.929   5.394  19.257  0.00  0.00    +0.000 A 
ATOM      4  N   UNL     1       5.089   5.145  18.488  0.00  0.00    +0.000 N 
ATOM      5  C   UNL     1       3.324   4.313  19.935  0.00  0.00    +0.000 A 
ATOM      6  C   UNL     1       3.812   2.979  19.967  0.00  0.00    +0.000 A 
ATOM      7  C   UNL     1       3.154   1.994  20.705  0.00  0.00    +0.000 A 
ATOM      8  C   UNL     1       2.001   2.320  21.405  0.00  0.00    +0.000 A 
ATOM      9  C   UNL     1       1.514   3.625  21.364  0.00  0.00    +0.000 A 
ATOM     10  C   UNL     1       2.160   4.623  20.645  0.00  0.00    +0.000 A 
ATOM     11  N   UNL     1       1.633   5.841  20.670  0.00  0.00    +0.000 NA
ATOM     12  H   UNL     1       4.857   4.463  17.769  0.00  0.00    +0.000 HD
ENDROOT
BRANCH   1  15
ATOM     13  C   UNL     1       1.916   9.008  17.584  0.00  0.00    +0.000 C 
ATOM     14  C   UNL     1       1.498   9.074  19.013  0.00  0.00    +0.000 A 
ATOM     15  C   UNL     1       1.683   8.120  20.014  0.00  0.00    +0.000 A 
ATOM     16  N   UNL     1       1.149   8.648  21.168  0.00  0.00    +0.000 N 
ATOM     17  C   UNL     1       0.597   9.885  20.945  0.00  0.00    +0.000 A 
ATOM     18  C   UNL     1      -0.069  10.758  21.815  0.00  0.00    +0.000 A 
ATOM     19  C   UNL     1      -0.517  11.977  21.297  0.00  0.00    +0.000 A 
ATOM     20  C   UNL     1      -0.310  12.309  19.960  0.00  0.00    +0.000 A 
ATOM     21  C   UNL     1       0.351  11.421  19.105  0.00  0.00    +0.000 A 
ATOM     22  C   UNL     1       0.811  10.185  19.602  0.00  0.00    +0.000 A 
ATOM     23  H   UNL     1       1.155   8.163  22.056  0.00  0.00    +0.000 HD
ENDBRANCH   1  15
BRANCH   4  24
ATOM     24  C   UNL     1       5.788   6.304  17.925  0.00  0.00    +0.000 C 
BRANCH  24  25
ATOM     25  C   UNL     1       6.963   5.835  17.034  0.00  0.00    +0.000 C 
BRANCH  25  26
ATOM     26  N   UNL     1       6.715   6.007  15.587  0.00  0.00    +0.000 NA
ATOM     27  C   UNL     1       5.282   5.866  15.271  0.00  0.00    +0.000 C 
ATOM     28  C   UNL     1       5.078   4.385  15.024  0.00  0.00    +0.000 C 
ATOM     29  C   UNL     1       6.345   3.991  14.294  0.00  0.00    +0.000 C 
ATOM     30  C   UNL     1       7.400   4.977  14.783  0.00  0.00    +0.000 C 
ENDBRANCH  25  26
ENDBRANCH  24  25
ENDBRANCH   4  24
TORSDOF 4
ENDMDL
MODEL 9
REMARK VINA RESULT:      -8.1      1.878      7.743
REMARK  Name = 
REMARK  5 active torsions:
REMARK  status: ('A' for Active; 'I' for Inactive)
REMARK    1  A    between atoms: C_1  and  C_2
REMARK    2  A    between atoms: C_3  and  C_4
REMARK    3  A    between atoms: N_7  and  C_8
REMARK    4  A    between atoms: C_8  and  C_9
REMARK    5  A    between atoms: C_9  and  N_10
REMARK                            x       y       z     vdW  Elec       q    Type
REMARK                         _______ _______ _______ _____ _____    ______ ____
ROOT
ATOM      1  C   UNL     1       2.020   7.235  19.839  0.00  0.00    +0.000 A 
ATOM      2  N   UNL     1       2.886   7.049  18.831  0.00  0.00    +0.000 NA
ATOM      3  C   UNL     1       3.344   5.793  18.662  0.00  0.00    +0.000 A 
ATOM      4  N   UNL     1       4.194   5.504  17.571  0.00  0.00    +0.000 N 
ATOM      5  C   UNL     1       2.996   4.745  19.543  0.00  0.00    +0.000 A 
ATOM      6  C   UNL     1       3.476   3.409  19.471  0.00  0.00    +0.000 A 
ATOM      7  C   UNL     1       3.097   2.461  20.421  0.00  0.00    +0.000 A 
ATOM      8  C   UNL     1       2.229   2.824  21.442  0.00  0.00    +0.000 A 
ATOM      9  C   UNL     1       1.749   4.130  21.507  0.00  0.00    +0.000 A 
ATOM     10  C   UNL     1       2.122   5.093  20.578  0.00  0.00    +0.000 A 
ATOM     11  N   UNL     1       1.625   6.315  20.722  0.00  0.00    +0.000 NA
ATOM     12  H   UNL     1       3.746   4.795  16.994  0.00  0.00    +0.000 HD
ENDROOT
BRANCH   1  15
ATOM     13  C   UNL     1       1.215   8.924  22.555  0.00  0.00    +0.000 C 
ATOM     14  C   UNL     1       1.108   9.313  21.119  0.00  0.00    +0.000 A 
ATOM     15  C   UNL     1       1.447   8.566  19.992  0.00  0.00    +0.000 A 
ATOM     16  N   UNL     1       1.145   9.341  18.896  0.00  0.00    +0.000 N 
ATOM     17  C   UNL     1       0.660  10.570  19.270  0.00  0.00    +0.000 A 
ATOM     18  C   UNL     1       0.259  11.666  18.496  0.00  0.00    +0.000 A 
ATOM     19  C   UNL     1      -0.213  12.799  19.167  0.00  0.00    +0.000 A 
ATOM     20  C   UNL     1      -0.279  12.834  20.558  0.00  0.00    +0.000 A 
ATOM     21  C   UNL     1       0.132  11.731  21.314  0.00  0.00    +0.000 A 
ATOM     22  C   UNL     1       0.613  10.578  20.661  0.00  0.00    +0.000 A 
ATOM     23  H   UNL     1       1.287   9.035  17.943  0.00  0.00    +0.000 HD
ENDBRANCH   1  15
BRANCH   4  24
ATOM     24  C   UNL     1       4.667   6.634  16.766  0.00  0.00    +0.000 C 
BRANCH  24  25
ATOM     25  C   UNL     1       5.609   6.130  15.646  0.00  0.00    +0.000 C 
BRANCH  25  26
ATOM     26  N   UNL     1       7.043   6.211  15.995  0.00  0.00    +0.000 NA
ATOM     27  C   UNL     1       7.619   4.869  16.198  0.00  0.00    +0.000 C 
ATOM     28  C   UNL     1       7.387   4.559  17.663  0.00  0.00    +0.000 C 
ATOM     29  C   UNL     1       7.619   5.899  18.328  0.00  0.00    +0.000 C 
ATOM     30  C   UNL     1       7.263   6.930  17.263  0.00  0.00    +0.000 C 
ENDBRANCH  25  26
ENDBRANCH  24  25
ENDBRANCH   4  24
TORSDOF 4
ENDMDL
