MODEL 1
REMARK VINA RESULT:      -8.7      0.000      0.000
REMARK  Name = 
REMARK  6 active torsions:
REMARK  status: ('A' for Active; 'I' for Inactive)
REMARK    1  A    between atoms: C_1  and  C_2
REMARK    2  A    between atoms: C_3  and  C_4
REMARK    3  A    between atoms: C_6  and  C_7
REMARK    4  A    between atoms: C_7  and  O_8
REMARK    5  A    between atoms: C_9  and  O_10
REMARK    6  A    between atoms: C_11  and  O_12
REMARK                            x       y       z     vdW  Elec       q    Type
REMARK                         _______ _______ _______ _____ _____    ______ ____
ROOT
ATOM      1  C   UNL     1       2.603   7.039  18.974  0.00  0.00    +0.000 C 
ATOM      2  C   UNL     1       3.626   6.294  18.184  0.00  0.00    +0.000 C 
ATOM      3  C   UNL     1       3.918   4.976  18.099  0.00  0.00    +0.000 C 
ATOM      4  C   UNL     1       5.211   4.768  17.317  0.00  0.00    +0.000 C 
ATOM      5  C   UNL     1       6.681   4.833  17.759  0.00  0.00    +0.000 C 
ATOM      6  O   UNL     1       7.067   4.980  18.916  0.00  0.00    +0.000 OA
ATOM      7  N   UNL     1       7.491   4.729  16.637  0.00  0.00    +0.000 NA
ATOM      8  C   UNL     1       7.054   5.366  15.584  0.00  0.00    +0.000 C 
ATOM      9  N   UNL     1       7.552   5.112  14.342  0.00  0.00    +0.000 N 
ATOM     10  N   UNL     1       6.066   6.313  15.653  0.00  0.00    +0.000 NA
ATOM     11  C   UNL     1       5.206   6.088  16.583  0.00  0.00    +0.000 C 
ATOM     12  N   UNL     1       4.314   6.924  17.173  0.00  0.00    +0.000 N 
ATOM     13  H   UNL     1       8.395   5.651  14.195  0.00  0.00    +0.000 HD
ATOM     14  H   UNL     1       6.886   5.443  13.650  0.00  0.00    +0.000 HD
ATOM     15  H   UNL     1       4.247   7.912  16.984  0.00  0.00    +0.000 HD
ENDROOT
BRANCH   3  16
ATOM     16  C   UNL     1       2.881   3.860  18.088  0.00  0.00    +0.000 C 
ATOM     17  O   UNL     1       1.700   4.360  18.796  0.00  0.00    +0.000 OA
ATOM     18  C   UNL     1       1.351   3.487  19.900  0.00  0.00    +0.000 C 
ATOM     19  C   UNL     1       1.981   2.153  19.550  0.00  0.00    +0.000 C 
ATOM     20  C   UNL     1       3.269   2.576  18.860  0.00  0.00    +0.000 C 
BRANCH  19  21
ATOM     21  O   UNL     1       1.184   1.422  18.604  0.00  0.00    +0.000 OA
ATOM     22  H   UNL     1       0.570   2.050  18.177  0.00  0.00    +0.000 HD
ENDBRANCH  19  21
BRANCH  20  23
ATOM     23  O   UNL     1       3.756   1.539  18.017  0.00  0.00    +0.000 OA
ATOM     24  H   UNL     1       3.037   1.350  17.380  0.00  0.00    +0.000 HD
ENDBRANCH  20  23
BRANCH  18  25
ATOM     25  C   UNL     1       1.849   4.056  21.239  0.00  0.00    +0.000 C 
BRANCH  25  26
ATOM     26  O   UNL     1       2.110   3.012  22.177  0.00  0.00    +0.000 OA
ATOM     27  H   UNL     1       1.327   2.433  22.189  0.00  0.00    +0.000 HD
ENDBRANCH  25  26
ENDBRANCH  18  25
ENDBRANCH   3  16
TORSDOF 5
ENDMDL
MODEL 2
REMARK VINA RESULT:      -8.4      2.865      5.613
REMARK  Name = 
REMARK  6 active torsions:
REMARK  status: ('A' for Active; 'I' for Inactive)
REMARK    1  A    between atoms: C_1  and  C_2
REMARK    2  A    between atoms: C_3  and  C_4
REMARK    3  A    between atoms: C_6  and  C_7
REMARK    4  A    between atoms: C_7  and  O_8
REMARK    5  A    between atoms: C_9  and  O_10
REMARK    6  A    between atoms: C_11  and  O_12
REMARK                            x       y       z     vdW  Elec       q    Type
REMARK                         _______ _______ _______ _____ _____    ______ ____
ROOT
ATOM      1  C   UNL     1       3.182   7.830  17.491  0.00  0.00    +0.000 C 
ATOM      2  C   UNL     1       3.092   6.485  18.128  0.00  0.00    +0.000 C 
ATOM      3  C   UNL     1       3.492   5.260  17.713  0.00  0.00    +0.000 C 
ATOM      4  C   UNL     1       2.953   4.182  18.648  0.00  0.00    +0.000 C 
ATOM      5  C   UNL     1       1.590   3.472  18.691  0.00  0.00    +0.000 C 
ATOM      6  O   UNL     1       0.694   3.607  17.862  0.00  0.00    +0.000 OA
ATOM      7  N   UNL     1       1.533   2.685  19.832  0.00  0.00    +0.000 NA
ATOM      8  C   UNL     1       2.072   3.218  20.896  0.00  0.00    +0.000 C 
ATOM      9  N   UNL     1       2.375   2.468  21.991  0.00  0.00    +0.000 N 
ATOM     10  N   UNL     1       2.378   4.551  20.976  0.00  0.00    +0.000 NA
ATOM     11  C   UNL     1       2.709   5.069  19.846  0.00  0.00    +0.000 C 
ATOM     12  N   UNL     1       2.751   6.368  19.456  0.00  0.00    +0.000 N 
ATOM     13  H   UNL     1       1.556   2.372  22.577  0.00  0.00    +0.000 HD
ATOM     14  H   UNL     1       3.060   2.970  22.550  0.00  0.00    +0.000 HD
ATOM     15  H   UNL     1       2.451   7.144  20.024  0.00  0.00    +0.000 HD
ENDROOT
BRANCH   3  16
ATOM     16  C   UNL     1       4.788   4.983  16.964  0.00  0.00    +0.000 C 
ATOM     17  O   UNL     1       5.632   4.173  17.845  0.00  0.00    +0.000 OA
ATOM     18  C   UNL     1       6.916   4.812  18.063  0.00  0.00    +0.000 C 
ATOM     19  C   UNL     1       7.084   5.751  16.886  0.00  0.00    +0.000 C 
ATOM     20  C   UNL     1       5.658   6.224  16.646  0.00  0.00    +0.000 C 
BRANCH  19  21
ATOM     21  O   UNL     1       7.530   5.055  15.711  0.00  0.00    +0.000 OA
ATOM     22  H   UNL     1       6.833   5.133  15.031  0.00  0.00    +0.000 HD
ENDBRANCH  19  21
BRANCH  20  23
ATOM     23  O   UNL     1       5.498   6.694  15.313  0.00  0.00    +0.000 OA
ATOM     24  H   UNL     1       5.828   7.615  15.311  0.00  0.00    +0.000 HD
ENDBRANCH  20  23
BRANCH  18  25
ATOM     25  C   UNL     1       6.956   5.533  19.421  0.00  0.00    +0.000 C 
BRANCH  25  26
ATOM     26  O   UNL     1       8.256   5.461  20.004  0.00  0.00    +0.000 OA
ATOM     27  H   UNL     1       8.149   5.580  20.965  0.00  0.00    +0.000 HD
ENDBRANCH  25  26
ENDBRANCH  18  25
ENDBRANCH   3  16
TORSDOF 5
ENDMDL
MODEL 3
REMARK VINA RESULT:      -8.4      1.180      1.531
REMARK  Name = 
REMARK  6 active torsions:
REMARK  status: ('A' for Active; 'I' for Inactive)
REMARK    1  A    between atoms: C_1  and  C_2
REMARK    2  A    between atoms: C_3  and  C_4
REMARK    3  A    between atoms: C_6  and  C_7
REMARK    4  A    between atoms: C_7  and  O_8
REMARK    5  A    between atoms: C_9  and  O_10
REMARK    6  A    between atoms: C_11  and  O_12
REMARK                            x       y       z     vdW  Elec       q    Type
REMARK                         _______ _______ _______ _____ _____    ______ ____
ROOT
ATOM      1  C   UNL     1       2.313   7.637  18.930  0.00  0.00    +0.000 C 
ATOM      2  C   UNL     1       3.384   6.802  18.311  0.00  0.00    +0.000 C 
ATOM      3  C   UNL     1       3.712   5.498  18.460  0.00  0.00    +0.000 C 
ATOM      4  C   UNL     1       5.038   5.203  17.767  0.00  0.00    +0.000 C 
ATOM      5  C   UNL     1       6.489   5.388  18.240  0.00  0.00    +0.000 C 
ATOM      6  O   UNL     1       6.827   5.740  19.367  0.00  0.00    +0.000 OA
ATOM      7  N   UNL     1       7.342   5.123  17.178  0.00  0.00    +0.000 NA
ATOM      8  C   UNL     1       6.929   5.560  16.019  0.00  0.00    +0.000 C 
ATOM      9  N   UNL     1       7.480   5.117  14.855  0.00  0.00    +0.000 N 
ATOM     10  N   UNL     1       5.916   6.474  15.894  0.00  0.00    +0.000 NA
ATOM     11  C   UNL     1       5.028   6.381  16.821  0.00  0.00    +0.000 C 
ATOM     12  N   UNL     1       4.093   7.275  17.231  0.00  0.00    +0.000 N 
ATOM     13  H   UNL     1       8.314   5.651  14.647  0.00  0.00    +0.000 HD
ATOM     14  H   UNL     1       6.832   5.306  14.096  0.00  0.00    +0.000 HD
ATOM     15  H   UNL     1       4.007   8.214  16.876  0.00  0.00    +0.000 HD
ENDROOT
BRANCH   3  16
ATOM     16  C   UNL     1       2.706   4.365  18.603  0.00  0.00    +0.000 C 
ATOM     17  O   UNL     1       2.734   3.935  20.003  0.00  0.00    +0.000 OA
ATOM     18  C   UNL     1       3.028   2.519  20.104  0.00  0.00    +0.000 C 
ATOM     19  C   UNL     1       2.645   1.948  18.753  0.00  0.00    +0.000 C 
ATOM     20  C   UNL     1       3.028   3.077  17.807  0.00  0.00    +0.000 C 
BRANCH  19  21
ATOM     21  O   UNL     1       1.228   1.737  18.649  0.00  0.00    +0.000 OA
ATOM     22  H   UNL     1       1.076   1.032  17.990  0.00  0.00    +0.000 HD
ENDBRANCH  19  21
BRANCH  20  23
ATOM     23  O   UNL     1       2.309   2.978  16.584  0.00  0.00    +0.000 OA
ATOM     24  H   UNL     1       1.652   2.264  16.714  0.00  0.00    +0.000 HD
ENDBRANCH  20  23
BRANCH  18  25
ATOM     25  C   UNL     1       4.505   2.281  20.463  0.00  0.00    +0.000 C 
BRANCH  25  26
ATOM     26  O   UNL     1       5.047   1.193  19.716  0.00  0.00    +0.000 OA
ATOM     27  H   UNL     1       5.992   1.130  19.944  0.00  0.00    +0.000 HD
ENDBRANCH  25  26
ENDBRANCH  18  25
ENDBRANCH   3  16
TORSDOF 5
ENDMDL
MODEL 4
REMARK VINA RESULT:      -8.3      3.139      5.723
REMARK  Name = 
REMARK  6 active torsions:
REMARK  status: ('A' for Active; 'I' for Inactive)
REMARK    1  A    between atoms: C_1  and  C_2
REMARK    2  A    between atoms: C_3  and  C_4
REMARK    3  A    between atoms: C_6  and  C_7
REMARK    4  A    between atoms: C_7  and  O_8
REMARK    5  A    between atoms: C_9  and  O_10
REMARK    6  A    between atoms: C_11  and  O_12
REMARK                            x       y       z     vdW  Elec       q    Type
REMARK                         _______ _______ _______ _____ _____    ______ ____
ROOT
ATOM      1  C   UNL     1       2.509   8.379  17.915  0.00  0.00    +0.000 C 
ATOM      2  C   UNL     1       2.643   7.016  18.506  0.00  0.00    +0.000 C 
ATOM      3  C   UNL     1       3.520   6.013  18.271  0.00  0.00    +0.000 C 
ATOM      4  C   UNL     1       3.073   4.741  18.986  0.00  0.00    +0.000 C 
ATOM      5  C   UNL     1       2.067   3.653  18.577  0.00  0.00    +0.000 C 
ATOM      6  O   UNL     1       1.496   3.588  17.491  0.00  0.00    +0.000 OA
ATOM      7  N   UNL     1       1.891   2.784  19.644  0.00  0.00    +0.000 NA
ATOM      8  C   UNL     1       1.857   3.355  20.818  0.00  0.00    +0.000 C 
ATOM      9  N   UNL     1       2.006   2.634  21.964  0.00  0.00    +0.000 N 
ATOM     10  N   UNL     1       1.685   4.705  20.976  0.00  0.00    +0.000 NA
ATOM     11  C   UNL     1       2.186   5.400  20.016  0.00  0.00    +0.000 C 
ATOM     12  N   UNL     1       1.942   6.682  19.641  0.00  0.00    +0.000 N 
ATOM     13  H   UNL     1       1.114   2.243  22.239  0.00  0.00    +0.000 HD
ATOM     14  H   UNL     1       2.276   3.265  22.713  0.00  0.00    +0.000 HD
ATOM     15  H   UNL     1       1.246   7.276  20.062  0.00  0.00    +0.000 HD
ENDROOT
BRANCH   3  16
ATOM     16  C   UNL     1       5.007   6.208  18.010  0.00  0.00    +0.000 C 
ATOM     17  O   UNL     1       5.182   6.308  16.559  0.00  0.00    +0.000 OA
ATOM     18  C   UNL     1       6.119   5.310  16.081  0.00  0.00    +0.000 C 
ATOM     19  C   UNL     1       6.945   4.942  17.297  0.00  0.00    +0.000 C 
ATOM     20  C   UNL     1       5.921   5.027  18.419  0.00  0.00    +0.000 C 
BRANCH  19  21
ATOM     21  O   UNL     1       7.973   5.912  17.554  0.00  0.00    +0.000 OA
ATOM     22  H   UNL     1       7.914   6.174  18.493  0.00  0.00    +0.000 HD
ENDBRANCH  19  21
BRANCH  20  23
ATOM     23  O   UNL     1       6.560   5.221  19.675  0.00  0.00    +0.000 OA
ATOM     24  H   UNL     1       7.465   5.535  19.471  0.00  0.00    +0.000 HD
ENDBRANCH  20  23
BRANCH  18  25
ATOM     25  C   UNL     1       5.385   4.107  15.464  0.00  0.00    +0.000 C 
BRANCH  25  26
ATOM     26  O   UNL     1       6.211   3.430  14.519  0.00  0.00    +0.000 OA
ATOM     27  H   UNL     1       7.050   3.921  14.464  0.00  0.00    +0.000 HD
ENDBRANCH  25  26
ENDBRANCH  18  25
ENDBRANCH   3  16
TORSDOF 5
ENDMDL
MODEL 5
REMARK VINA RESULT:      -7.9      1.889      3.051
REMARK  Name = 
REMARK  6 active torsions:
REMARK  status: ('A' for Active; 'I' for Inactive)
REMARK    1  A    between atoms: C_1  and  C_2
REMARK    2  A    between atoms: C_3  and  C_4
REMARK    3  A    between atoms: C_6  and  C_7
REMARK    4  A    between atoms: C_7  and  O_8
REMARK    5  A    between atoms: C_9  and  O_10
REMARK    6  A    between atoms: C_11  and  O_12
REMARK                            x       y       z     vdW  Elec       q    Type
REMARK                         _______ _______ _______ _____ _____    ______ ____
ROOT
ATOM      1  C   UNL     1       5.498   3.632  14.234  0.00  0.00    +0.000 C 
ATOM      2  C   UNL     1       5.820   4.075  15.622  0.00  0.00    +0.000 C 
ATOM      3  C   UNL     1       5.031   4.385  16.676  0.00  0.00    +0.000 C 
ATOM      4  C   UNL     1       5.864   5.000  17.797  0.00  0.00    +0.000 C 
ATOM      5  C   UNL     1       6.345   6.442  18.023  0.00  0.00    +0.000 C 
ATOM      6  O   UNL     1       6.033   7.410  17.334  0.00  0.00    +0.000 OA
ATOM      7  N   UNL     1       7.211   6.460  19.108  0.00  0.00    +0.000 NA
ATOM      8  C   UNL     1       8.020   5.437  19.182  0.00  0.00    +0.000 C 
ATOM      9  N   UNL     1       8.696   5.148  20.327  0.00  0.00    +0.000 N 
ATOM     10  N   UNL     1       8.232   4.588  18.127  0.00  0.00    +0.000 NA
ATOM     11  C   UNL     1       7.203   4.450  17.367  0.00  0.00    +0.000 C 
ATOM     12  N   UNL     1       7.109   3.989  16.094  0.00  0.00    +0.000 N 
ATOM     13  H   UNL     1       9.545   5.696  20.371  0.00  0.00    +0.000 HD
ATOM     14  H   UNL     1       8.994   4.177  20.293  0.00  0.00    +0.000 HD
ATOM     15  H   UNL     1       7.897   3.733  15.521  0.00  0.00    +0.000 HD
ENDROOT
BRANCH   3  16
ATOM     16  C   UNL     1       3.756   3.642  17.050  0.00  0.00    +0.000 C 
ATOM     17  O   UNL     1       2.768   4.649  17.443  0.00  0.00    +0.000 OA
ATOM     18  C   UNL     1       2.272   4.392  18.781  0.00  0.00    +0.000 C 
ATOM     19  C   UNL     1       2.541   2.919  19.017  0.00  0.00    +0.000 C 
ATOM     20  C   UNL     1       3.858   2.712  18.284  0.00  0.00    +0.000 C 
BRANCH  19  21
ATOM     21  O   UNL     1       1.546   2.092  18.393  0.00  0.00    +0.000 OA
ATOM     22  H   UNL     1       2.006   1.421  17.853  0.00  0.00    +0.000 HD
ENDBRANCH  19  21
BRANCH  20  23
ATOM     23  O   UNL     1       4.038   1.343  17.942  0.00  0.00    +0.000 OA
ATOM     24  H   UNL     1       3.998   1.302  16.965  0.00  0.00    +0.000 HD
ENDBRANCH  20  23
BRANCH  18  25
ATOM     25  C   UNL     1       2.957   5.304  19.813  0.00  0.00    +0.000 C 
BRANCH  25  26
ATOM     26  O   UNL     1       2.340   5.185  21.095  0.00  0.00    +0.000 OA
ATOM     27  H   UNL     1       2.656   5.930  21.637  0.00  0.00    +0.000 HD
ENDBRANCH  25  26
ENDBRANCH  18  25
ENDBRANCH   3  16
TORSDOF 5
ENDMDL
MODEL 6
REMARK VINA RESULT:      -7.8      2.930      5.874
REMARK  Name = 
REMARK  6 active torsions:
REMARK  status: ('A' for Active; 'I' for Inactive)
REMARK    1  A    between atoms: C_1  and  C_2
REMARK    2  A    between atoms: C_3  and  C_4
REMARK    3  A    between atoms: C_6  and  C_7
REMARK    4  A    between atoms: C_7  and  O_8
REMARK    5  A    between atoms: C_9  and  O_10
REMARK    6  A    between atoms: C_11  and  O_12
REMARK                            x       y       z     vdW  Elec       q    Type
REMARK                         _______ _______ _______ _____ _____    ______ ____
ROOT
ATOM      1  C   UNL     1       3.783   7.226  17.578  0.00  0.00    +0.000 C 
ATOM      2  C   UNL     1       3.447   5.996  18.352  0.00  0.00    +0.000 C 
ATOM      3  C   UNL     1       3.928   4.732  18.293  0.00  0.00    +0.000 C 
ATOM      4  C   UNL     1       3.077   3.802  19.151  0.00  0.00    +0.000 C 
ATOM      5  C   UNL     1       1.758   3.072  18.849  0.00  0.00    +0.000 C 
ATOM      6  O   UNL     1       1.194   3.051  17.758  0.00  0.00    +0.000 OA
ATOM      7  N   UNL     1       1.301   2.474  20.015  0.00  0.00    +0.000 NA
ATOM      8  C   UNL     1       1.470   3.182  21.099  0.00  0.00    +0.000 C 
ATOM      9  N   UNL     1       1.369   2.623  22.336  0.00  0.00    +0.000 N 
ATOM     10  N   UNL     1       1.770   4.519  21.066  0.00  0.00    +0.000 NA
ATOM     11  C   UNL     1       2.473   4.860  20.044  0.00  0.00    +0.000 C 
ATOM     12  N   UNL     1       2.680   6.082  19.490  0.00  0.00    +0.000 N 
ATOM     13  H   UNL     1       0.399   2.600  22.622  0.00  0.00    +0.000 HD
ATOM     14  H   UNL     1       1.842   3.225  23.004  0.00  0.00    +0.000 HD
ATOM     15  H   UNL     1       2.230   6.930  19.797  0.00  0.00    +0.000 HD
ENDROOT
BRANCH   3  16
ATOM     16  C   UNL     1       5.391   4.374  18.073  0.00  0.00    +0.000 C 
ATOM     17  O   UNL     1       6.191   5.331  18.841  0.00  0.00    +0.000 OA
ATOM     18  C   UNL     1       7.136   6.021  17.983  0.00  0.00    +0.000 C 
ATOM     19  C   UNL     1       7.305   5.109  16.784  0.00  0.00    +0.000 C 
ATOM     20  C   UNL     1       5.909   4.528  16.622  0.00  0.00    +0.000 C 
BRANCH  19  21
ATOM     21  O   UNL     1       8.211   4.029  17.063  0.00  0.00    +0.000 OA
ATOM     22  H   UNL     1       8.832   3.955  16.313  0.00  0.00    +0.000 HD
ENDBRANCH  19  21
BRANCH  20  23
ATOM     23  O   UNL     1       5.951   3.298  15.908  0.00  0.00    +0.000 OA
ATOM     24  H   UNL     1       5.205   2.764  16.247  0.00  0.00    +0.000 HD
ENDBRANCH  20  23
BRANCH  18  25
ATOM     25  C   UNL     1       6.626   7.423  17.608  0.00  0.00    +0.000 C 
BRANCH  25  26
ATOM     26  O   UNL     1       7.697   8.261  17.177  0.00  0.00    +0.000 OA
ATOM     27  H   UNL     1       7.485   8.559  16.274  0.00  0.00    +0.000 HD
ENDBRANCH  25  26
ENDBRANCH  18  25
ENDBRANCH   3  16
TORSDOF 5
ENDMDL
MODEL 7
REMARK VINA RESULT:      -7.8      1.367      2.421
REMARK  Name = 
REMARK  6 active torsions:
REMARK  status: ('A' for Active; 'I' for Inactive)
REMARK    1  A    between atoms: C_1  and  C_2
REMARK    2  A    between atoms: C_3  and  C_4
REMARK    3  A    between atoms: C_6  and  C_7
REMARK    4  A    between atoms: C_7  and  O_8
REMARK    5  A    between atoms: C_9  and  O_10
REMARK    6  A    between atoms: C_11  and  O_12
REMARK                            x       y       z     vdW  Elec       q    Type
REMARK                         _______ _______ _______ _____ _____    ______ ____
ROOT
ATOM      1  C   UNL     1       2.884   7.257  19.029  0.00  0.00    +0.000 C 
ATOM      2  C   UNL     1       3.873   6.365  18.356  0.00  0.00    +0.000 C 
ATOM      3  C   UNL     1       4.713   5.421  18.839  0.00  0.00    +0.000 C 
ATOM      4  C   UNL     1       5.677   4.962  17.749  0.00  0.00    +0.000 C 
ATOM      5  C   UNL     1       7.001   5.564  17.252  0.00  0.00    +0.000 C 
ATOM      6  O   UNL     1       7.576   6.525  17.757  0.00  0.00    +0.000 OA
ATOM      7  N   UNL     1       7.416   4.863  16.129  0.00  0.00    +0.000 NA
ATOM      8  C   UNL     1       6.458   4.521  15.310  0.00  0.00    +0.000 C 
ATOM      9  N   UNL     1       6.651   3.578  14.346  0.00  0.00    +0.000 N 
ATOM     10  N   UNL     1       5.205   5.070  15.371  0.00  0.00    +0.000 NA
ATOM     11  C   UNL     1       4.849   5.398  16.563  0.00  0.00    +0.000 C 
ATOM     12  N   UNL     1       3.872   6.240  16.986  0.00  0.00    +0.000 N 
ATOM     13  H   UNL     1       7.063   4.007  13.527  0.00  0.00    +0.000 HD
ATOM     14  H   UNL     1       5.745   3.226  14.050  0.00  0.00    +0.000 HD
ATOM     15  H   UNL     1       3.299   6.801  16.376  0.00  0.00    +0.000 HD
ENDROOT
BRANCH   3  16
ATOM     16  C   UNL     1       4.366   4.443  19.953  0.00  0.00    +0.000 C 
ATOM     17  O   UNL     1       4.918   3.140  19.573  0.00  0.00    +0.000 OA
ATOM     18  C   UNL     1       3.881   2.127  19.548  0.00  0.00    +0.000 C 
ATOM     19  C   UNL     1       2.785   2.675  20.440  0.00  0.00    +0.000 C 
ATOM     20  C   UNL     1       2.856   4.168  20.158  0.00  0.00    +0.000 C 
BRANCH  19  21
ATOM     21  O   UNL     1       3.078   2.466  21.831  0.00  0.00    +0.000 OA
ATOM     22  H   UNL     1       2.596   3.141  22.346  0.00  0.00    +0.000 HD
ENDBRANCH  19  21
BRANCH  20  23
ATOM     23  O   UNL     1       2.290   4.914  21.229  0.00  0.00    +0.000 OA
ATOM     24  H   UNL     1       1.320   4.863  21.109  0.00  0.00    +0.000 HD
ENDBRANCH  20  23
BRANCH  18  25
ATOM     25  C   UNL     1       3.407   1.850  18.111  0.00  0.00    +0.000 C 
BRANCH  25  26
ATOM     26  O   UNL     1       2.008   1.571  18.075  0.00  0.00    +0.000 OA
ATOM     27  H   UNL     1       1.898   0.707  17.638  0.00  0.00    +0.000 HD
ENDBRANCH  25  26
ENDBRANCH  18  25
ENDBRANCH   3  16
TORSDOF 5
ENDMDL
MODEL 8
REMARK VINA RESULT:      -7.6      1.380      2.364
REMARK  Name = 
REMARK  6 active torsions:
REMARK  status: ('A' for Active; 'I' for Inactive)
REMARK    1  A    between atoms: C_1  and  C_2
REMARK    2  A    between atoms: C_3  and  C_4
REMARK    3  A    between atoms: C_6  and  C_7
REMARK    4  A    between atoms: C_7  and  O_8
REMARK    5  A    between atoms: C_9  and  O_10
REMARK    6  A    between atoms: C_11  and  O_12
REMARK                            x       y       z     vdW  Elec       q    Type
REMARK                         _______ _______ _______ _____ _____    ______ ____
ROOT
ATOM      1  C   UNL     1       2.409   7.524  19.246  0.00  0.00    +0.000 C 
ATOM      2  C   UNL     1       3.357   6.509  18.702  0.00  0.00    +0.000 C 
ATOM      3  C   UNL     1       3.920   5.410  19.257  0.00  0.00    +0.000 C 
ATOM      4  C   UNL     1       4.998   4.846  18.337  0.00  0.00    +0.000 C 
ATOM      5  C   UNL     1       6.474   5.231  18.154  0.00  0.00    +0.000 C 
ATOM      6  O   UNL     1       7.082   6.052  18.837  0.00  0.00    +0.000 OA
ATOM      7  N   UNL     1       6.990   4.526  17.076  0.00  0.00    +0.000 NA
ATOM      8  C   UNL     1       6.176   4.396  16.064  0.00  0.00    +0.000 C 
ATOM      9  N   UNL     1       6.406   3.484  15.079  0.00  0.00    +0.000 N 
ATOM     10  N   UNL     1       5.041   5.152  15.930  0.00  0.00    +0.000 NA
ATOM     11  C   UNL     1       4.508   5.477  17.055  0.00  0.00    +0.000 C 
ATOM     12  N   UNL     1       3.614   6.454  17.351  0.00  0.00    +0.000 N 
ATOM     13  H   UNL     1       7.038   3.874  14.393  0.00  0.00    +0.000 HD
ATOM     14  H   UNL     1       5.534   3.309  14.587  0.00  0.00    +0.000 HD
ATOM     15  H   UNL     1       3.274   7.135  16.692  0.00  0.00    +0.000 HD
ENDROOT
BRANCH   3  16
ATOM     16  C   UNL     1       3.202   4.453  20.199  0.00  0.00    +0.000 C 
ATOM     17  O   UNL     1       3.932   3.184  20.165  0.00  0.00    +0.000 OA
ATOM     18  C   UNL     1       3.054   2.092  19.792  0.00  0.00    +0.000 C 
ATOM     19  C   UNL     1       1.660   2.587  20.123  0.00  0.00    +0.000 C 
ATOM     20  C   UNL     1       1.758   4.069  19.792  0.00  0.00    +0.000 C 
BRANCH  19  21
ATOM     21  O   UNL     1       1.370   2.459  21.524  0.00  0.00    +0.000 OA
ATOM     22  H   UNL     1       0.937   1.595  21.665  0.00  0.00    +0.000 HD
ENDBRANCH  19  21
BRANCH  20  23
ATOM     23  O   UNL     1       0.763   4.811  20.488  0.00  0.00    +0.000 OA
ATOM     24  H   UNL     1      -0.073   4.316  20.370  0.00  0.00    +0.000 HD
ENDBRANCH  20  23
BRANCH  18  25
ATOM     25  C   UNL     1       3.225   1.721  18.309  0.00  0.00    +0.000 C 
BRANCH  25  26
ATOM     26  O   UNL     1       4.134   0.633  18.152  0.00  0.00    +0.000 OA
ATOM     27  H   UNL     1       4.141   0.396  17.207  0.00  0.00    +0.000 HD
ENDBRANCH  25  26
ENDBRANCH  18  25
ENDBRANCH   3  16
TORSDOF 5
ENDMDL
MODEL 9
REMARK VINA RESULT:      -7.4      3.071      5.724
REMARK  Name = 
REMARK  6 active torsions:
REMARK  status: ('A' for Active; 'I' for Inactive)
REMARK    1  A    between atoms: C_1  and  C_2
REMARK    2  A    between atoms: C_3  and  C_4
REMARK    3  A    between atoms: C_6  and  C_7
REMARK    4  A    between atoms: C_7  and  O_8
REMARK    5  A    between atoms: C_9  and  O_10
REMARK    6  A    between atoms: C_11  and  O_12
REMARK                            x       y       z     vdW  Elec       q    Type
REMARK                         _______ _______ _______ _____ _____    ______ ____
ROOT
ATOM      1  C   UNL     1       3.398   7.551  17.670  0.00  0.00    +0.000 C 
ATOM      2  C   UNL     1       3.825   6.140  17.898  0.00  0.00    +0.000 C 
ATOM      3  C   UNL     1       4.514   5.268  17.126  0.00  0.00    +0.000 C 
ATOM      4  C   UNL     1       4.482   3.874  17.743  0.00  0.00    +0.000 C 
ATOM      5  C   UNL     1       3.428   2.758  17.665  0.00  0.00    +0.000 C 
ATOM      6  O   UNL     1       2.418   2.785  16.967  0.00  0.00    +0.000 OA
ATOM      7  N   UNL     1       3.791   1.739  18.534  0.00  0.00    +0.000 NA
ATOM      8  C   UNL     1       4.297   2.139  19.670  0.00  0.00    +0.000 C 
ATOM      9  N   UNL     1       4.980   1.287  20.483  0.00  0.00    +0.000 N 
ATOM     10  N   UNL     1       4.187   3.432  20.111  0.00  0.00    +0.000 NA
ATOM     11  C   UNL     1       4.164   4.296  19.158  0.00  0.00    +0.000 C 
ATOM     12  N   UNL     1       3.744   5.587  19.155  0.00  0.00    +0.000 N 
ATOM     13  H   UNL     1       4.330   0.776  21.066  0.00  0.00    +0.000 HD
ATOM     14  H   UNL     1       5.554   1.834  21.119  0.00  0.00    +0.000 HD
ATOM     15  H   UNL     1       3.311   6.047  19.940  0.00  0.00    +0.000 HD
ENDROOT
BRANCH   3  16
ATOM     16  C   UNL     1       5.702   5.642  16.250  0.00  0.00    +0.000 C 
ATOM     17  O   UNL     1       5.198   5.807  14.884  0.00  0.00    +0.000 OA
ATOM     18  C   UNL     1       5.906   4.939  13.963  0.00  0.00    +0.000 C 
ATOM     19  C   UNL     1       7.219   4.632  14.655  0.00  0.00    +0.000 C 
ATOM     20  C   UNL     1       6.804   4.563  16.117  0.00  0.00    +0.000 C 
BRANCH  19  21
ATOM     21  O   UNL     1       8.161   5.706  14.506  0.00  0.00    +0.000 OA
ATOM     22  H   UNL     1       8.685   5.764  15.328  0.00  0.00    +0.000 HD
ENDBRANCH  19  21
BRANCH  20  23
ATOM     23  O   UNL     1       7.918   4.791  16.971  0.00  0.00    +0.000 OA
ATOM     24  H   UNL     1       8.055   5.760  16.984  0.00  0.00    +0.000 HD
ENDBRANCH  20  23
BRANCH  18  25
ATOM     25  C   UNL     1       5.084   3.679  13.642  0.00  0.00    +0.000 C 
BRANCH  25  26
ATOM     26  O   UNL     1       5.731   2.882  12.651  0.00  0.00    +0.000 OA
ATOM     27  H   UNL     1       6.314   3.473  12.141  0.00  0.00    +0.000 HD
ENDBRANCH  25  26
ENDBRANCH  18  25
ENDBRANCH   3  16
TORSDOF 5
ENDMDL
