MODEL 1
REMARK VINA RESULT:      -8.2      0.000      0.000
REMARK  Name = 
REMARK  8 active torsions:
REMARK  status: ('A' for Active; 'I' for Inactive)
REMARK    1  A    between atoms: C_1  and  O_2
REMARK    2  A    between atoms: O_2  and  N_3
REMARK    3  A    between atoms: C_4  and  C_6
REMARK    4  A    between atoms: C_9  and  C_10
REMARK    5  A    between atoms: C_13  and  C_14
REMARK    6  A    between atoms: C_17  and  C_18
REMARK    7  A    between atoms: N_20  and  O_21
REMARK    8  A    between atoms: O_21  and  C_22
REMARK                            x       y       z     vdW  Elec       q    Type
REMARK                         _______ _______ _______ _____ _____    ______ ____
ROOT
ATOM      1  C   UNL     1       3.088   5.860  19.018  0.00  0.00    +0.000 A 
ATOM      2  C   UNL     1       2.597   5.146  20.094  0.00  0.00    +0.000 A 
ATOM      3  C   UNL     1       1.778   6.033  20.837  0.00  0.00    +0.000 A 
ATOM      4  C   UNL     1       1.809   7.245  20.178  0.00  0.00    +0.000 A 
ATOM      5  O   UNL     1       2.598   7.137  19.067  0.00  0.00    +0.000 OA
ENDROOT
BRANCH   1   9
ATOM      6  C   UNL     1       5.628   4.874  15.707  0.00  0.00    +0.000 A 
ATOM      7  C   UNL     1       5.087   3.865  16.507  0.00  0.00    +0.000 A 
ATOM      8  C   UNL     1       4.269   4.196  17.593  0.00  0.00    +0.000 A 
ATOM      9  C   UNL     1       3.968   5.534  17.896  0.00  0.00    +0.000 A 
ATOM     10  C   UNL     1       4.534   6.537  17.091  0.00  0.00    +0.000 A 
ATOM     11  C   UNL     1       5.360   6.211  16.010  0.00  0.00    +0.000 A 
BRANCH   6  13
ATOM     12  N   UNL     1       6.230   3.369  13.826  0.00  0.00    +0.000 N 
ATOM     13  C   UNL     1       6.469   4.542  14.521  0.00  0.00    +0.000 C 
ATOM     14  N   UNL     1       7.400   5.373  14.162  0.00  0.00    +0.000 NA
ATOM     15  H   UNL     1       5.284   3.008  13.931  0.00  0.00    +0.000 HD
ATOM     16  H   UNL     1       7.830   4.953  13.326  0.00  0.00    +0.000 HD
BRANCH  12  18
ATOM     17  C   UNL     1       5.542   2.964  11.695  0.00  0.00    +0.000 C 
ATOM     18  O   UNL     1       6.618   3.469  12.480  0.00  0.00    +0.000 OA
ENDBRANCH  12  18
ENDBRANCH   6  13
ENDBRANCH   1   9
BRANCH   4  19
ATOM     19  C   UNL     1       1.222   8.558  20.428  0.00  0.00    +0.000 A 
ATOM     20  C   UNL     1       0.766   8.911  21.707  0.00  0.00    +0.000 A 
ATOM     21  C   UNL     1       0.237  10.185  21.960  0.00  0.00    +0.000 A 
ATOM     22  C   UNL     1       0.138  11.129  20.930  0.00  0.00    +0.000 A 
ATOM     23  C   UNL     1       0.559  10.769  19.642  0.00  0.00    +0.000 A 
ATOM     24  C   UNL     1       1.103   9.502  19.400  0.00  0.00    +0.000 A 
BRANCH  22  25
ATOM     25  C   UNL     1      -0.410  12.508  21.196  0.00  0.00    +0.000 C 
ATOM     26  N   UNL     1      -0.058  13.155  22.266  0.00  0.00    +0.000 NA
ATOM     27  N   UNL     1      -1.306  13.051  20.284  0.00  0.00    +0.000 N 
ATOM     28  H   UNL     1       0.577  12.619  22.858  0.00  0.00    +0.000 HD
ATOM     29  H   UNL     1      -1.276  12.645  19.353  0.00  0.00    +0.000 HD
BRANCH  27  30
ATOM     30  O   UNL     1      -1.232  14.453  20.224  0.00  0.00    +0.000 OA
ATOM     31  C   UNL     1      -0.359  14.785  19.148  0.00  0.00    +0.000 C 
ENDBRANCH  27  30
ENDBRANCH  22  25
ENDBRANCH   4  19
TORSDOF 6
ENDMDL
MODEL 2
REMARK VINA RESULT:      -8.1      1.036      1.534
REMARK  Name = 
REMARK  8 active torsions:
REMARK  status: ('A' for Active; 'I' for Inactive)
REMARK    1  A    between atoms: C_1  and  O_2
REMARK    2  A    between atoms: O_2  and  N_3
REMARK    3  A    between atoms: C_4  and  C_6
REMARK    4  A    between atoms: C_9  and  C_10
REMARK    5  A    between atoms: C_13  and  C_14
REMARK    6  A    between atoms: C_17  and  C_18
REMARK    7  A    between atoms: N_20  and  O_21
REMARK    8  A    between atoms: O_21  and  C_22
REMARK                            x       y       z     vdW  Elec       q    Type
REMARK                         _______ _______ _______ _____ _____    ______ ____
ROOT
ATOM      1  C   UNL     1       3.084   5.656  18.955  0.00  0.00    +0.000 A 
ATOM      2  C   UNL     1       2.507   4.855  19.920  0.00  0.00    +0.000 A 
ATOM      3  C   UNL     1       1.715   5.701  20.737  0.00  0.00    +0.000 A 
ATOM      4  C   UNL     1       1.848   6.978  20.230  0.00  0.00    +0.000 A 
ATOM      5  O   UNL     1       2.674   6.949  19.140  0.00  0.00    +0.000 OA
ENDROOT
BRANCH   1   9
ATOM      6  C   UNL     1       5.692   4.894  15.637  0.00  0.00    +0.000 A 
ATOM      7  C   UNL     1       5.196   3.836  16.403  0.00  0.00    +0.000 A 
ATOM      8  C   UNL     1       4.355   4.095  17.491  0.00  0.00    +0.000 A 
ATOM      9  C   UNL     1       3.987   5.407  17.831  0.00  0.00    +0.000 A 
ATOM     10  C   UNL     1       4.508   6.460  17.060  0.00  0.00    +0.000 A 
ATOM     11  C   UNL     1       5.357   6.207  15.976  0.00  0.00    +0.000 A 
BRANCH   6  13
ATOM     12  N   UNL     1       6.280   3.559  13.627  0.00  0.00    +0.000 N 
ATOM     13  C   UNL     1       6.557   4.638  14.449  0.00  0.00    +0.000 C 
ATOM     14  N   UNL     1       7.543   5.447  14.208  0.00  0.00    +0.000 NA
ATOM     15  H   UNL     1       5.313   3.244  13.665  0.00  0.00    +0.000 HD
ATOM     16  H   UNL     1       7.980   5.092  13.346  0.00  0.00    +0.000 HD
BRANCH  12  18
ATOM     17  C   UNL     1       6.550   2.551  11.606  0.00  0.00    +0.000 C 
ATOM     18  O   UNL     1       6.721   3.775  12.312  0.00  0.00    +0.000 OA
ENDBRANCH  12  18
ENDBRANCH   6  13
ENDBRANCH   1   9
BRANCH   4  19
ATOM     19  C   UNL     1       1.335   8.287  20.617  0.00  0.00    +0.000 A 
ATOM     20  C   UNL     1       1.109   9.285  19.656  0.00  0.00    +0.000 A 
ATOM     21  C   UNL     1       0.579  10.532  20.018  0.00  0.00    +0.000 A 
ATOM     22  C   UNL     1       0.279  10.812  21.357  0.00  0.00    +0.000 A 
ATOM     23  C   UNL     1       0.535   9.832  22.326  0.00  0.00    +0.000 A 
ATOM     24  C   UNL     1       1.048   8.583  21.956  0.00  0.00    +0.000 A 
BRANCH  22  25
ATOM     25  C   UNL     1      -0.311  12.142  21.754  0.00  0.00    +0.000 C 
ATOM     26  N   UNL     1       0.241  13.248  21.354  0.00  0.00    +0.000 NA
ATOM     27  N   UNL     1      -1.438  12.149  22.567  0.00  0.00    +0.000 N 
ATOM     28  H   UNL     1       1.078  13.087  20.794  0.00  0.00    +0.000 HD
ATOM     29  H   UNL     1      -1.979  11.290  22.564  0.00  0.00    +0.000 HD
BRANCH  27  30
ATOM     30  O   UNL     1      -2.262  13.264  22.337  0.00  0.00    +0.000 OA
ATOM     31  C   UNL     1      -3.569  12.773  22.059  0.00  0.00    +0.000 C 
ENDBRANCH  27  30
ENDBRANCH  22  25
ENDBRANCH   4  19
TORSDOF 6
ENDMDL
MODEL 3
REMARK VINA RESULT:      -8.1      0.854      1.563
REMARK  Name = 
REMARK  8 active torsions:
REMARK  status: ('A' for Active; 'I' for Inactive)
REMARK    1  A    between atoms: C_1  and  O_2
REMARK    2  A    between atoms: O_2  and  N_3
REMARK    3  A    between atoms: C_4  and  C_6
REMARK    4  A    between atoms: C_9  and  C_10
REMARK    5  A    between atoms: C_13  and  C_14
REMARK    6  A    between atoms: C_17  and  C_18
REMARK    7  A    between atoms: N_20  and  O_21
REMARK    8  A    between atoms: O_21  and  C_22
REMARK                            x       y       z     vdW  Elec       q    Type
REMARK                         _______ _______ _______ _____ _____    ______ ____
ROOT
ATOM      1  C   UNL     1       3.054   5.613  18.860  0.00  0.00    +0.000 A 
ATOM      2  C   UNL     1       2.507   4.814  19.845  0.00  0.00    +0.000 A 
ATOM      3  C   UNL     1       1.752   5.665  20.691  0.00  0.00    +0.000 A 
ATOM      4  C   UNL     1       1.874   6.941  20.181  0.00  0.00    +0.000 A 
ATOM      5  O   UNL     1       2.659   6.908  19.062  0.00  0.00    +0.000 OA
ENDROOT
BRANCH   1   9
ATOM      6  C   UNL     1       5.613   4.899  15.494  0.00  0.00    +0.000 A 
ATOM      7  C   UNL     1       5.308   6.205  15.884  0.00  0.00    +0.000 A 
ATOM      8  C   UNL     1       4.463   6.429  16.977  0.00  0.00    +0.000 A 
ATOM      9  C   UNL     1       3.914   5.359  17.703  0.00  0.00    +0.000 A 
ATOM     10  C   UNL     1       4.218   4.053  17.287  0.00  0.00    +0.000 A 
ATOM     11  C   UNL     1       5.056   3.824  16.190  0.00  0.00    +0.000 A 
BRANCH   6  13
ATOM     12  N   UNL     1       6.287   3.586  13.497  0.00  0.00    +0.000 N 
ATOM     13  C   UNL     1       6.544   4.638  14.358  0.00  0.00    +0.000 C 
ATOM     14  N   UNL     1       7.570   5.417  14.199  0.00  0.00    +0.000 NA
ATOM     15  H   UNL     1       5.310   3.302  13.464  0.00  0.00    +0.000 HD
ATOM     16  H   UNL     1       8.050   5.065  13.360  0.00  0.00    +0.000 HD
BRANCH  12  18
ATOM     17  C   UNL     1       6.815   2.564  11.533  0.00  0.00    +0.000 C 
ATOM     18  O   UNL     1       6.819   3.813  12.218  0.00  0.00    +0.000 OA
ENDBRANCH  12  18
ENDBRANCH   6  13
ENDBRANCH   1   9
BRANCH   4  19
ATOM     19  C   UNL     1       1.383   8.253  20.587  0.00  0.00    +0.000 A 
ATOM     20  C   UNL     1       1.214   9.282  19.647  0.00  0.00    +0.000 A 
ATOM     21  C   UNL     1       0.706  10.533  20.027  0.00  0.00    +0.000 A 
ATOM     22  C   UNL     1       0.372  10.786  21.364  0.00  0.00    +0.000 A 
ATOM     23  C   UNL     1       0.572   9.774  22.313  0.00  0.00    +0.000 A 
ATOM     24  C   UNL     1       1.063   8.521  21.924  0.00  0.00    +0.000 A 
BRANCH  22  25
ATOM     25  C   UNL     1      -0.195  12.120  21.778  0.00  0.00    +0.000 C 
ATOM     26  N   UNL     1      -0.729  12.267  22.953  0.00  0.00    +0.000 NA
ATOM     27  N   UNL     1      -0.147  13.169  20.869  0.00  0.00    +0.000 N 
ATOM     28  H   UNL     1      -0.723  11.404  23.497  0.00  0.00    +0.000 HD
ATOM     29  H   UNL     1       0.548  13.075  20.135  0.00  0.00    +0.000 HD
BRANCH  27  30
ATOM     30  O   UNL     1      -0.049  14.423  21.496  0.00  0.00    +0.000 OA
ATOM     31  C   UNL     1       1.313  14.831  21.416  0.00  0.00    +0.000 C 
ENDBRANCH  27  30
ENDBRANCH  22  25
ENDBRANCH   4  19
TORSDOF 6
ENDMDL
MODEL 4
REMARK VINA RESULT:      -8.1      1.122     10.340
REMARK  Name = 
REMARK  8 active torsions:
REMARK  status: ('A' for Active; 'I' for Inactive)
REMARK    1  A    between atoms: C_1  and  O_2
REMARK    2  A    between atoms: O_2  and  N_3
REMARK    3  A    between atoms: C_4  and  C_6
REMARK    4  A    between atoms: C_9  and  C_10
REMARK    5  A    between atoms: C_13  and  C_14
REMARK    6  A    between atoms: C_17  and  C_18
REMARK    7  A    between atoms: N_20  and  O_21
REMARK    8  A    between atoms: O_21  and  C_22
REMARK                            x       y       z     vdW  Elec       q    Type
REMARK                         _______ _______ _______ _____ _____    ______ ____
ROOT
ATOM      1  C   UNL     1       1.702   7.154  20.387  0.00  0.00    +0.000 A 
ATOM      2  C   UNL     1       1.571   5.877  20.899  0.00  0.00    +0.000 A 
ATOM      3  C   UNL     1       2.347   5.023  20.076  0.00  0.00    +0.000 A 
ATOM      4  C   UNL     1       2.914   5.819  19.102  0.00  0.00    +0.000 A 
ATOM      5  O   UNL     1       2.528   7.116  19.296  0.00  0.00    +0.000 OA
ENDROOT
BRANCH   1   9
ATOM      6  C   UNL     1       0.105  10.985  21.462  0.00  0.00    +0.000 A 
ATOM      7  C   UNL     1       0.480  10.722  20.143  0.00  0.00    +0.000 A 
ATOM      8  C   UNL     1       1.011   9.472  19.803  0.00  0.00    +0.000 A 
ATOM      9  C   UNL     1       1.171   8.463  20.766  0.00  0.00    +0.000 A 
ATOM     10  C   UNL     1       0.804   8.751  22.091  0.00  0.00    +0.000 A 
ATOM     11  C   UNL     1       0.280  10.001  22.438  0.00  0.00    +0.000 A 
BRANCH   6  13
ATOM     12  N   UNL     1      -1.237  12.393  23.006  0.00  0.00    +0.000 N 
ATOM     13  C   UNL     1      -0.501  12.295  21.838  0.00  0.00    +0.000 C 
ATOM     14  N   UNL     1      -0.310  13.318  21.062  0.00  0.00    +0.000 NA
ATOM     15  H   UNL     1      -1.008  11.689  23.704  0.00  0.00    +0.000 HD
ATOM     16  H   UNL     1      -0.796  14.101  21.520  0.00  0.00    +0.000 HD
BRANCH  12  18
ATOM     17  C   UNL     1      -2.550  14.019  23.906  0.00  0.00    +0.000 C 
ATOM     18  O   UNL     1      -1.215  13.694  23.532  0.00  0.00    +0.000 OA
ENDBRANCH  12  18
ENDBRANCH   6  13
ENDBRANCH   1   9
BRANCH   4  19
ATOM     19  C   UNL     1       3.774   5.566  17.951  0.00  0.00    +0.000 A 
ATOM     20  C   UNL     1       4.018   4.257  17.507  0.00  0.00    +0.000 A 
ATOM     21  C   UNL     1       4.812   4.013  16.377  0.00  0.00    +0.000 A 
ATOM     22  C   UNL     1       5.395   5.077  15.677  0.00  0.00    +0.000 A 
ATOM     23  C   UNL     1       5.184   6.384  16.137  0.00  0.00    +0.000 A 
ATOM     24  C   UNL     1       4.375   6.623  17.254  0.00  0.00    +0.000 A 
BRANCH  22  25
ATOM     25  C   UNL     1       6.234   4.825  14.450  0.00  0.00    +0.000 C 
ATOM     26  N   UNL     1       7.461   5.246  14.399  0.00  0.00    +0.000 NA
ATOM     27  N   UNL     1       5.653   4.155  13.379  0.00  0.00    +0.000 N 
ATOM     28  H   UNL     1       7.738   5.749  15.241  0.00  0.00    +0.000 HD
ATOM     29  H   UNL     1       4.839   3.594  13.610  0.00  0.00    +0.000 HD
BRANCH  27  30
ATOM     30  O   UNL     1       6.587   3.408  12.641  0.00  0.00    +0.000 OA
ATOM     31  C   UNL     1       5.852   2.557  11.767  0.00  0.00    +0.000 C 
ENDBRANCH  27  30
ENDBRANCH  22  25
ENDBRANCH   4  19
TORSDOF 6
ENDMDL
MODEL 5
REMARK VINA RESULT:      -8.1      0.728      1.184
REMARK  Name = 
REMARK  8 active torsions:
REMARK  status: ('A' for Active; 'I' for Inactive)
REMARK    1  A    between atoms: C_1  and  O_2
REMARK    2  A    between atoms: O_2  and  N_3
REMARK    3  A    between atoms: C_4  and  C_6
REMARK    4  A    between atoms: C_9  and  C_10
REMARK    5  A    between atoms: C_13  and  C_14
REMARK    6  A    between atoms: C_17  and  C_18
REMARK    7  A    between atoms: N_20  and  O_21
REMARK    8  A    between atoms: O_21  and  C_22
REMARK                            x       y       z     vdW  Elec       q    Type
REMARK                         _______ _______ _______ _____ _____    ______ ____
ROOT
ATOM      1  C   UNL     1       3.059   5.831  18.966  0.00  0.00    +0.000 A 
ATOM      2  C   UNL     1       2.600   5.101  20.045  0.00  0.00    +0.000 A 
ATOM      3  C   UNL     1       1.799   5.976  20.822  0.00  0.00    +0.000 A 
ATOM      4  C   UNL     1       1.808   7.196  20.179  0.00  0.00    +0.000 A 
ATOM      5  O   UNL     1       2.567   7.106  19.045  0.00  0.00    +0.000 OA
ENDROOT
BRANCH   1   9
ATOM      6  C   UNL     1       5.589   4.956  15.616  0.00  0.00    +0.000 A 
ATOM      7  C   UNL     1       5.332   6.281  15.980  0.00  0.00    +0.000 A 
ATOM      8  C   UNL     1       4.496   6.557  17.068  0.00  0.00    +0.000 A 
ATOM      9  C   UNL     1       3.908   5.523  17.815  0.00  0.00    +0.000 A 
ATOM     10  C   UNL     1       4.164   4.198  17.425  0.00  0.00    +0.000 A 
ATOM     11  C   UNL     1       4.993   3.917  16.333  0.00  0.00    +0.000 A 
BRANCH   6  13
ATOM     12  N   UNL     1       6.230   3.562  13.664  0.00  0.00    +0.000 N 
ATOM     13  C   UNL     1       6.510   4.639  14.486  0.00  0.00    +0.000 C 
ATOM     14  N   UNL     1       7.549   5.394  14.295  0.00  0.00    +0.000 NA
ATOM     15  H   UNL     1       5.248   3.295  13.646  0.00  0.00    +0.000 HD
ATOM     16  H   UNL     1       8.019   5.004  13.467  0.00  0.00    +0.000 HD
BRANCH  12  18
ATOM     17  C   UNL     1       6.426   2.571  11.625  0.00  0.00    +0.000 C 
ATOM     18  O   UNL     1       6.760   3.734  12.375  0.00  0.00    +0.000 OA
ENDBRANCH  12  18
ENDBRANCH   6  13
ENDBRANCH   1   9
BRANCH   4  19
ATOM     19  C   UNL     1       1.225   8.503  20.463  0.00  0.00    +0.000 A 
ATOM     20  C   UNL     1       0.802   8.838  21.759  0.00  0.00    +0.000 A 
ATOM     21  C   UNL     1       0.277  10.107  22.044  0.00  0.00    +0.000 A 
ATOM     22  C   UNL     1       0.147  11.064  21.029  0.00  0.00    +0.000 A 
ATOM     23  C   UNL     1       0.535  10.723  19.726  0.00  0.00    +0.000 A 
ATOM     24  C   UNL     1       1.075   9.461  19.452  0.00  0.00    +0.000 A 
BRANCH  22  25
ATOM     25  C   UNL     1      -0.396  12.438  21.329  0.00  0.00    +0.000 C 
ATOM     26  N   UNL     1       0.329  13.302  21.973  0.00  0.00    +0.000 NA
ATOM     27  N   UNL     1      -1.689  12.741  20.919  0.00  0.00    +0.000 N 
ATOM     28  H   UNL     1       1.240  12.928  22.238  0.00  0.00    +0.000 HD
ATOM     29  H   UNL     1      -2.053  12.160  20.170  0.00  0.00    +0.000 HD
BRANCH  27  30
ATOM     30  O   UNL     1      -1.856  14.105  20.627  0.00  0.00    +0.000 OA
ATOM     31  C   UNL     1      -3.132  14.492  21.128  0.00  0.00    +0.000 C 
ENDBRANCH  27  30
ENDBRANCH  22  25
ENDBRANCH   4  19
TORSDOF 6
ENDMDL
MODEL 6
REMARK VINA RESULT:      -8.0      0.953      1.344
REMARK  Name = 
REMARK  8 active torsions:
REMARK  status: ('A' for Active; 'I' for Inactive)
REMARK    1  A    between atoms: C_1  and  O_2
REMARK    2  A    between atoms: O_2  and  N_3
REMARK    3  A    between atoms: C_4  and  C_6
REMARK    4  A    between atoms: C_9  and  C_10
REMARK    5  A    between atoms: C_13  and  C_14
REMARK    6  A    between atoms: C_17  and  C_18
REMARK    7  A    between atoms: N_20  and  O_21
REMARK    8  A    between atoms: O_21  and  C_22
REMARK                            x       y       z     vdW  Elec       q    Type
REMARK                         _______ _______ _______ _____ _____    ______ ____
ROOT
ATOM      1  C   UNL     1       2.828   5.722  19.133  0.00  0.00    +0.000 A 
ATOM      2  C   UNL     1       2.274   4.944  20.131  0.00  0.00    +0.000 A 
ATOM      3  C   UNL     1       1.506   5.811  20.949  0.00  0.00    +0.000 A 
ATOM      4  C   UNL     1       1.628   7.075  20.410  0.00  0.00    +0.000 A 
ATOM      5  O   UNL     1       2.425   7.019  19.300  0.00  0.00    +0.000 OA
ENDROOT
BRANCH   1   9
ATOM      6  C   UNL     1       5.425   4.935  15.812  0.00  0.00    +0.000 A 
ATOM      7  C   UNL     1       5.202   6.246  16.239  0.00  0.00    +0.000 A 
ATOM      8  C   UNL     1       4.344   6.495  17.316  0.00  0.00    +0.000 A 
ATOM      9  C   UNL     1       3.700   5.445  17.991  0.00  0.00    +0.000 A 
ATOM     10  C   UNL     1       3.922   4.134  17.538  0.00  0.00    +0.000 A 
ATOM     11  C   UNL     1       4.773   3.881  16.456  0.00  0.00    +0.000 A 
BRANCH   6  13
ATOM     12  N   UNL     1       6.216   3.479  13.963  0.00  0.00    +0.000 N 
ATOM     13  C   UNL     1       6.367   4.644  14.693  0.00  0.00    +0.000 C 
ATOM     14  N   UNL     1       7.302   5.504  14.424  0.00  0.00    +0.000 NA
ATOM     15  H   UNL     1       5.274   3.092  13.985  0.00  0.00    +0.000 HD
ATOM     16  H   UNL     1       7.809   5.110  13.620  0.00  0.00    +0.000 HD
BRANCH  12  18
ATOM     17  C   UNL     1       5.785   2.957  11.790  0.00  0.00    +0.000 C 
ATOM     18  O   UNL     1       6.708   3.612  12.655  0.00  0.00    +0.000 OA
ENDBRANCH  12  18
ENDBRANCH   6  13
ENDBRANCH   1   9
BRANCH   4  19
ATOM     19  C   UNL     1       1.128   8.395  20.780  0.00  0.00    +0.000 A 
ATOM     20  C   UNL     1       0.590   8.630  22.054  0.00  0.00    +0.000 A 
ATOM     21  C   UNL     1       0.144   9.907  22.427  0.00  0.00    +0.000 A 
ATOM     22  C   UNL     1       0.211  10.973  21.521  0.00  0.00    +0.000 A 
ATOM     23  C   UNL     1       0.715  10.736  20.235  0.00  0.00    +0.000 A 
ATOM     24  C   UNL     1       1.175   9.463  19.875  0.00  0.00    +0.000 A 
BRANCH  22  25
ATOM     25  C   UNL     1      -0.246  12.354  21.919  0.00  0.00    +0.000 C 
ATOM     26  N   UNL     1      -1.330  12.507  22.619  0.00  0.00    +0.000 NA
ATOM     27  N   UNL     1       0.507  13.445  21.503  0.00  0.00    +0.000 N 
ATOM     28  H   UNL     1      -1.794  11.622  22.821  0.00  0.00    +0.000 HD
ATOM     29  H   UNL     1       1.470  13.238  21.257  0.00  0.00    +0.000 HD
BRANCH  27  30
ATOM     30  O   UNL     1       0.437  14.523  22.402  0.00  0.00    +0.000 OA
ATOM     31  C   UNL     1       0.242  15.704  21.632  0.00  0.00    +0.000 C 
ENDBRANCH  27  30
ENDBRANCH  22  25
ENDBRANCH   4  19
TORSDOF 6
ENDMDL
MODEL 7
REMARK VINA RESULT:      -8.0      1.099      1.616
REMARK  Name = 
REMARK  8 active torsions:
REMARK  status: ('A' for Active; 'I' for Inactive)
REMARK    1  A    between atoms: C_1  and  O_2
REMARK    2  A    between atoms: O_2  and  N_3
REMARK    3  A    between atoms: C_4  and  C_6
REMARK    4  A    between atoms: C_9  and  C_10
REMARK    5  A    between atoms: C_13  and  C_14
REMARK    6  A    between atoms: C_17  and  C_18
REMARK    7  A    between atoms: N_20  and  O_21
REMARK    8  A    between atoms: O_21  and  C_22
REMARK                            x       y       z     vdW  Elec       q    Type
REMARK                         _______ _______ _______ _____ _____    ______ ____
ROOT
ATOM      1  C   UNL     1       3.172   6.264  18.776  0.00  0.00    +0.000 A 
ATOM      2  C   UNL     1       2.789   5.695  19.976  0.00  0.00    +0.000 A 
ATOM      3  C   UNL     1       1.903   6.609  20.599  0.00  0.00    +0.000 A 
ATOM      4  C   UNL     1       1.788   7.691  19.751  0.00  0.00    +0.000 A 
ATOM      5  O   UNL     1       2.553   7.477  18.637  0.00  0.00    +0.000 OA
ENDROOT
BRANCH   1   9
ATOM      6  C   UNL     1       5.705   5.000  15.555  0.00  0.00    +0.000 A 
ATOM      7  C   UNL     1       5.156   4.061  16.432  0.00  0.00    +0.000 A 
ATOM      8  C   UNL     1       4.340   4.484  17.487  0.00  0.00    +0.000 A 
ATOM      9  C   UNL     1       4.050   5.844  17.684  0.00  0.00    +0.000 A 
ATOM     10  C   UNL     1       4.624   6.775  16.803  0.00  0.00    +0.000 A 
ATOM     11  C   UNL     1       5.447   6.358  15.751  0.00  0.00    +0.000 A 
BRANCH   6  13
ATOM     12  N   UNL     1       6.261   3.371  13.766  0.00  0.00    +0.000 N 
ATOM     13  C   UNL     1       6.543   4.568  14.400  0.00  0.00    +0.000 C 
ATOM     14  N   UNL     1       7.513   5.338  14.009  0.00  0.00    +0.000 NA
ATOM     15  H   UNL     1       5.299   3.056  13.877  0.00  0.00    +0.000 HD
ATOM     16  H   UNL     1       7.933   4.856  13.202  0.00  0.00    +0.000 HD
BRANCH  12  18
ATOM     17  C   UNL     1       5.622   2.781  11.663  0.00  0.00    +0.000 C 
ATOM     18  O   UNL     1       6.667   3.381  12.422  0.00  0.00    +0.000 OA
ENDBRANCH  12  18
ENDBRANCH   6  13
ENDBRANCH   1   9
BRANCH   4  19
ATOM     19  C   UNL     1       1.073   8.962  19.809  0.00  0.00    +0.000 A 
ATOM     20  C   UNL     1       0.955   9.774  18.671  0.00  0.00    +0.000 A 
ATOM     21  C   UNL     1       0.236  10.978  18.712  0.00  0.00    +0.000 A 
ATOM     22  C   UNL     1      -0.366  11.402  19.904  0.00  0.00    +0.000 A 
ATOM     23  C   UNL     1      -0.221  10.612  21.052  0.00  0.00    +0.000 A 
ATOM     24  C   UNL     1       0.483   9.403  21.000  0.00  0.00    +0.000 A 
BRANCH  22  25
ATOM     25  C   UNL     1      -1.158  12.684  19.953  0.00  0.00    +0.000 C 
ATOM     26  N   UNL     1      -0.944  13.620  19.079  0.00  0.00    +0.000 NA
ATOM     27  N   UNL     1      -2.100  12.840  20.963  0.00  0.00    +0.000 N 
ATOM     28  H   UNL     1      -0.202  13.379  18.421  0.00  0.00    +0.000 HD
ATOM     29  H   UNL     1      -2.429  11.977  21.386  0.00  0.00    +0.000 HD
BRANCH  27  30
ATOM     30  O   UNL     1      -3.178  13.653  20.574  0.00  0.00    +0.000 OA
ATOM     31  C   UNL     1      -4.263  12.790  20.248  0.00  0.00    +0.000 C 
ENDBRANCH  27  30
ENDBRANCH  22  25
ENDBRANCH   4  19
TORSDOF 6
ENDMDL
MODEL 8
REMARK VINA RESULT:      -8.0      1.207     10.343
REMARK  Name = 
REMARK  8 active torsions:
REMARK  status: ('A' for Active; 'I' for Inactive)
REMARK    1  A    between atoms: C_1  and  O_2
REMARK    2  A    between atoms: O_2  and  N_3
REMARK    3  A    between atoms: C_4  and  C_6
REMARK    4  A    between atoms: C_9  and  C_10
REMARK    5  A    between atoms: C_13  and  C_14
REMARK    6  A    between atoms: C_17  and  C_18
REMARK    7  A    between atoms: N_20  and  O_21
REMARK    8  A    between atoms: O_21  and  C_22
REMARK                            x       y       z     vdW  Elec       q    Type
REMARK                         _______ _______ _______ _____ _____    ______ ____
ROOT
ATOM      1  C   UNL     1       1.649   7.127  20.477  0.00  0.00    +0.000 A 
ATOM      2  C   UNL     1       1.573   5.852  21.003  0.00  0.00    +0.000 A 
ATOM      3  C   UNL     1       2.336   5.011  20.154  0.00  0.00    +0.000 A 
ATOM      4  C   UNL     1       2.841   5.813  19.152  0.00  0.00    +0.000 A 
ATOM      5  O   UNL     1       2.431   7.102  19.353  0.00  0.00    +0.000 OA
ENDROOT
BRANCH   1   9
ATOM      6  C   UNL     1       0.077  10.935  21.666  0.00  0.00    +0.000 A 
ATOM      7  C   UNL     1       0.112   9.872  22.572  0.00  0.00    +0.000 A 
ATOM      8  C   UNL     1       0.617   8.629  22.171  0.00  0.00    +0.000 A 
ATOM      9  C   UNL     1       1.100   8.425  20.869  0.00  0.00    +0.000 A 
ATOM     10  C   UNL     1       1.042   9.500  19.967  0.00  0.00    +0.000 A 
ATOM     11  C   UNL     1       0.531  10.742  20.360  0.00  0.00    +0.000 A 
BRANCH   6  13
ATOM     12  N   UNL     1      -1.630  12.381  22.744  0.00  0.00    +0.000 N 
ATOM     13  C   UNL     1      -0.418  12.278  22.084  0.00  0.00    +0.000 C 
ATOM     14  N   UNL     1       0.312  13.321  21.828  0.00  0.00    +0.000 NA
ATOM     15  H   UNL     1      -1.916  11.531  23.226  0.00  0.00    +0.000 HD
ATOM     16  H   UNL     1      -0.210  14.119  22.215  0.00  0.00    +0.000 HD
BRANCH  12  18
ATOM     17  C   UNL     1      -3.040  13.923  23.644  0.00  0.00    +0.000 C 
ATOM     18  O   UNL     1      -1.680  13.509  23.578  0.00  0.00    +0.000 OA
ENDBRANCH  12  18
ENDBRANCH   6  13
ENDBRANCH   1   9
BRANCH   4  19
ATOM     19  C   UNL     1       3.659   5.574  17.967  0.00  0.00    +0.000 A 
ATOM     20  C   UNL     1       4.313   6.632  17.318  0.00  0.00    +0.000 A 
ATOM     21  C   UNL     1       5.132   6.400  16.203  0.00  0.00    +0.000 A 
ATOM     22  C   UNL     1       5.298   5.103  15.703  0.00  0.00    +0.000 A 
ATOM     23  C   UNL     1       4.619   4.047  16.326  0.00  0.00    +0.000 A 
ATOM     24  C   UNL     1       3.818   4.282  17.450  0.00  0.00    +0.000 A 
BRANCH  22  25
ATOM     25  C   UNL     1       6.193   4.841  14.518  0.00  0.00    +0.000 C 
ATOM     26  N   UNL     1       7.417   5.275  14.514  0.00  0.00    +0.000 NA
ATOM     27  N   UNL     1       5.668   4.147  13.434  0.00  0.00    +0.000 N 
ATOM     28  H   UNL     1       7.651   5.795  15.360  0.00  0.00    +0.000 HD
ATOM     29  H   UNL     1       4.851   3.580  13.638  0.00  0.00    +0.000 HD
BRANCH  27  30
ATOM     30  O   UNL     1       6.642   3.399  12.750  0.00  0.00    +0.000 OA
ATOM     31  C   UNL     1       5.957   2.560  11.824  0.00  0.00    +0.000 C 
ENDBRANCH  27  30
ENDBRANCH  22  25
ENDBRANCH   4  19
TORSDOF 6
ENDMDL
MODEL 9
REMARK VINA RESULT:      -7.9      0.620     10.160
REMARK  Name = 
REMARK  8 active torsions:
REMARK  status: ('A' for Active; 'I' for Inactive)
REMARK    1  A    between atoms: C_1  and  O_2
REMARK    2  A    between atoms: O_2  and  N_3
REMARK    3  A    between atoms: C_4  and  C_6
REMARK    4  A    between atoms: C_9  and  C_10
REMARK    5  A    between atoms: C_13  and  C_14
REMARK    6  A    between atoms: C_17  and  C_18
REMARK    7  A    between atoms: N_20  and  O_21
REMARK    8  A    between atoms: O_21  and  C_22
REMARK                            x       y       z     vdW  Elec       q    Type
REMARK                         _______ _______ _______ _____ _____    ______ ____
ROOT
ATOM      1  C   UNL     1       1.672   7.187  20.383  0.00  0.00    +0.000 A 
ATOM      2  C   UNL     1       1.564   5.918  20.918  0.00  0.00    +0.000 A 
ATOM      3  C   UNL     1       2.351   5.062  20.106  0.00  0.00    +0.000 A 
ATOM      4  C   UNL     1       2.901   5.850  19.116  0.00  0.00    +0.000 A 
ATOM      5  O   UNL     1       2.495   7.145  19.290  0.00  0.00    +0.000 OA
ENDROOT
BRANCH   1   9
ATOM      6  C   UNL     1       0.095  11.023  21.473  0.00  0.00    +0.000 A 
ATOM      7  C   UNL     1       0.201  10.006  22.426  0.00  0.00    +0.000 A 
ATOM      8  C   UNL     1       0.706   8.754  22.058  0.00  0.00    +0.000 A 
ATOM      9  C   UNL     1       1.121   8.494  20.742  0.00  0.00    +0.000 A 
ATOM     10  C   UNL     1       0.992   9.522  19.794  0.00  0.00    +0.000 A 
ATOM     11  C   UNL     1       0.479  10.773  20.154  0.00  0.00    +0.000 A 
BRANCH   6  13
ATOM     12  N   UNL     1      -0.482  13.366  20.887  0.00  0.00    +0.000 N 
ATOM     13  C   UNL     1      -0.402  12.377  21.852  0.00  0.00    +0.000 C 
ATOM     14  N   UNL     1      -0.761  12.590  23.082  0.00  0.00    +0.000 NA
ATOM     15  H   UNL     1      -0.558  13.014  19.935  0.00  0.00    +0.000 HD
ATOM     16  H   UNL     1      -1.079  13.569  23.105  0.00  0.00    +0.000 HD
BRANCH  12  18
ATOM     17  C   UNL     1      -1.273  15.422  20.318  0.00  0.00    +0.000 C 
ATOM     18  O   UNL     1      -1.475  14.312  21.187  0.00  0.00    +0.000 OA
ENDBRANCH  12  18
ENDBRANCH   6  13
ENDBRANCH   1   9
BRANCH   4  19
ATOM     19  C   UNL     1       3.761   5.592  17.967  0.00  0.00    +0.000 A 
ATOM     20  C   UNL     1       4.002   4.281  17.527  0.00  0.00    +0.000 A 
ATOM     21  C   UNL     1       4.797   4.031  16.399  0.00  0.00    +0.000 A 
ATOM     22  C   UNL     1       5.383   5.091  15.696  0.00  0.00    +0.000 A 
ATOM     23  C   UNL     1       5.174   6.400  16.151  0.00  0.00    +0.000 A 
ATOM     24  C   UNL     1       4.365   6.645  17.267  0.00  0.00    +0.000 A 
BRANCH  22  25
ATOM     25  C   UNL     1       6.221   4.834  14.469  0.00  0.00    +0.000 C 
ATOM     26  N   UNL     1       7.430   5.303  14.393  0.00  0.00    +0.000 NA
ATOM     27  N   UNL     1       5.661   4.106  13.427  0.00  0.00    +0.000 N 
ATOM     28  H   UNL     1       7.693   5.844  15.217  0.00  0.00    +0.000 HD
ATOM     29  H   UNL     1       4.872   3.520  13.683  0.00  0.00    +0.000 HD
BRANCH  27  30
ATOM     30  O   UNL     1       6.619   3.373  12.704  0.00  0.00    +0.000 OA
ATOM     31  C   UNL     1       5.914   2.556  11.776  0.00  0.00    +0.000 C 
ENDBRANCH  27  30
ENDBRANCH  22  25
ENDBRANCH   4  19
TORSDOF 6
ENDMDL
