MODEL 1
REMARK VINA RESULT:      -8.1      0.000      0.000
REMARK  Name = 
REMARK  11 active torsions:
REMARK  status: ('A' for Active; 'I' for Inactive)
REMARK    1  A    between atoms: C_1  and  C_2
REMARK    2  A    between atoms: C_2  and  O_3
REMARK    3  A    between atoms: O_3  and  C_4
REMARK    4  A    between atoms: C_9  and  C_10
REMARK    5  A    between atoms: C_12  and  C_13
REMARK    6  A    between atoms: C_16  and  O_17
REMARK    7  A    between atoms: C_22  and  C_24
REMARK    8  A    between atoms: C_24  and  C_25
REMARK    9  A    between atoms: C_25  and  C_26
REMARK   10  A    between atoms: C_26  and  C_27
REMARK   11  A    between atoms: C_27  and  O_29
REMARK                            x       y       z     vdW  Elec       q    Type
REMARK                         _______ _______ _______ _____ _____    ______ ____
ROOT
ATOM      1  C   UNL     1      -0.654  11.126  19.861  0.00  0.00    +0.000 C 
ATOM      2  C   UNL     1       0.107  12.386  20.268  0.00  0.00    +0.000 C 
ATOM      3  C   UNL     1      -0.211  13.286  19.104  0.00  0.00    +0.000 C 
ATOM      4  N   UNL     1      -1.022  12.792  18.220  0.00  0.00    +0.000 NA
ATOM      5  N   UNL     1      -1.287  11.503  18.600  0.00  0.00    +0.000 N 
ATOM      6  C   UNL     1      -2.096  10.668  17.850  0.00  0.00    +0.000 C 
ATOM      7  O   UNL     1      -2.316   9.500  18.174  0.00  0.00    +0.000 OA
ENDROOT
BRANCH   1  13
ATOM      8  C   UNL     1       3.548   6.277  18.693  0.00  0.00    +0.000 A 
ATOM      9  C   UNL     1       3.556   7.125  17.587  0.00  0.00    +0.000 A 
ATOM     10  C   UNL     1       2.731   8.255  17.563  0.00  0.00    +0.000 A 
ATOM     11  C   UNL     1       1.894   8.545  18.658  0.00  0.00    +0.000 A 
ATOM     12  C   UNL     1       1.040   9.661  18.718  0.00  0.00    +0.000 A 
ATOM     13  C   UNL     1       0.247   9.910  19.860  0.00  0.00    +0.000 A 
ATOM     14  C   UNL     1       0.340   8.972  20.881  0.00  0.00    +0.000 A 
ATOM     15 CL   UNL     1      -0.583   8.980  22.332  0.00  0.00    +0.000 Cl
ATOM     16  N   UNL     1       1.135   7.885  20.846  0.00  0.00    +0.000 NA
ATOM     17  C   UNL     1       1.898   7.688  19.770  0.00  0.00    +0.000 A 
ATOM     18  C   UNL     1       2.716   6.578  19.770  0.00  0.00    +0.000 A 
BRANCH   8  19
ATOM     19  O   UNL     1       4.382   5.190  18.631  0.00  0.00    +0.000 OA
BRANCH  19  21
ATOM     20  C   UNL     1       3.066   3.510  17.519  0.00  0.00    +0.000 C 
ATOM     21  C   UNL     1       3.749   3.918  18.808  0.00  0.00    +0.000 C 
ENDBRANCH  19  21
ENDBRANCH   8  19
ENDBRANCH   1  13
BRANCH   3  22
ATOM     22  C   UNL     1       0.348  14.648  19.011  0.00  0.00    +0.000 A 
ATOM     23  C   UNL     1      -0.490  15.768  18.950  0.00  0.00    +0.000 A 
ATOM     24  C   UNL     1       0.058  17.047  18.864  0.00  0.00    +0.000 A 
ATOM     25  C   UNL     1       1.441  17.201  18.834  0.00  0.00    +0.000 A 
ATOM     26  C   UNL     1       2.285  16.095  18.903  0.00  0.00    +0.000 A 
ATOM     27  C   UNL     1       1.740  14.814  19.000  0.00  0.00    +0.000 A 
BRANCH  25  28
ATOM     28  O   UNL     1       2.015  18.435  18.743  0.00  0.00    +0.000 OA
ATOM     29  H   UNL     1       2.775  18.384  18.140  0.00  0.00    +0.000 HD
ENDBRANCH  25  28
ENDBRANCH   3  22
BRANCH   6  30
ATOM     30  C   UNL     1      -2.673  11.293  16.585  0.00  0.00    +0.000 C 
BRANCH  30  31
ATOM     31  C   UNL     1      -3.427  10.300  15.698  0.00  0.00    +0.000 C 
BRANCH  31  32
ATOM     32  C   UNL     1      -2.515   9.591  14.700  0.00  0.00    +0.000 C 
BRANCH  32  33
ATOM     33  C   UNL     1      -3.049   9.714  13.299  0.00  0.00    +0.000 C 
ATOM     34  O   UNL     1      -4.210   9.979  13.035  0.00  0.00    +0.000 OA
BRANCH  33  35
ATOM     35  O   UNL     1      -2.105   9.528  12.350  0.00  0.00    +0.000 OA
ATOM     36  H   UNL     1      -1.269   9.158  12.699  0.00  0.00    +0.000 HD
ENDBRANCH  33  35
ENDBRANCH  32  33
ENDBRANCH  31  32
ENDBRANCH  30  31
ENDBRANCH   6  30
TORSDOF 10
ENDMDL
MODEL 2
REMARK VINA RESULT:      -8.1      0.743      1.183
REMARK  Name = 
REMARK  11 active torsions:
REMARK  status: ('A' for Active; 'I' for Inactive)
REMARK    1  A    between atoms: C_1  and  C_2
REMARK    2  A    between atoms: C_2  and  O_3
REMARK    3  A    between atoms: O_3  and  C_4
REMARK    4  A    between atoms: C_9  and  C_10
REMARK    5  A    between atoms: C_12  and  C_13
REMARK    6  A    between atoms: C_16  and  O_17
REMARK    7  A    between atoms: C_22  and  C_24
REMARK    8  A    between atoms: C_24  and  C_25
REMARK    9  A    between atoms: C_25  and  C_26
REMARK   10  A    between atoms: C_26  and  C_27
REMARK   11  A    between atoms: C_27  and  O_29
REMARK                            x       y       z     vdW  Elec       q    Type
REMARK                         _______ _______ _______ _____ _____    ______ ____
ROOT
ATOM      1  C   UNL     1      -0.624  11.104  19.811  0.00  0.00    +0.000 C 
ATOM      2  C   UNL     1       0.133  12.371  20.200  0.00  0.00    +0.000 C 
ATOM      3  C   UNL     1      -0.162  13.243  19.008  0.00  0.00    +0.000 C 
ATOM      4  N   UNL     1      -0.960  12.729  18.123  0.00  0.00    +0.000 NA
ATOM      5  N   UNL     1      -1.236  11.450  18.531  0.00  0.00    +0.000 N 
ATOM      6  C   UNL     1      -2.034  10.599  17.788  0.00  0.00    +0.000 C 
ATOM      7  O   UNL     1      -2.263   9.440  18.136  0.00  0.00    +0.000 OA
ENDROOT
BRANCH   1  13
ATOM      8  C   UNL     1       3.567   6.204  18.827  0.00  0.00    +0.000 A 
ATOM      9  C   UNL     1       3.582   7.015  17.693  0.00  0.00    +0.000 A 
ATOM     10  C   UNL     1       2.761   8.146  17.627  0.00  0.00    +0.000 A 
ATOM     11  C   UNL     1       1.920   8.475  18.708  0.00  0.00    +0.000 A 
ATOM     12  C   UNL     1       1.069   9.595  18.726  0.00  0.00    +0.000 A 
ATOM     13  C   UNL     1       0.272   9.886  19.855  0.00  0.00    +0.000 A 
ATOM     14  C   UNL     1       0.358   8.983  20.909  0.00  0.00    +0.000 A 
ATOM     15 CL   UNL     1      -0.571   9.044  22.354  0.00  0.00    +0.000 Cl
ATOM     16  N   UNL     1       1.149   7.893  20.914  0.00  0.00    +0.000 NA
ATOM     17  C   UNL     1       1.917   7.657  19.849  0.00  0.00    +0.000 A 
ATOM     18  C   UNL     1       2.731   6.545  19.890  0.00  0.00    +0.000 A 
BRANCH   8  19
ATOM     19  O   UNL     1       4.398   5.114  18.806  0.00  0.00    +0.000 OA
BRANCH  19  21
ATOM     20  C   UNL     1       6.650   4.687  18.075  0.00  0.00    +0.000 C 
ATOM     21  C   UNL     1       5.230   4.998  17.647  0.00  0.00    +0.000 C 
ENDBRANCH  19  21
ENDBRANCH   8  19
ENDBRANCH   1  13
BRANCH   3  22
ATOM     22  C   UNL     1       0.402  14.601  18.891  0.00  0.00    +0.000 A 
ATOM     23  C   UNL     1       1.759  14.794  18.602  0.00  0.00    +0.000 A 
ATOM     24  C   UNL     1       2.273  16.086  18.494  0.00  0.00    +0.000 A 
ATOM     25  C   UNL     1       1.430  17.178  18.681  0.00  0.00    +0.000 A 
ATOM     26  C   UNL     1       0.078  16.998  18.960  0.00  0.00    +0.000 A 
ATOM     27  C   UNL     1      -0.443  15.707  19.058  0.00  0.00    +0.000 A 
BRANCH  25  28
ATOM     28  O   UNL     1       1.896  18.456  18.591  0.00  0.00    +0.000 OA
ATOM     29  H   UNL     1       2.671  18.550  19.170  0.00  0.00    +0.000 HD
ENDBRANCH  25  28
ENDBRANCH   3  22
BRANCH   6  30
ATOM     30  C   UNL     1      -2.588  11.194  16.498  0.00  0.00    +0.000 C 
BRANCH  30  31
ATOM     31  C   UNL     1      -2.580  10.219  15.319  0.00  0.00    +0.000 C 
BRANCH  31  32
ATOM     32  C   UNL     1      -3.872  10.266  14.507  0.00  0.00    +0.000 C 
BRANCH  32  33
ATOM     33  C   UNL     1      -3.623   9.881  13.075  0.00  0.00    +0.000 C 
ATOM     34  O   UNL     1      -4.503   9.779  12.235  0.00  0.00    +0.000 OA
BRANCH  33  35
ATOM     35  O   UNL     1      -2.316   9.682  12.794  0.00  0.00    +0.000 OA
ATOM     36  H   UNL     1      -2.136   9.559  11.841  0.00  0.00    +0.000 HD
ENDBRANCH  33  35
ENDBRANCH  32  33
ENDBRANCH  31  32
ENDBRANCH  30  31
ENDBRANCH   6  30
TORSDOF 10
ENDMDL
MODEL 3
REMARK VINA RESULT:      -8.0      4.757      8.473
REMARK  Name = 
REMARK  11 active torsions:
REMARK  status: ('A' for Active; 'I' for Inactive)
REMARK    1  A    between atoms: C_1  and  C_2
REMARK    2  A    between atoms: C_2  and  O_3
REMARK    3  A    between atoms: O_3  and  C_4
REMARK    4  A    between atoms: C_9  and  C_10
REMARK    5  A    between atoms: C_12  and  C_13
REMARK    6  A    between atoms: C_16  and  O_17
REMARK    7  A    between atoms: C_22  and  C_24
REMARK    8  A    between atoms: C_24  and  C_25
REMARK    9  A    between atoms: C_25  and  C_26
REMARK   10  A    between atoms: C_26  and  C_27
REMARK   11  A    between atoms: C_27  and  O_29
REMARK                            x       y       z     vdW  Elec       q    Type
REMARK                         _______ _______ _______ _____ _____    ______ ____
ROOT
ATOM      1  C   UNL     1       4.557   5.157  18.213  0.00  0.00    +0.000 C 
ATOM      2  C   UNL     1       4.354   6.654  18.431  0.00  0.00    +0.000 C 
ATOM      3  C   UNL     1       2.858   6.708  18.586  0.00  0.00    +0.000 C 
ATOM      4  N   UNL     1       2.251   5.561  18.563  0.00  0.00    +0.000 NA
ATOM      5  N   UNL     1       3.206   4.611  18.309  0.00  0.00    +0.000 N 
ATOM      6  C   UNL     1       2.891   3.271  18.179  0.00  0.00    +0.000 C 
ATOM      7  O   UNL     1       3.741   2.417  17.925  0.00  0.00    +0.000 OA
ENDROOT
BRANCH   1  13
ATOM      8  C   UNL     1       6.787   3.697  12.261  0.00  0.00    +0.000 A 
ATOM      9  C   UNL     1       5.398   3.575  12.239  0.00  0.00    +0.000 A 
ATOM     10  C   UNL     1       4.654   3.823  13.397  0.00  0.00    +0.000 A 
ATOM     11  C   UNL     1       5.302   4.203  14.589  0.00  0.00    +0.000 A 
ATOM     12  C   UNL     1       4.630   4.476  15.794  0.00  0.00    +0.000 A 
ATOM     13  C   UNL     1       5.338   4.881  16.947  0.00  0.00    +0.000 A 
ATOM     14  C   UNL     1       6.720   4.951  16.818  0.00  0.00    +0.000 A 
ATOM     15 CL   UNL     1       7.824   5.321  18.084  0.00  0.00    +0.000 Cl
ATOM     16  N   UNL     1       7.393   4.679  15.683  0.00  0.00    +0.000 NA
ATOM     17  C   UNL     1       6.700   4.329  14.599  0.00  0.00    +0.000 A 
ATOM     18  C   UNL     1       7.414   4.076  13.447  0.00  0.00    +0.000 A 
BRANCH   8  19
ATOM     19  O   UNL     1       7.439   3.431  11.084  0.00  0.00    +0.000 OA
BRANCH  19  21
ATOM     20  C   UNL     1       6.639   1.167  10.917  0.00  0.00    +0.000 C 
ATOM     21  C   UNL     1       7.854   2.072  10.905  0.00  0.00    +0.000 C 
ENDBRANCH  19  21
ENDBRANCH   8  19
ENDBRANCH   1  13
BRANCH   3  22
ATOM     22  C   UNL     1       2.151   7.988  18.782  0.00  0.00    +0.000 A 
ATOM     23  C   UNL     1       2.077   8.935  17.753  0.00  0.00    +0.000 A 
ATOM     24  C   UNL     1       1.404  10.139  17.959  0.00  0.00    +0.000 A 
ATOM     25  C   UNL     1       0.812  10.392  19.192  0.00  0.00    +0.000 A 
ATOM     26  C   UNL     1       0.872   9.455  20.220  0.00  0.00    +0.000 A 
ATOM     27  C   UNL     1       1.536   8.245  20.015  0.00  0.00    +0.000 A 
BRANCH  25  28
ATOM     28  O   UNL     1       0.151  11.561  19.434  0.00  0.00    +0.000 OA
ATOM     29  H   UNL     1       0.802  12.260  19.613  0.00  0.00    +0.000 HD
ENDBRANCH  25  28
ENDBRANCH   3  22
BRANCH   6  30
ATOM     30  C   UNL     1       1.414   2.934  18.351  0.00  0.00    +0.000 C 
BRANCH  30  31
ATOM     31  C   UNL     1       1.103   2.171  19.640  0.00  0.00    +0.000 C 
BRANCH  31  32
ATOM     32  C   UNL     1       0.870   3.096  20.831  0.00  0.00    +0.000 C 
BRANCH  32  33
ATOM     33  C   UNL     1       2.159   3.387  21.548  0.00  0.00    +0.000 C 
ATOM     34  O   UNL     1       2.852   2.533  22.077  0.00  0.00    +0.000 OA
BRANCH  33  35
ATOM     35  O   UNL     1       2.497   4.696  21.529  0.00  0.00    +0.000 OA
ATOM     36  H   UNL     1       1.726   5.298  21.561  0.00  0.00    +0.000 HD
ENDBRANCH  33  35
ENDBRANCH  32  33
ENDBRANCH  31  32
ENDBRANCH  30  31
ENDBRANCH   6  30
TORSDOF 10
ENDMDL
MODEL 4
REMARK VINA RESULT:      -7.8      1.744      2.410
REMARK  Name = 
REMARK  11 active torsions:
REMARK  status: ('A' for Active; 'I' for Inactive)
REMARK    1  A    between atoms: C_1  and  C_2
REMARK    2  A    between atoms: C_2  and  O_3
REMARK    3  A    between atoms: O_3  and  C_4
REMARK    4  A    between atoms: C_9  and  C_10
REMARK    5  A    between atoms: C_12  and  C_13
REMARK    6  A    between atoms: C_16  and  O_17
REMARK    7  A    between atoms: C_22  and  C_24
REMARK    8  A    between atoms: C_24  and  C_25
REMARK    9  A    between atoms: C_25  and  C_26
REMARK   10  A    between atoms: C_26  and  C_27
REMARK   11  A    between atoms: C_27  and  O_29
REMARK                            x       y       z     vdW  Elec       q    Type
REMARK                         _______ _______ _______ _____ _____    ______ ____
ROOT
ATOM      1  C   UNL     1      -0.510  11.089  19.905  0.00  0.00    +0.000 C 
ATOM      2  C   UNL     1       0.274  12.343  20.284  0.00  0.00    +0.000 C 
ATOM      3  C   UNL     1      -0.082  13.247  19.133  0.00  0.00    +0.000 C 
ATOM      4  N   UNL     1      -0.929  12.759  18.280  0.00  0.00    +0.000 NA
ATOM      5  N   UNL     1      -1.188  11.471  18.669  0.00  0.00    +0.000 N 
ATOM      6  C   UNL     1      -2.030  10.642  17.949  0.00  0.00    +0.000 C 
ATOM      7  O   UNL     1      -2.245   9.475  18.280  0.00  0.00    +0.000 OA
ENDROOT
BRANCH   1  13
ATOM      8  C   UNL     1       3.631   6.227  18.584  0.00  0.00    +0.000 A 
ATOM      9  C   UNL     1       3.620   7.088  17.488  0.00  0.00    +0.000 A 
ATOM     10  C   UNL     1       2.803   8.224  17.496  0.00  0.00    +0.000 A 
ATOM     11  C   UNL     1       1.992   8.506  18.614  0.00  0.00    +0.000 A 
ATOM     12  C   UNL     1       1.147   9.627  18.706  0.00  0.00    +0.000 A 
ATOM     13  C   UNL     1       0.382   9.868  19.869  0.00  0.00    +0.000 A 
ATOM     14  C   UNL     1       0.492   8.916  20.876  0.00  0.00    +0.000 A 
ATOM     15 CL   UNL     1      -0.398   8.913  22.348  0.00  0.00    +0.000 Cl
ATOM     16  N   UNL     1       1.278   7.824  20.810  0.00  0.00    +0.000 NA
ATOM     17  C   UNL     1       2.015   7.636  19.715  0.00  0.00    +0.000 A 
ATOM     18  C   UNL     1       2.826   6.520  19.683  0.00  0.00    +0.000 A 
BRANCH   8  19
ATOM     19  O   UNL     1       4.456   5.135  18.490  0.00  0.00    +0.000 OA
BRANCH  19  21
ATOM     20  C   UNL     1       6.828   5.534  18.577  0.00  0.00    +0.000 C 
ATOM     21  C   UNL     1       5.592   5.146  19.362  0.00  0.00    +0.000 C 
ENDBRANCH  19  21
ENDBRANCH   8  19
ENDBRANCH   1  13
BRANCH   3  22
ATOM     22  C   UNL     1       0.482  14.606  19.020  0.00  0.00    +0.000 A 
ATOM     23  C   UNL     1       1.845  14.840  19.239  0.00  0.00    +0.000 A 
ATOM     24  C   UNL     1       2.359  16.132  19.126  0.00  0.00    +0.000 A 
ATOM     25  C   UNL     1       1.507  17.183  18.800  0.00  0.00    +0.000 A 
ATOM     26  C   UNL     1       0.151  16.961  18.572  0.00  0.00    +0.000 A 
ATOM     27  C   UNL     1      -0.364  15.668  18.674  0.00  0.00    +0.000 A 
BRANCH  25  28
ATOM     28  O   UNL     1       1.970  18.461  18.688  0.00  0.00    +0.000 OA
ATOM     29  H   UNL     1       2.620  18.498  17.966  0.00  0.00    +0.000 HD
ENDBRANCH  25  28
ENDBRANCH   3  22
BRANCH   6  30
ATOM     30  C   UNL     1      -2.651  11.272  16.707  0.00  0.00    +0.000 C 
BRANCH  30  31
ATOM     31  C   UNL     1      -4.175  11.149  16.652  0.00  0.00    +0.000 C 
BRANCH  31  32
ATOM     32  C   UNL     1      -4.857  11.730  17.888  0.00  0.00    +0.000 C 
BRANCH  32  33
ATOM     33  C   UNL     1      -6.329  11.418  17.888  0.00  0.00    +0.000 C 
ATOM     34  O   UNL     1      -6.830  10.505  18.525  0.00  0.00    +0.000 OA
BRANCH  33  35
ATOM     35  O   UNL     1      -7.055  12.268  17.130  0.00  0.00    +0.000 OA
ATOM     36  H   UNL     1      -7.043  12.048  16.177  0.00  0.00    +0.000 HD
ENDBRANCH  33  35
ENDBRANCH  32  33
ENDBRANCH  31  32
ENDBRANCH  30  31
ENDBRANCH   6  30
TORSDOF 10
ENDMDL
MODEL 5
REMARK VINA RESULT:      -7.7      1.703      2.210
REMARK  Name = 
REMARK  11 active torsions:
REMARK  status: ('A' for Active; 'I' for Inactive)
REMARK    1  A    between atoms: C_1  and  C_2
REMARK    2  A    between atoms: C_2  and  O_3
REMARK    3  A    between atoms: O_3  and  C_4
REMARK    4  A    between atoms: C_9  and  C_10
REMARK    5  A    between atoms: C_12  and  C_13
REMARK    6  A    between atoms: C_16  and  O_17
REMARK    7  A    between atoms: C_22  and  C_24
REMARK    8  A    between atoms: C_24  and  C_25
REMARK    9  A    between atoms: C_25  and  C_26
REMARK   10  A    between atoms: C_26  and  C_27
REMARK   11  A    between atoms: C_27  and  O_29
REMARK                            x       y       z     vdW  Elec       q    Type
REMARK                         _______ _______ _______ _____ _____    ______ ____
ROOT
ATOM      1  C   UNL     1      -0.612  11.031  19.819  0.00  0.00    +0.000 C 
ATOM      2  C   UNL     1       0.148  12.300  20.194  0.00  0.00    +0.000 C 
ATOM      3  C   UNL     1      -0.168  13.170  19.007  0.00  0.00    +0.000 C 
ATOM      4  N   UNL     1      -0.978  12.653  18.135  0.00  0.00    +0.000 NA
ATOM      5  N   UNL     1      -1.244  11.374  18.548  0.00  0.00    +0.000 N 
ATOM      6  C   UNL     1      -2.051  10.521  17.818  0.00  0.00    +0.000 C 
ATOM      7  O   UNL     1      -2.271   9.361  18.171  0.00  0.00    +0.000 OA
ENDROOT
BRANCH   1  13
ATOM      8  C   UNL     1       3.602   6.161  18.787  0.00  0.00    +0.000 A 
ATOM      9  C   UNL     1       3.621   6.988  17.665  0.00  0.00    +0.000 A 
ATOM     10  C   UNL     1       2.797   8.117  17.611  0.00  0.00    +0.000 A 
ATOM     11  C   UNL     1       1.948   8.428  18.692  0.00  0.00    +0.000 A 
ATOM     12  C   UNL     1       1.093   9.544  18.722  0.00  0.00    +0.000 A 
ATOM     13  C   UNL     1       0.289   9.815  19.850  0.00  0.00    +0.000 A 
ATOM     14  C   UNL     1       0.371   8.897  20.890  0.00  0.00    +0.000 A 
ATOM     15 CL   UNL     1      -0.567   8.933  22.331  0.00  0.00    +0.000 Cl
ATOM     16  N   UNL     1       1.166   7.809  20.884  0.00  0.00    +0.000 NA
ATOM     17  C   UNL     1       1.941   7.592  19.820  0.00  0.00    +0.000 A 
ATOM     18  C   UNL     1       2.759   6.482  19.849  0.00  0.00    +0.000 A 
BRANCH   8  19
ATOM     19  O   UNL     1       4.437   5.073  18.755  0.00  0.00    +0.000 OA
BRANCH  19  21
ATOM     20  C   UNL     1       6.754   4.880  18.135  0.00  0.00    +0.000 C 
ATOM     21  C   UNL     1       5.774   5.311  19.207  0.00  0.00    +0.000 C 
ENDBRANCH  19  21
ENDBRANCH   8  19
ENDBRANCH   1  13
BRANCH   3  22
ATOM     22  C   UNL     1       0.391  14.530  18.880  0.00  0.00    +0.000 A 
ATOM     23  C   UNL     1      -0.440  15.656  18.916  0.00  0.00    +0.000 A 
ATOM     24  C   UNL     1       0.109  16.933  18.795  0.00  0.00    +0.000 A 
ATOM     25  C   UNL     1       1.484  17.076  18.634  0.00  0.00    +0.000 A 
ATOM     26  C   UNL     1       2.321  15.964  18.606  0.00  0.00    +0.000 A 
ATOM     27  C   UNL     1       1.777  14.686  18.736  0.00  0.00    +0.000 A 
BRANCH  25  28
ATOM     28  O   UNL     1       2.057  18.308  18.506  0.00  0.00    +0.000 OA
ATOM     29  H   UNL     1       2.444  18.566  19.359  0.00  0.00    +0.000 HD
ENDBRANCH  25  28
ENDBRANCH   3  22
BRANCH   6  30
ATOM     30  C   UNL     1      -2.626  11.113  16.536  0.00  0.00    +0.000 C 
BRANCH  30  31
ATOM     31  C   UNL     1      -4.154  11.080  16.475  0.00  0.00    +0.000 C 
BRANCH  31  32
ATOM     32  C   UNL     1      -4.806  11.650  17.733  0.00  0.00    +0.000 C 
BRANCH  32  33
ATOM     33  C   UNL     1      -6.121  12.304  17.410  0.00  0.00    +0.000 C 
ATOM     34  O   UNL     1      -6.225  13.370  16.824  0.00  0.00    +0.000 OA
BRANCH  33  35
ATOM     35  O   UNL     1      -7.190  11.580  17.809  0.00  0.00    +0.000 OA
ATOM     36  H   UNL     1      -7.081  10.617  17.672  0.00  0.00    +0.000 HD
ENDBRANCH  33  35
ENDBRANCH  32  33
ENDBRANCH  31  32
ENDBRANCH  30  31
ENDBRANCH   6  30
TORSDOF 10
ENDMDL
MODEL 6
REMARK VINA RESULT:      -7.7      1.994      2.251
REMARK  Name = 
REMARK  11 active torsions:
REMARK  status: ('A' for Active; 'I' for Inactive)
REMARK    1  A    between atoms: C_1  and  C_2
REMARK    2  A    between atoms: C_2  and  O_3
REMARK    3  A    between atoms: O_3  and  C_4
REMARK    4  A    between atoms: C_9  and  C_10
REMARK    5  A    between atoms: C_12  and  C_13
REMARK    6  A    between atoms: C_16  and  O_17
REMARK    7  A    between atoms: C_22  and  C_24
REMARK    8  A    between atoms: C_24  and  C_25
REMARK    9  A    between atoms: C_25  and  C_26
REMARK   10  A    between atoms: C_26  and  C_27
REMARK   11  A    between atoms: C_27  and  O_29
REMARK                            x       y       z     vdW  Elec       q    Type
REMARK                         _______ _______ _______ _____ _____    ______ ____
ROOT
ATOM      1  C   UNL     1       0.296  10.975  20.196  0.00  0.00    +0.000 C 
ATOM      2  C   UNL     1       1.401  11.999  20.438  0.00  0.00    +0.000 C 
ATOM      3  C   UNL     1       1.218  12.888  19.237  0.00  0.00    +0.000 C 
ATOM      4  N   UNL     1       0.220  12.586  18.464  0.00  0.00    +0.000 NA
ATOM      5  N   UNL     1      -0.339  11.440  18.966  0.00  0.00    +0.000 N 
ATOM      6  C   UNL     1      -1.411  10.818  18.353  0.00  0.00    +0.000 C 
ATOM      7  O   UNL     1      -1.900   9.773  18.785  0.00  0.00    +0.000 OA
ENDROOT
BRANCH   1  13
ATOM      8  C   UNL     1       3.112   5.185  19.154  0.00  0.00    +0.000 A 
ATOM      9  C   UNL     1       3.419   6.010  18.074  0.00  0.00    +0.000 A 
ATOM     10  C   UNL     1       2.931   7.321  18.030  0.00  0.00    +0.000 A 
ATOM     11  C   UNL     1       2.132   7.815  19.081  0.00  0.00    +0.000 A 
ATOM     12  C   UNL     1       1.605   9.119  19.119  0.00  0.00    +0.000 A 
ATOM     13  C   UNL     1       0.836   9.561  20.217  0.00  0.00    +0.000 A 
ATOM     14  C   UNL     1       0.607   8.623  21.216  0.00  0.00    +0.000 A 
ATOM     15 CL   UNL     1      -0.373   8.865  22.608  0.00  0.00    +0.000 Cl
ATOM     16  N   UNL     1       1.082   7.362  21.200  0.00  0.00    +0.000 NA
ATOM     17  C   UNL     1       1.833   6.978  20.167  0.00  0.00    +0.000 A 
ATOM     18  C   UNL     1       2.322   5.688  20.187  0.00  0.00    +0.000 A 
BRANCH   8  19
ATOM     19  O   UNL     1       3.627   3.914  19.114  0.00  0.00    +0.000 OA
BRANCH  19  21
ATOM     20  C   UNL     1       2.018   2.131  18.958  0.00  0.00    +0.000 C 
ATOM     21  C   UNL     1       2.912   2.937  19.878  0.00  0.00    +0.000 C 
ENDBRANCH  19  21
ENDBRANCH   8  19
ENDBRANCH   1  13
BRANCH   3  22
ATOM     22  C   UNL     1       2.107  14.040  18.991  0.00  0.00    +0.000 A 
ATOM     23  C   UNL     1       1.830  15.295  19.547  0.00  0.00    +0.000 A 
ATOM     24  C   UNL     1       2.683  16.371  19.303  0.00  0.00    +0.000 A 
ATOM     25  C   UNL     1       3.806  16.188  18.501  0.00  0.00    +0.000 A 
ATOM     26  C   UNL     1       4.096  14.943  17.949  0.00  0.00    +0.000 A 
ATOM     27  C   UNL     1       3.250  13.862  18.199  0.00  0.00    +0.000 A 
BRANCH  25  28
ATOM     28  O   UNL     1       4.660  17.217  18.234  0.00  0.00    +0.000 OA
ATOM     29  H   UNL     1       5.393  16.884  17.689  0.00  0.00    +0.000 HD
ENDBRANCH  25  28
ENDBRANCH   3  22
BRANCH   6  30
ATOM     30  C   UNL     1      -1.926  11.507  17.094  0.00  0.00    +0.000 C 
BRANCH  30  31
ATOM     31  C   UNL     1      -2.756  10.594  16.190  0.00  0.00    +0.000 C 
BRANCH  31  32
ATOM     32  C   UNL     1      -4.167  11.126  15.952  0.00  0.00    +0.000 C 
BRANCH  32  33
ATOM     33  C   UNL     1      -4.884  11.352  17.255  0.00  0.00    +0.000 C 
ATOM     34  O   UNL     1      -5.067  10.482  18.091  0.00  0.00    +0.000 OA
BRANCH  33  35
ATOM     35  O   UNL     1      -5.289  12.630  17.426  0.00  0.00    +0.000 OA
ATOM     36  H   UNL     1      -6.189  12.706  17.803  0.00  0.00    +0.000 HD
ENDBRANCH  33  35
ENDBRANCH  32  33
ENDBRANCH  31  32
ENDBRANCH  30  31
ENDBRANCH   6  30
TORSDOF 10
ENDMDL
MODEL 7
REMARK VINA RESULT:      -7.6      1.924      2.262
REMARK  Name = 
REMARK  11 active torsions:
REMARK  status: ('A' for Active; 'I' for Inactive)
REMARK    1  A    between atoms: C_1  and  C_2
REMARK    2  A    between atoms: C_2  and  O_3
REMARK    3  A    between atoms: O_3  and  C_4
REMARK    4  A    between atoms: C_9  and  C_10
REMARK    5  A    between atoms: C_12  and  C_13
REMARK    6  A    between atoms: C_16  and  O_17
REMARK    7  A    between atoms: C_22  and  C_24
REMARK    8  A    between atoms: C_24  and  C_25
REMARK    9  A    between atoms: C_25  and  C_26
REMARK   10  A    between atoms: C_26  and  C_27
REMARK   11  A    between atoms: C_27  and  O_29
REMARK                            x       y       z     vdW  Elec       q    Type
REMARK                         _______ _______ _______ _____ _____    ______ ____
ROOT
ATOM      1  C   UNL     1       0.303  11.064  20.216  0.00  0.00    +0.000 C 
ATOM      2  C   UNL     1       1.416  12.083  20.447  0.00  0.00    +0.000 C 
ATOM      3  C   UNL     1       1.226  12.972  19.246  0.00  0.00    +0.000 C 
ATOM      4  N   UNL     1       0.219  12.675  18.484  0.00  0.00    +0.000 NA
ATOM      5  N   UNL     1      -0.341  11.532  18.992  0.00  0.00    +0.000 N 
ATOM      6  C   UNL     1      -1.423  10.915  18.389  0.00  0.00    +0.000 C 
ATOM      7  O   UNL     1      -1.913   9.873  18.827  0.00  0.00    +0.000 OA
ENDROOT
BRANCH   1  13
ATOM      8  C   UNL     1       3.064   5.253  19.143  0.00  0.00    +0.000 A 
ATOM      9  C   UNL     1       3.351   6.071  18.051  0.00  0.00    +0.000 A 
ATOM     10  C   UNL     1       2.869   7.384  18.012  0.00  0.00    +0.000 A 
ATOM     11  C   UNL     1       2.097   7.888  19.077  0.00  0.00    +0.000 A 
ATOM     12  C   UNL     1       1.578   9.195  19.119  0.00  0.00    +0.000 A 
ATOM     13  C   UNL     1       0.836   9.648  20.232  0.00  0.00    +0.000 A 
ATOM     14  C   UNL     1       0.625   8.716  21.242  0.00  0.00    +0.000 A 
ATOM     15 CL   UNL     1      -0.323   8.971  22.654  0.00  0.00    +0.000 Cl
ATOM     16  N   UNL     1       1.092   7.453  21.222  0.00  0.00    +0.000 NA
ATOM     17  C   UNL     1       1.818   7.059  20.175  0.00  0.00    +0.000 A 
ATOM     18  C   UNL     1       2.300   5.766  20.190  0.00  0.00    +0.000 A 
BRANCH   8  19
ATOM     19  O   UNL     1       3.571   3.979  19.098  0.00  0.00    +0.000 OA
BRANCH  19  21
ATOM     20  C   UNL     1       1.763   2.630  18.260  0.00  0.00    +0.000 C 
ATOM     21  C   UNL     1       2.651   2.939  19.448  0.00  0.00    +0.000 C 
ENDBRANCH  19  21
ENDBRANCH   8  19
ENDBRANCH   1  13
BRANCH   3  22
ATOM     22  C   UNL     1       2.119  14.119  18.991  0.00  0.00    +0.000 A 
ATOM     23  C   UNL     1       3.292  13.965  18.243  0.00  0.00    +0.000 A 
ATOM     24  C   UNL     1       4.122  15.063  18.012  0.00  0.00    +0.000 A 
ATOM     25  C   UNL     1       3.777  16.306  18.534  0.00  0.00    +0.000 A 
ATOM     26  C   UNL     1       2.608  16.472  19.272  0.00  0.00    +0.000 A 
ATOM     27  C   UNL     1       1.770  15.379  19.497  0.00  0.00    +0.000 A 
BRANCH  25  28
ATOM     28  O   UNL     1       4.566  17.401  18.336  0.00  0.00    +0.000 OA
ATOM     29  H   UNL     1       4.457  18.007  19.088  0.00  0.00    +0.000 HD
ENDBRANCH  25  28
ENDBRANCH   3  22
BRANCH   6  30
ATOM     30  C   UNL     1      -1.946  11.606  17.135  0.00  0.00    +0.000 C 
BRANCH  30  31
ATOM     31  C   UNL     1      -2.589  10.650  16.129  0.00  0.00    +0.000 C 
BRANCH  31  32
ATOM     32  C   UNL     1      -4.025  11.035  15.786  0.00  0.00    +0.000 C 
BRANCH  32  33
ATOM     33  C   UNL     1      -4.810  11.353  17.029  0.00  0.00    +0.000 C 
ATOM     34  O   UNL     1      -5.415  12.399  17.202  0.00  0.00    +0.000 OA
BRANCH  33  35
ATOM     35  O   UNL     1      -4.806  10.350  17.934  0.00  0.00    +0.000 OA
ATOM     36  H   UNL     1      -5.696  10.131  18.277  0.00  0.00    +0.000 HD
ENDBRANCH  33  35
ENDBRANCH  32  33
ENDBRANCH  31  32
ENDBRANCH  30  31
ENDBRANCH   6  30
TORSDOF 10
ENDMDL
MODEL 8
REMARK VINA RESULT:      -7.6      1.666      2.351
REMARK  Name = 
REMARK  11 active torsions:
REMARK  status: ('A' for Active; 'I' for Inactive)
REMARK    1  A    between atoms: C_1  and  C_2
REMARK    2  A    between atoms: C_2  and  O_3
REMARK    3  A    between atoms: O_3  and  C_4
REMARK    4  A    between atoms: C_9  and  C_10
REMARK    5  A    between atoms: C_12  and  C_13
REMARK    6  A    between atoms: C_16  and  O_17
REMARK    7  A    between atoms: C_22  and  C_24
REMARK    8  A    between atoms: C_24  and  C_25
REMARK    9  A    between atoms: C_25  and  C_26
REMARK   10  A    between atoms: C_26  and  C_27
REMARK   11  A    between atoms: C_27  and  O_29
REMARK                            x       y       z     vdW  Elec       q    Type
REMARK                         _______ _______ _______ _____ _____    ______ ____
ROOT
ATOM      1  C   UNL     1      -0.546  11.075  20.016  0.00  0.00    +0.000 C 
ATOM      2  C   UNL     1       0.258  12.308  20.419  0.00  0.00    +0.000 C 
ATOM      3  C   UNL     1      -0.071  13.234  19.277  0.00  0.00    +0.000 C 
ATOM      4  N   UNL     1      -0.919  12.773  18.410  0.00  0.00    +0.000 NA
ATOM      5  N   UNL     1      -1.206  11.486  18.780  0.00  0.00    +0.000 N 
ATOM      6  C   UNL     1      -2.057  10.683  18.042  0.00  0.00    +0.000 C 
ATOM      7  O   UNL     1      -2.297   9.516  18.355  0.00  0.00    +0.000 OA
ENDROOT
BRANCH   1  13
ATOM      8  C   UNL     1       3.542   6.172  18.681  0.00  0.00    +0.000 A 
ATOM      9  C   UNL     1       3.585   7.067  17.613  0.00  0.00    +0.000 A 
ATOM     10  C   UNL     1       2.790   8.218  17.630  0.00  0.00    +0.000 A 
ATOM     11  C   UNL     1       1.948   8.482  18.729  0.00  0.00    +0.000 A 
ATOM     12  C   UNL     1       1.122   9.616  18.828  0.00  0.00    +0.000 A 
ATOM     13  C   UNL     1       0.322   9.837  19.971  0.00  0.00    +0.000 A 
ATOM     14  C   UNL     1       0.380   8.853  20.951  0.00  0.00    +0.000 A 
ATOM     15 CL   UNL     1      -0.560   8.823  22.392  0.00  0.00    +0.000 Cl
ATOM     16  N   UNL     1       1.146   7.748  20.877  0.00  0.00    +0.000 NA
ATOM     17  C   UNL     1       1.917   7.578  19.802  0.00  0.00    +0.000 A 
ATOM     18  C   UNL     1       2.706   6.448  19.762  0.00  0.00    +0.000 A 
BRANCH   8  19
ATOM     19  O   UNL     1       4.349   5.067  18.581  0.00  0.00    +0.000 OA
BRANCH  19  21
ATOM     20  C   UNL     1       2.797   3.539  17.556  0.00  0.00    +0.000 C 
ATOM     21  C   UNL     1       4.129   4.249  17.426  0.00  0.00    +0.000 C 
ENDBRANCH  19  21
ENDBRANCH   8  19
ENDBRANCH   1  13
BRANCH   3  22
ATOM     22  C   UNL     1       0.520  14.583  19.187  0.00  0.00    +0.000 A 
ATOM     23  C   UNL     1       1.844  14.817  19.580  0.00  0.00    +0.000 A 
ATOM     24  C   UNL     1       2.383  16.100  19.487  0.00  0.00    +0.000 A 
ATOM     25  C   UNL     1       1.597  17.142  19.005  0.00  0.00    +0.000 A 
ATOM     26  C   UNL     1       0.282  16.919  18.604  0.00  0.00    +0.000 A 
ATOM     27  C   UNL     1      -0.258  15.636  18.686  0.00  0.00    +0.000 A 
BRANCH  25  28
ATOM     28  O   UNL     1       2.086  18.411  18.906  0.00  0.00    +0.000 OA
ATOM     29  H   UNL     1       3.058  18.375  18.905  0.00  0.00    +0.000 HD
ENDBRANCH  25  28
ENDBRANCH   3  22
BRANCH   6  30
ATOM     30  C   UNL     1      -2.655  11.341  16.803  0.00  0.00    +0.000 C 
BRANCH  30  31
ATOM     31  C   UNL     1      -4.107  10.941  16.534  0.00  0.00    +0.000 C 
BRANCH  31  32
ATOM     32  C   UNL     1      -5.103  12.009  16.976  0.00  0.00    +0.000 C 
BRANCH  32  33
ATOM     33  C   UNL     1      -5.320  11.962  18.464  0.00  0.00    +0.000 C 
ATOM     34  O   UNL     1      -5.793  11.004  19.052  0.00  0.00    +0.000 OA
BRANCH  33  35
ATOM     35  O   UNL     1      -4.911  13.083  19.098  0.00  0.00    +0.000 OA
ATOM     36  H   UNL     1      -5.094  13.076  20.059  0.00  0.00    +0.000 HD
ENDBRANCH  33  35
ENDBRANCH  32  33
ENDBRANCH  31  32
ENDBRANCH  30  31
ENDBRANCH   6  30
TORSDOF 10
ENDMDL
MODEL 9
REMARK VINA RESULT:      -7.5      1.149      1.490
REMARK  Name = 
REMARK  11 active torsions:
REMARK  status: ('A' for Active; 'I' for Inactive)
REMARK    1  A    between atoms: C_1  and  C_2
REMARK    2  A    between atoms: C_2  and  O_3
REMARK    3  A    between atoms: O_3  and  C_4
REMARK    4  A    between atoms: C_9  and  C_10
REMARK    5  A    between atoms: C_12  and  C_13
REMARK    6  A    between atoms: C_16  and  O_17
REMARK    7  A    between atoms: C_22  and  C_24
REMARK    8  A    between atoms: C_24  and  C_25
REMARK    9  A    between atoms: C_25  and  C_26
REMARK   10  A    between atoms: C_26  and  C_27
REMARK   11  A    between atoms: C_27  and  O_29
REMARK                            x       y       z     vdW  Elec       q    Type
REMARK                         _______ _______ _______ _____ _____    ______ ____
ROOT
ATOM      1  C   UNL     1       0.191  11.093  20.176  0.00  0.00    +0.000 C 
ATOM      2  C   UNL     1       1.290  12.137  20.357  0.00  0.00    +0.000 C 
ATOM      3  C   UNL     1       1.033  13.014  19.160  0.00  0.00    +0.000 C 
ATOM      4  N   UNL     1       0.003  12.692  18.440  0.00  0.00    +0.000 NA
ATOM      5  N   UNL     1      -0.511  11.540  18.976  0.00  0.00    +0.000 N 
ATOM      6  C   UNL     1      -1.603  10.897  18.421  0.00  0.00    +0.000 C 
ATOM      7  O   UNL     1      -2.053   9.847  18.882  0.00  0.00    +0.000 OA
ENDROOT
BRANCH   1  13
ATOM      8  C   UNL     1       3.029   5.335  19.022  0.00  0.00    +0.000 A 
ATOM      9  C   UNL     1       3.253   6.152  17.915  0.00  0.00    +0.000 A 
ATOM     10  C   UNL     1       2.742   7.454  17.888  0.00  0.00    +0.000 A 
ATOM     11  C   UNL     1       2.004   7.948  18.981  0.00  0.00    +0.000 A 
ATOM     12  C   UNL     1       1.460   9.244  19.038  0.00  0.00    +0.000 A 
ATOM     13  C   UNL     1       0.754   9.688  20.178  0.00  0.00    +0.000 A 
ATOM     14  C   UNL     1       0.604   8.759  21.200  0.00  0.00    +0.000 A 
ATOM     15 CL   UNL     1      -0.289   9.003  22.649  0.00  0.00    +0.000 Cl
ATOM     16  N   UNL     1       1.098   7.506  21.168  0.00  0.00    +0.000 NA
ATOM     17  C   UNL     1       1.788   7.121  20.094  0.00  0.00    +0.000 A 
ATOM     18  C   UNL     1       2.298   5.839  20.097  0.00  0.00    +0.000 A 
BRANCH   8  19
ATOM     19  O   UNL     1       3.561   4.072  18.963  0.00  0.00    +0.000 OA
BRANCH  19  21
ATOM     20  C   UNL     1       5.871   4.711  19.178  0.00  0.00    +0.000 C 
ATOM     21  C   UNL     1       4.846   3.975  18.340  0.00  0.00    +0.000 C 
ENDBRANCH  19  21
ENDBRANCH   8  19
ENDBRANCH   1  13
BRANCH   3  22
ATOM     22  C   UNL     1       1.890  14.178  18.864  0.00  0.00    +0.000 A 
ATOM     23  C   UNL     1       1.369  15.478  18.879  0.00  0.00    +0.000 A 
ATOM     24  C   UNL     1       2.197  16.565  18.596  0.00  0.00    +0.000 A 
ATOM     25  C   UNL     1       3.538  16.347  18.297  0.00  0.00    +0.000 A 
ATOM     26  C   UNL     1       4.069  15.060  18.287  0.00  0.00    +0.000 A 
ATOM     27  C   UNL     1       3.247  13.971  18.579  0.00  0.00    +0.000 A 
BRANCH  25  28
ATOM     28  O   UNL     1       4.377  17.384  18.008  0.00  0.00    +0.000 OA
ATOM     29  H   UNL     1       3.852  18.129  17.672  0.00  0.00    +0.000 HD
ENDBRANCH  25  28
ENDBRANCH   3  22
BRANCH   6  30
ATOM     30  C   UNL     1      -2.190  11.570  17.185  0.00  0.00    +0.000 C 
BRANCH  30  31
ATOM     31  C   UNL     1      -3.238  10.720  16.462  0.00  0.00    +0.000 C 
BRANCH  31  32
ATOM     32  C   UNL     1      -2.615   9.684  15.531  0.00  0.00    +0.000 C 
BRANCH  32  33
ATOM     33  C   UNL     1      -3.150   9.825  14.132  0.00  0.00    +0.000 C 
ATOM     34  O   UNL     1      -2.461   9.748  13.128  0.00  0.00    +0.000 OA
BRANCH  33  35
ATOM     35  O   UNL     1      -4.487  10.020  14.090  0.00  0.00    +0.000 OA
ATOM     36  H   UNL     1      -4.909   9.654  13.287  0.00  0.00    +0.000 HD
ENDBRANCH  33  35
ENDBRANCH  32  33
ENDBRANCH  31  32
ENDBRANCH  30  31
ENDBRANCH   6  30
TORSDOF 10
ENDMDL
