MODEL 1
REMARK VINA RESULT:      -7.6      0.000      0.000
REMARK  Name = 
REMARK  3 active torsions:
REMARK  status: ('A' for Active; 'I' for Inactive)
REMARK    1  A    between atoms: C_1  and  C_2
REMARK    2  A    between atoms: C_6  and  C_7
REMARK    3  A    between atoms: N_9  and  C_10
REMARK                            x       y       z     vdW  Elec       q    Type
REMARK                         _______ _______ _______ _____ _____    ______ ____
ROOT
ATOM      1  C   UNL     1       4.456   6.038  17.065  0.00  0.00    +0.000 C 
ATOM      2  O   UNL     1       4.040   7.180  17.225  0.00  0.00    +0.000 OA
ATOM      3  N   UNL     1       3.871   4.933  17.664  0.00  0.00    +0.000 N 
ATOM      4  H   UNL     1       4.339   4.043  17.597  0.00  0.00    +0.000 HD
ENDROOT
BRANCH   3   5
ATOM      5  C   UNL     1       2.614   4.980  18.415  0.00  0.00    +0.000 C 
ATOM      6  C   UNL     1       1.599   4.002  17.793  0.00  0.00    +0.000 C 
ATOM      7  C   UNL     1       1.522   2.611  18.427  0.00  0.00    +0.000 C 
ATOM      8  C   UNL     1       0.572   2.555  19.625  0.00  0.00    +0.000 C 
ATOM      9  C   UNL     1       1.072   3.234  20.896  0.00  0.00    +0.000 C 
ATOM     10  C   UNL     1       1.567   4.670  20.731  0.00  0.00    +0.000 C 
ATOM     11  C   UNL     1       2.859   4.780  19.916  0.00  0.00    +0.000 C 
ENDBRANCH   3   5
BRANCH   1  17
ATOM     12  C   UNL     1       7.605   6.969  17.398  0.00  0.00    +0.000 C 
ATOM     13  C   UNL     1       6.904   6.147  16.381  0.00  0.00    +0.000 A 
ATOM     14  O   UNL     1       7.701   5.696  15.368  0.00  0.00    +0.000 OA
ATOM     15  C   UNL     1       6.919   4.994  14.522  0.00  0.00    +0.000 A 
ATOM     16  C   UNL     1       5.623   4.975  14.976  0.00  0.00    +0.000 A 
ATOM     17  C   UNL     1       5.594   5.723  16.199  0.00  0.00    +0.000 A 
ENDBRANCH   1  17
TORSDOF 2
ENDMDL
MODEL 2
REMARK VINA RESULT:      -7.4      1.447      1.447
REMARK  Name = 
REMARK  3 active torsions:
REMARK  status: ('A' for Active; 'I' for Inactive)
REMARK    1  A    between atoms: C_1  and  C_2
REMARK    2  A    between atoms: C_6  and  C_7
REMARK    3  A    between atoms: N_9  and  C_10
REMARK                            x       y       z     vdW  Elec       q    Type
REMARK                         _______ _______ _______ _____ _____    ______ ____
ROOT
ATOM      1  C   UNL     1       4.517   4.132  17.135  0.00  0.00    +0.000 C 
ATOM      2  O   UNL     1       4.385   3.080  17.752  0.00  0.00    +0.000 OA
ATOM      3  N   UNL     1       3.662   5.212  17.295  0.00  0.00    +0.000 N 
ATOM      4  H   UNL     1       3.749   5.993  16.665  0.00  0.00    +0.000 HD
ENDROOT
BRANCH   3   5
ATOM      5  C   UNL     1       2.614   5.280  18.316  0.00  0.00    +0.000 C 
ATOM      6  C   UNL     1       1.413   4.416  17.888  0.00  0.00    +0.000 C 
ATOM      7  C   UNL     1       1.374   2.989  18.443  0.00  0.00    +0.000 C 
ATOM      8  C   UNL     1       0.717   2.903  19.821  0.00  0.00    +0.000 C 
ATOM      9  C   UNL     1       1.541   3.455  20.980  0.00  0.00    +0.000 C 
ATOM     10  C   UNL     1       2.094   4.866  20.789  0.00  0.00    +0.000 C 
ATOM     11  C   UNL     1       3.174   4.956  19.707  0.00  0.00    +0.000 C 
ENDBRANCH   3   5
BRANCH   1  17
ATOM     12  C   UNL     1       7.707   4.669  17.793  0.00  0.00    +0.000 C 
ATOM     13  C   UNL     1       6.943   4.593  16.522  0.00  0.00    +0.000 A 
ATOM     14  O   UNL     1       7.689   4.803  15.398  0.00  0.00    +0.000 OA
ATOM     15  C   UNL     1       6.854   4.727  14.341  0.00  0.00    +0.000 A 
ATOM     16  C   UNL     1       5.574   4.462  14.763  0.00  0.00    +0.000 A 
ATOM     17  C   UNL     1       5.613   4.365  16.193  0.00  0.00    +0.000 A 
ENDBRANCH   1  17
TORSDOF 2
ENDMDL
MODEL 3
REMARK VINA RESULT:      -7.4      1.406      2.059
REMARK  Name = 
REMARK  3 active torsions:
REMARK  status: ('A' for Active; 'I' for Inactive)
REMARK    1  A    between atoms: C_1  and  C_2
REMARK    2  A    between atoms: C_6  and  C_7
REMARK    3  A    between atoms: N_9  and  C_10
REMARK                            x       y       z     vdW  Elec       q    Type
REMARK                         _______ _______ _______ _____ _____    ______ ____
ROOT
ATOM      1  C   UNL     1       4.612   4.218  17.031  0.00  0.00    +0.000 C 
ATOM      2  O   UNL     1       3.803   5.039  17.451  0.00  0.00    +0.000 OA
ATOM      3  N   UNL     1       4.594   2.883  17.406  0.00  0.00    +0.000 N 
ATOM      4  H   UNL     1       5.362   2.293  17.128  0.00  0.00    +0.000 HD
ENDROOT
BRANCH   3   5
ATOM      5  C   UNL     1       3.531   2.274  18.208  0.00  0.00    +0.000 C 
ATOM      6  C   UNL     1       3.864   2.411  19.706  0.00  0.00    +0.000 C 
ATOM      7  C   UNL     1       3.246   3.610  20.430  0.00  0.00    +0.000 C 
ATOM      8  C   UNL     1       1.837   3.327  20.953  0.00  0.00    +0.000 C 
ATOM      9  C   UNL     1       0.742   3.255  19.893  0.00  0.00    +0.000 C 
ATOM     10  C   UNL     1       1.021   2.327  18.713  0.00  0.00    +0.000 C 
ATOM     11  C   UNL     1       2.154   2.817  17.806  0.00  0.00    +0.000 C 
ENDBRANCH   3   5
BRANCH   1  17
ATOM     12  C   UNL     1       7.236   6.174  17.455  0.00  0.00    +0.000 C 
ATOM     13  C   UNL     1       6.742   5.396  16.292  0.00  0.00    +0.000 A 
ATOM     14  O   UNL     1       7.501   5.518  15.163  0.00  0.00    +0.000 OA
ATOM     15  C   UNL     1       6.912   4.779  14.199  0.00  0.00    +0.000 A 
ATOM     16  C   UNL     1       5.783   4.170  14.690  0.00  0.00    +0.000 A 
ATOM     17  C   UNL     1       5.657   4.559  16.064  0.00  0.00    +0.000 A 
ENDBRANCH   1  17
TORSDOF 2
ENDMDL
MODEL 4
REMARK VINA RESULT:      -7.2      1.698      1.972
REMARK  Name = 
REMARK  3 active torsions:
REMARK  status: ('A' for Active; 'I' for Inactive)
REMARK    1  A    between atoms: C_1  and  C_2
REMARK    2  A    between atoms: C_6  and  C_7
REMARK    3  A    between atoms: N_9  and  C_10
REMARK                            x       y       z     vdW  Elec       q    Type
REMARK                         _______ _______ _______ _____ _____    ______ ____
ROOT
ATOM      1  C   UNL     1       6.067   4.875  18.716  0.00  0.00    +0.000 C 
ATOM      2  O   UNL     1       6.688   5.150  19.736  0.00  0.00    +0.000 OA
ATOM      3  N   UNL     1       4.769   4.387  18.733  0.00  0.00    +0.000 N 
ATOM      4  H   UNL     1       4.366   4.058  17.869  0.00  0.00    +0.000 HD
ENDROOT
BRANCH   3   5
ATOM      5  C   UNL     1       3.945   4.296  19.940  0.00  0.00    +0.000 C 
ATOM      6  C   UNL     1       2.690   5.174  19.782  0.00  0.00    +0.000 C 
ATOM      7  C   UNL     1       1.426   4.466  19.287  0.00  0.00    +0.000 C 
ATOM      8  C   UNL     1       0.619   3.829  20.420  0.00  0.00    +0.000 C 
ATOM      9  C   UNL     1       1.224   2.570  21.034  0.00  0.00    +0.000 C 
ATOM     10  C   UNL     1       2.682   2.681  21.475  0.00  0.00    +0.000 C 
ATOM     11  C   UNL     1       3.663   2.834  20.308  0.00  0.00    +0.000 C 
ENDBRANCH   3   5
BRANCH   1  17
ATOM     12  C   UNL     1       7.639   7.511  17.503  0.00  0.00    +0.000 C 
ATOM     13  C   UNL     1       7.272   6.201  16.910  0.00  0.00    +0.000 A 
ATOM     14  O   UNL     1       7.632   6.050  15.602  0.00  0.00    +0.000 OA
ATOM     15  C   UNL     1       7.211   4.830  15.207  0.00  0.00    +0.000 A 
ATOM     16  C   UNL     1       6.588   4.183  16.245  0.00  0.00    +0.000 A 
ATOM     17  C   UNL     1       6.623   5.065  17.374  0.00  0.00    +0.000 A 
ENDBRANCH   1  17
TORSDOF 2
ENDMDL
MODEL 5
REMARK VINA RESULT:      -7.0      2.559      6.343
REMARK  Name = 
REMARK  3 active torsions:
REMARK  status: ('A' for Active; 'I' for Inactive)
REMARK    1  A    between atoms: C_1  and  C_2
REMARK    2  A    between atoms: C_6  and  C_7
REMARK    3  A    between atoms: N_9  and  C_10
REMARK                            x       y       z     vdW  Elec       q    Type
REMARK                         _______ _______ _______ _____ _____    ______ ____
ROOT
ATOM      1  C   UNL     1       4.238   3.176  19.290  0.00  0.00    +0.000 C 
ATOM      2  O   UNL     1       5.032   2.481  19.914  0.00  0.00    +0.000 OA
ATOM      3  N   UNL     1       4.630   4.262  18.522  0.00  0.00    +0.000 N 
ATOM      4  H   UNL     1       3.918   4.867  18.143  0.00  0.00    +0.000 HD
ENDROOT
BRANCH   3   5
ATOM      5  C   UNL     1       6.026   4.605  18.243  0.00  0.00    +0.000 C 
ATOM      6  C   UNL     1       6.124   5.328  16.887  0.00  0.00    +0.000 C 
ATOM      7  C   UNL     1       6.121   6.859  16.933  0.00  0.00    +0.000 C 
ATOM      8  C   UNL     1       7.516   7.450  17.146  0.00  0.00    +0.000 C 
ATOM      9  C   UNL     1       8.091   7.292  18.551  0.00  0.00    +0.000 C 
ATOM     10  C   UNL     1       8.067   5.877  19.124  0.00  0.00    +0.000 C 
ATOM     11  C   UNL     1       6.655   5.362  19.420  0.00  0.00    +0.000 C 
ENDBRANCH   3   5
BRANCH   1  17
ATOM     12  C   UNL     1       2.079   3.344  21.780  0.00  0.00    +0.000 C 
ATOM     13  C   UNL     1       1.932   2.988  20.347  0.00  0.00    +0.000 A 
ATOM     14  O   UNL     1       0.665   2.640  19.976  0.00  0.00    +0.000 OA
ATOM     15  C   UNL     1       0.702   2.322  18.665  0.00  0.00    +0.000 A 
ATOM     16  C   UNL     1       1.977   2.467  18.176  0.00  0.00    +0.000 A 
ATOM     17  C   UNL     1       2.798   2.908  19.265  0.00  0.00    +0.000 A 
ENDBRANCH   1  17
TORSDOF 2
ENDMDL
MODEL 6
REMARK VINA RESULT:      -6.9      1.607      2.157
REMARK  Name = 
REMARK  3 active torsions:
REMARK  status: ('A' for Active; 'I' for Inactive)
REMARK    1  A    between atoms: C_1  and  C_2
REMARK    2  A    between atoms: C_6  and  C_7
REMARK    3  A    between atoms: N_9  and  C_10
REMARK                            x       y       z     vdW  Elec       q    Type
REMARK                         _______ _______ _______ _____ _____    ______ ____
ROOT
ATOM      1  C   UNL     1       5.875   4.171  18.161  0.00  0.00    +0.000 C 
ATOM      2  O   UNL     1       6.391   4.402  19.249  0.00  0.00    +0.000 OA
ATOM      3  N   UNL     1       4.674   3.491  18.026  0.00  0.00    +0.000 N 
ATOM      4  H   UNL     1       4.373   3.221  17.103  0.00  0.00    +0.000 HD
ENDROOT
BRANCH   3   5
ATOM      5  C   UNL     1       3.816   3.116  19.152  0.00  0.00    +0.000 C 
ATOM      6  C   UNL     1       3.421   4.375  19.948  0.00  0.00    +0.000 C 
ATOM      7  C   UNL     1       2.075   5.010  19.586  0.00  0.00    +0.000 C 
ATOM      8  C   UNL     1       0.900   4.384  20.338  0.00  0.00    +0.000 C 
ATOM      9  C   UNL     1       0.495   2.986  19.880  0.00  0.00    +0.000 C 
ATOM     10  C   UNL     1       1.623   1.960  19.797  0.00  0.00    +0.000 C 
ATOM     11  C   UNL     1       2.635   2.256  18.685  0.00  0.00    +0.000 C 
ENDBRANCH   3   5
BRANCH   1  17
ATOM     12  C   UNL     1       7.443   7.003  17.517  0.00  0.00    +0.000 C 
ATOM     13  C   UNL     1       7.106   5.828  16.674  0.00  0.00    +0.000 A 
ATOM     14  O   UNL     1       7.498   5.934  15.371  0.00  0.00    +0.000 OA
ATOM     15  C   UNL     1       7.101   4.810  14.738  0.00  0.00    +0.000 A 
ATOM     16  C   UNL     1       6.462   3.970  15.617  0.00  0.00    +0.000 A 
ATOM     17  C   UNL     1       6.460   4.619  16.895  0.00  0.00    +0.000 A 
ENDBRANCH   1  17
TORSDOF 2
ENDMDL
MODEL 7
REMARK VINA RESULT:      -6.7      0.782      1.726
REMARK  Name = 
REMARK  3 active torsions:
REMARK  status: ('A' for Active; 'I' for Inactive)
REMARK    1  A    between atoms: C_1  and  C_2
REMARK    2  A    between atoms: C_6  and  C_7
REMARK    3  A    between atoms: N_9  and  C_10
REMARK                            x       y       z     vdW  Elec       q    Type
REMARK                         _______ _______ _______ _____ _____    ______ ____
ROOT
ATOM      1  C   UNL     1       4.181   6.732  17.624  0.00  0.00    +0.000 C 
ATOM      2  O   UNL     1       3.386   7.635  17.392  0.00  0.00    +0.000 OA
ATOM      3  N   UNL     1       3.832   5.577  18.307  0.00  0.00    +0.000 N 
ATOM      4  H   UNL     1       4.561   4.937  18.578  0.00  0.00    +0.000 HD
ENDROOT
BRANCH   3   5
ATOM      5  C   UNL     1       2.459   5.236  18.686  0.00  0.00    +0.000 C 
ATOM      6  C   UNL     1       1.868   4.244  17.665  0.00  0.00    +0.000 C 
ATOM      7  C   UNL     1       1.968   2.760  18.028  0.00  0.00    +0.000 C 
ATOM      8  C   UNL     1       0.805   2.281  18.898  0.00  0.00    +0.000 C 
ATOM      9  C   UNL     1       0.826   2.755  20.348  0.00  0.00    +0.000 C 
ATOM     10  C   UNL     1       1.002   4.259  20.552  0.00  0.00    +0.000 C 
ATOM     11  C   UNL     1       2.387   4.771  20.146  0.00  0.00    +0.000 C 
ENDBRANCH   3   5
BRANCH   1  17
ATOM     12  C   UNL     1       5.628   4.899  15.291  0.00  0.00    +0.000 C 
ATOM     13  C   UNL     1       6.137   5.967  16.187  0.00  0.00    +0.000 A 
ATOM     14  O   UNL     1       7.466   6.243  16.043  0.00  0.00    +0.000 OA
ATOM     15  C   UNL     1       7.777   7.207  16.935  0.00  0.00    +0.000 A 
ATOM     16  C   UNL     1       6.663   7.567  17.653  0.00  0.00    +0.000 A 
ATOM     17  C   UNL     1       5.574   6.768  17.173  0.00  0.00    +0.000 A 
ENDBRANCH   1  17
TORSDOF 2
ENDMDL
MODEL 8
REMARK VINA RESULT:      -6.7      1.179      1.894
REMARK  Name = 
REMARK  3 active torsions:
REMARK  status: ('A' for Active; 'I' for Inactive)
REMARK    1  A    between atoms: C_1  and  C_2
REMARK    2  A    between atoms: C_6  and  C_7
REMARK    3  A    between atoms: N_9  and  C_10
REMARK                            x       y       z     vdW  Elec       q    Type
REMARK                         _______ _______ _______ _____ _____    ______ ____
ROOT
ATOM      1  C   UNL     1       4.712   5.097  17.977  0.00  0.00    +0.000 C 
ATOM      2  O   UNL     1       4.796   4.028  18.572  0.00  0.00    +0.000 OA
ATOM      3  N   UNL     1       3.514   5.774  17.811  0.00  0.00    +0.000 N 
ATOM      4  H   UNL     1       3.494   6.578  17.202  0.00  0.00    +0.000 HD
ENDROOT
BRANCH   3   5
ATOM      5  C   UNL     1       2.257   5.381  18.452  0.00  0.00    +0.000 C 
ATOM      6  C   UNL     1       1.569   4.282  17.619  0.00  0.00    +0.000 C 
ATOM      7  C   UNL     1       1.837   2.838  18.051  0.00  0.00    +0.000 C 
ATOM      8  C   UNL     1       0.882   2.357  19.144  0.00  0.00    +0.000 C 
ATOM      9  C   UNL     1       1.123   2.940  20.534  0.00  0.00    +0.000 C 
ATOM     10  C   UNL     1       1.224   4.462  20.607  0.00  0.00    +0.000 C 
ATOM     11  C   UNL     1       2.476   5.024  19.927  0.00  0.00    +0.000 C 
ENDBRANCH   3   5
BRANCH   1  17
ATOM     12  C   UNL     1       6.431   4.321  15.269  0.00  0.00    +0.000 C 
ATOM     13  C   UNL     1       6.570   5.410  16.267  0.00  0.00    +0.000 A 
ATOM     14  O   UNL     1       7.622   6.252  16.047  0.00  0.00    +0.000 OA
ATOM     15  C   UNL     1       7.626   7.162  17.044  0.00  0.00    +0.000 A 
ATOM     16  C   UNL     1       6.584   6.926  17.907  0.00  0.00    +0.000 A 
ATOM     17  C   UNL     1       5.876   5.782  17.411  0.00  0.00    +0.000 A 
ENDBRANCH   1  17
TORSDOF 2
ENDMDL
MODEL 9
REMARK VINA RESULT:      -6.7      2.614      6.504
REMARK  Name = 
REMARK  3 active torsions:
REMARK  status: ('A' for Active; 'I' for Inactive)
REMARK    1  A    between atoms: C_1  and  C_2
REMARK    2  A    between atoms: C_6  and  C_7
REMARK    3  A    between atoms: N_9  and  C_10
REMARK                            x       y       z     vdW  Elec       q    Type
REMARK                         _______ _______ _______ _____ _____    ______ ____
ROOT
ATOM      1  C   UNL     1       4.311   3.133  19.768  0.00  0.00    +0.000 C 
ATOM      2  O   UNL     1       5.097   2.193  19.784  0.00  0.00    +0.000 OA
ATOM      3  N   UNL     1       4.650   4.390  19.291  0.00  0.00    +0.000 N 
ATOM      4  H   UNL     1       4.000   5.149  19.427  0.00  0.00    +0.000 HD
ENDROOT
BRANCH   3   5
ATOM      5  C   UNL     1       5.913   4.696  18.617  0.00  0.00    +0.000 C 
ATOM      6  C   UNL     1       5.630   5.335  17.244  0.00  0.00    +0.000 C 
ATOM      7  C   UNL     1       5.636   6.866  17.196  0.00  0.00    +0.000 C 
ATOM      8  C   UNL     1       7.034   7.448  16.979  0.00  0.00    +0.000 C 
ATOM      9  C   UNL     1       7.975   7.367  18.177  0.00  0.00    +0.000 C 
ATOM     10  C   UNL     1       8.115   5.988  18.820  0.00  0.00    +0.000 C 
ATOM     11  C   UNL     1       6.841   5.513  19.525  0.00  0.00    +0.000 C 
ENDBRANCH   3   5
BRANCH   1  17
ATOM     12  C   UNL     1       1.543   3.524  18.012  0.00  0.00    +0.000 C 
ATOM     13  C   UNL     1       1.789   3.194  19.438  0.00  0.00    +0.000 A 
ATOM     14  O   UNL     1       0.658   3.038  20.187  0.00  0.00    +0.000 OA
ATOM     15  C   UNL     1       1.046   2.769  21.452  0.00  0.00    +0.000 A 
ATOM     16  C   UNL     1       2.417   2.741  21.533  0.00  0.00    +0.000 A 
ATOM     17  C   UNL     1       2.923   3.013  20.219  0.00  0.00    +0.000 A 
ENDBRANCH   1  17
TORSDOF 2
ENDMDL
