MODEL 1
REMARK VINA RESULT:      -7.4      0.000      0.000
REMARK  Name = 
REMARK  15 active torsions:
REMARK  status: ('A' for Active; 'I' for Inactive)
REMARK    1  A    between atoms: C_1  and  C_2
REMARK    2  A    between atoms: C_2  and  C_3
REMARK    3  A    between atoms: C_3  and  C_4
REMARK    4  A    between atoms: C_4  and  C_5
REMARK    5  A    between atoms: C_5  and  C_6
REMARK    6  A    between atoms: C_6  and  C_7
REMARK    7  A    between atoms: C_7  and  C_8
REMARK    8  A    between atoms: C_8  and  C_9
REMARK    9  A    between atoms: N_11  and  C_12
REMARK   10  A    between atoms: C_12  and  N_13
REMARK   11  A    between atoms: C_12  and  C_24
REMARK   12  A    between atoms: N_13  and  C_14
REMARK   13  A    between atoms: C_14  and  N_16
REMARK   14  A    between atoms: N_16  and  C_17
REMARK   15  A    between atoms: C_22  and  C_23
REMARK                            x       y       z     vdW  Elec       q    Type
REMARK                         _______ _______ _______ _____ _____    ______ ____
ROOT
ATOM      1  C   UNL     1       4.794   4.215  19.461  0.00  0.00    +0.000 C 
ENDROOT
BRANCH   1   4
ATOM      2  C   UNL     1       6.596   4.312  17.696  0.00  0.00    +0.000 C 
ATOM      3  O   UNL     1       7.793   4.458  17.464  0.00  0.00    +0.000 OA
ATOM      4  N   UNL     1       6.176   4.216  18.998  0.00  0.00    +0.000 N 
ATOM      5  H   UNL     1       6.928   4.326  19.665  0.00  0.00    +0.000 HD
BRANCH   2   6
ATOM      6  C   UNL     1       5.537   4.231  16.613  0.00  0.00    +0.000 C 
BRANCH   6   7
ATOM      7  C   UNL     1       6.009   3.507  15.360  0.00  0.00    +0.000 C 
BRANCH   7   8
ATOM      8  C   UNL     1       5.889   4.418  14.137  0.00  0.00    +0.000 C 
BRANCH   8   9
ATOM      9  C   UNL     1       6.566   3.785  12.926  0.00  0.00    +0.000 C 
BRANCH   9  10
ATOM     10  C   UNL     1       5.570   2.998  12.076  0.00  0.00    +0.000 C 
BRANCH  10  11
ATOM     11  C   UNL     1       4.408   3.888  11.641  0.00  0.00    +0.000 C 
BRANCH  11  13
ATOM     12  C   UNL     1       2.930   4.103   9.614  0.00  0.00    +0.000 C 
ATOM     13  C   UNL     1       3.486   3.157  10.666  0.00  0.00    +0.000 C 
ENDBRANCH  11  13
ENDBRANCH  10  11
ENDBRANCH   9  10
ENDBRANCH   8   9
ENDBRANCH   7   8
ENDBRANCH   6   7
ENDBRANCH   2   6
ENDBRANCH   1   4
BRANCH   1  14
ATOM     14  C   UNL     1       4.131   2.770  19.710  0.00  0.00    +0.000 C 
ATOM     15 CL   UNL     1       5.241   1.619  20.549  0.00  0.00    +0.000 Cl
ATOM     16 CL   UNL     1       2.640   2.915  20.710  0.00  0.00    +0.000 Cl
ATOM     17 CL   UNL     1       3.653   1.950  18.162  0.00  0.00    +0.000 Cl
ENDBRANCH   1  14
BRANCH   1  18
ATOM     18  N   UNL     1       4.036   5.073  18.555  0.00  0.00    +0.000 N 
ATOM     19  H   UNL     1       4.452   5.303  17.662  0.00  0.00    +0.000 HD
BRANCH  18  20
ATOM     20  C   UNL     1       2.702   5.409  18.694  0.00  0.00    +0.000 C 
ATOM     21  S   UNL     1       1.458   4.741  17.793  0.00  0.00    +0.000 S 
BRANCH  20  22
ATOM     22  N   UNL     1       2.567   6.460  19.587  0.00  0.00    +0.000 N 
ATOM     23  H   UNL     1       3.166   6.372  20.399  0.00  0.00    +0.000 HD
BRANCH  22  24
ATOM     24  C   UNL     1       2.122   7.767  19.287  0.00  0.00    +0.000 A 
ATOM     25  C   UNL     1       2.409   8.325  18.035  0.00  0.00    +0.000 A 
ATOM     26  C   UNL     1       1.921   9.582  17.685  0.00  0.00    +0.000 A 
ATOM     27  C   UNL     1       1.132  10.292  18.583  0.00  0.00    +0.000 A 
ATOM     28  C   UNL     1       0.831   9.742  19.830  0.00  0.00    +0.000 A 
ATOM     29  C   UNL     1       1.313   8.474  20.198  0.00  0.00    +0.000 A 
ATOM     30  C   UNL     1       0.982   7.948  21.568  0.00  0.00    +0.000 C 
ENDBRANCH  22  24
ENDBRANCH  20  22
ENDBRANCH  18  20
ENDBRANCH   1  18
TORSDOF 13
ENDMDL
MODEL 2
REMARK VINA RESULT:      -7.4      1.233      1.609
REMARK  Name = 
REMARK  15 active torsions:
REMARK  status: ('A' for Active; 'I' for Inactive)
REMARK    1  A    between atoms: C_1  and  C_2
REMARK    2  A    between atoms: C_2  and  C_3
REMARK    3  A    between atoms: C_3  and  C_4
REMARK    4  A    between atoms: C_4  and  C_5
REMARK    5  A    between atoms: C_5  and  C_6
REMARK    6  A    between atoms: C_6  and  C_7
REMARK    7  A    between atoms: C_7  and  C_8
REMARK    8  A    between atoms: C_8  and  C_9
REMARK    9  A    between atoms: N_11  and  C_12
REMARK   10  A    between atoms: C_12  and  N_13
REMARK   11  A    between atoms: C_12  and  C_24
REMARK   12  A    between atoms: N_13  and  C_14
REMARK   13  A    between atoms: C_14  and  N_16
REMARK   14  A    between atoms: N_16  and  C_17
REMARK   15  A    between atoms: C_22  and  C_23
REMARK                            x       y       z     vdW  Elec       q    Type
REMARK                         _______ _______ _______ _____ _____    ______ ____
ROOT
ATOM      1  C   UNL     1       3.820   3.577  19.360  0.00  0.00    +0.000 C 
ENDROOT
BRANCH   1   4
ATOM      2  C   UNL     1       6.020   4.374  18.411  0.00  0.00    +0.000 C 
ATOM      3  O   UNL     1       7.237   4.433  18.564  0.00  0.00    +0.000 OA
ATOM      4  N   UNL     1       5.276   3.622  19.284  0.00  0.00    +0.000 N 
ATOM      5  H   UNL     1       5.829   3.212  20.024  0.00  0.00    +0.000 HD
BRANCH   2   6
ATOM      6  C   UNL     1       5.279   5.094  17.301  0.00  0.00    +0.000 C 
BRANCH   6   7
ATOM      7  C   UNL     1       6.202   5.793  16.314  0.00  0.00    +0.000 C 
BRANCH   7   8
ATOM      8  C   UNL     1       7.029   4.768  15.535  0.00  0.00    +0.000 C 
BRANCH   8   9
ATOM      9  C   UNL     1       6.125   3.707  14.916  0.00  0.00    +0.000 C 
BRANCH   9  10
ATOM     10  C   UNL     1       5.508   4.192  13.605  0.00  0.00    +0.000 C 
BRANCH  10  11
ATOM     11  C   UNL     1       6.199   3.541  12.408  0.00  0.00    +0.000 C 
BRANCH  11  13
ATOM     12  C   UNL     1       4.070   3.184  11.112  0.00  0.00    +0.000 C 
ATOM     13  C   UNL     1       5.288   2.518  11.734  0.00  0.00    +0.000 C 
ENDBRANCH  11  13
ENDBRANCH  10  11
ENDBRANCH   9  10
ENDBRANCH   8   9
ENDBRANCH   7   8
ENDBRANCH   6   7
ENDBRANCH   2   6
ENDBRANCH   1   4
BRANCH   1  14
ATOM     14  C   UNL     1       3.094   2.500  18.411  0.00  0.00    +0.000 C 
ATOM     15 CL   UNL     1       4.201   1.182  17.864  0.00  0.00    +0.000 Cl
ATOM     16 CL   UNL     1       1.709   1.729  19.266  0.00  0.00    +0.000 Cl
ATOM     17 CL   UNL     1       2.432   3.245  16.894  0.00  0.00    +0.000 Cl
ENDBRANCH   1  14
BRANCH   1  18
ATOM     18  N   UNL     1       3.339   4.945  19.190  0.00  0.00    +0.000 N 
ATOM     19  H   UNL     1       3.585   5.432  18.338  0.00  0.00    +0.000 HD
BRANCH  18  20
ATOM     20  C   UNL     1       2.377   5.561  19.969  0.00  0.00    +0.000 C 
ATOM     21  S   UNL     1       0.960   4.830  20.481  0.00  0.00    +0.000 S 
BRANCH  20  22
ATOM     22  N   UNL     1       2.698   6.897  20.151  0.00  0.00    +0.000 N 
ATOM     23  H   UNL     1       3.678   7.047  20.362  0.00  0.00    +0.000 HD
BRANCH  22  24
ATOM     24  C   UNL     1       2.004   8.009  19.622  0.00  0.00    +0.000 A 
ATOM     25  C   UNL     1       2.087   8.288  18.252  0.00  0.00    +0.000 A 
ATOM     26  C   UNL     1       1.356   9.332  17.691  0.00  0.00    +0.000 A 
ATOM     27  C   UNL     1       0.527  10.105  18.495  0.00  0.00    +0.000 A 
ATOM     28  C   UNL     1       0.428   9.832  19.860  0.00  0.00    +0.000 A 
ATOM     29  C   UNL     1       1.156   8.779  20.441  0.00  0.00    +0.000 A 
ATOM     30  C   UNL     1       1.034   8.553  21.923  0.00  0.00    +0.000 C 
ENDBRANCH  22  24
ENDBRANCH  20  22
ENDBRANCH  18  20
ENDBRANCH   1  18
TORSDOF 13
ENDMDL
MODEL 3
REMARK VINA RESULT:      -7.3      3.238      5.250
REMARK  Name = 
REMARK  15 active torsions:
REMARK  status: ('A' for Active; 'I' for Inactive)
REMARK    1  A    between atoms: C_1  and  C_2
REMARK    2  A    between atoms: C_2  and  C_3
REMARK    3  A    between atoms: C_3  and  C_4
REMARK    4  A    between atoms: C_4  and  C_5
REMARK    5  A    between atoms: C_5  and  C_6
REMARK    6  A    between atoms: C_6  and  C_7
REMARK    7  A    between atoms: C_7  and  C_8
REMARK    8  A    between atoms: C_8  and  C_9
REMARK    9  A    between atoms: N_11  and  C_12
REMARK   10  A    between atoms: C_12  and  N_13
REMARK   11  A    between atoms: C_12  and  C_24
REMARK   12  A    between atoms: N_13  and  C_14
REMARK   13  A    between atoms: C_14  and  N_16
REMARK   14  A    between atoms: N_16  and  C_17
REMARK   15  A    between atoms: C_22  and  C_23
REMARK                            x       y       z     vdW  Elec       q    Type
REMARK                         _______ _______ _______ _____ _____    ______ ____
ROOT
ATOM      1  C   UNL     1       4.615   3.737  19.387  0.00  0.00    +0.000 C 
ENDROOT
BRANCH   1   4
ATOM      2  C   UNL     1       5.871   4.296  17.269  0.00  0.00    +0.000 C 
ATOM      3  O   UNL     1       5.957   4.125  16.057  0.00  0.00    +0.000 OA
ATOM      4  N   UNL     1       4.792   3.780  17.940  0.00  0.00    +0.000 N 
ATOM      5  H   UNL     1       4.174   3.247  17.344  0.00  0.00    +0.000 HD
BRANCH   2   6
ATOM      6  C   UNL     1       6.902   5.055  18.083  0.00  0.00    +0.000 C 
BRANCH   6   7
ATOM      7  C   UNL     1       7.411   6.312  17.392  0.00  0.00    +0.000 C 
BRANCH   7   8
ATOM      8  C   UNL     1       8.003   7.284  18.414  0.00  0.00    +0.000 C 
BRANCH   8   9
ATOM      9  C   UNL     1       8.097   8.690  17.828  0.00  0.00    +0.000 C 
BRANCH   9  10
ATOM     10  C   UNL     1       8.968   9.599  18.694  0.00  0.00    +0.000 C 
BRANCH  10  11
ATOM     11  C   UNL     1       8.978  11.024  18.142  0.00  0.00    +0.000 C 
BRANCH  11  13
ATOM     12  C   UNL     1      11.065  11.855  19.277  0.00  0.00    +0.000 C 
ATOM     13  C   UNL     1      10.405  11.531  17.946  0.00  0.00    +0.000 C 
ENDBRANCH  11  13
ENDBRANCH  10  11
ENDBRANCH   9  10
ENDBRANCH   8   9
ENDBRANCH   7   8
ENDBRANCH   6   7
ENDBRANCH   2   6
ENDBRANCH   1   4
BRANCH   1  14
ATOM     14  C   UNL     1       3.902   2.420  19.976  0.00  0.00    +0.000 C 
ATOM     15 CL   UNL     1       3.113   1.416  18.699  0.00  0.00    +0.000 Cl
ATOM     16 CL   UNL     1       5.096   1.377  20.830  0.00  0.00    +0.000 Cl
ATOM     17 CL   UNL     1       2.593   2.815  21.169  0.00  0.00    +0.000 Cl
ENDBRANCH   1  14
BRANCH   1  18
ATOM     18  N   UNL     1       3.975   4.990  19.779  0.00  0.00    +0.000 N 
ATOM     19  H   UNL     1       4.541   5.683  20.252  0.00  0.00    +0.000 HD
BRANCH  18  20
ATOM     20  C   UNL     1       2.733   5.425  19.355  0.00  0.00    +0.000 C 
ATOM     21  S   UNL     1       1.907   4.798  18.040  0.00  0.00    +0.000 S 
BRANCH  20  22
ATOM     22  N   UNL     1       2.340   6.530  20.093  0.00  0.00    +0.000 N 
ATOM     23  H   UNL     1       2.685   6.517  21.045  0.00  0.00    +0.000 HD
BRANCH  22  24
ATOM     24  C   UNL     1       1.985   7.799  19.583  0.00  0.00    +0.000 A 
ATOM     25  C   UNL     1       2.248   8.104  18.240  0.00  0.00    +0.000 A 
ATOM     26  C   UNL     1       1.844   9.319  17.692  0.00  0.00    +0.000 A 
ATOM     27  C   UNL     1       1.165  10.241  18.480  0.00  0.00    +0.000 A 
ATOM     28  C   UNL     1       0.888   9.945  19.816  0.00  0.00    +0.000 A 
ATOM     29  C   UNL     1       1.286   8.723  20.384  0.00  0.00    +0.000 A 
ATOM     30  C   UNL     1       0.989   8.474  21.837  0.00  0.00    +0.000 C 
ENDBRANCH  22  24
ENDBRANCH  20  22
ENDBRANCH  18  20
ENDBRANCH   1  18
TORSDOF 13
ENDMDL
MODEL 4
REMARK VINA RESULT:      -7.2      3.688      6.739
REMARK  Name = 
REMARK  15 active torsions:
REMARK  status: ('A' for Active; 'I' for Inactive)
REMARK    1  A    between atoms: C_1  and  C_2
REMARK    2  A    between atoms: C_2  and  C_3
REMARK    3  A    between atoms: C_3  and  C_4
REMARK    4  A    between atoms: C_4  and  C_5
REMARK    5  A    between atoms: C_5  and  C_6
REMARK    6  A    between atoms: C_6  and  C_7
REMARK    7  A    between atoms: C_7  and  C_8
REMARK    8  A    between atoms: C_8  and  C_9
REMARK    9  A    between atoms: N_11  and  C_12
REMARK   10  A    between atoms: C_12  and  N_13
REMARK   11  A    between atoms: C_12  and  C_24
REMARK   12  A    between atoms: N_13  and  C_14
REMARK   13  A    between atoms: C_14  and  N_16
REMARK   14  A    between atoms: N_16  and  C_17
REMARK   15  A    between atoms: C_22  and  C_23
REMARK                            x       y       z     vdW  Elec       q    Type
REMARK                         _______ _______ _______ _____ _____    ______ ____
ROOT
ATOM      1  C   UNL     1       2.991   4.230  19.771  0.00  0.00    +0.000 C 
ENDROOT
BRANCH   1   4
ATOM      2  C   UNL     1       2.214   6.621  20.010  0.00  0.00    +0.000 C 
ATOM      3  O   UNL     1       1.771   7.481  20.766  0.00  0.00    +0.000 OA
ATOM      4  N   UNL     1       2.608   5.415  20.530  0.00  0.00    +0.000 N 
ATOM      5  H   UNL     1       2.444   5.341  21.525  0.00  0.00    +0.000 HD
BRANCH   2   6
ATOM      6  C   UNL     1       2.352   6.814  18.511  0.00  0.00    +0.000 C 
BRANCH   6   7
ATOM      7  C   UNL     1       2.673   8.247  18.114  0.00  0.00    +0.000 C 
BRANCH   7   8
ATOM      8  C   UNL     1       1.420   8.951  17.589  0.00  0.00    +0.000 C 
BRANCH   8   9
ATOM      9  C   UNL     1       1.157  10.235  18.370  0.00  0.00    +0.000 C 
BRANCH   9  10
ATOM     10  C   UNL     1      -0.021  10.075  19.329  0.00  0.00    +0.000 C 
BRANCH  10  11
ATOM     11  C   UNL     1      -1.219  10.897  18.857  0.00  0.00    +0.000 C 
BRANCH  11  13
ATOM     12  C   UNL     1      -2.258  10.251  16.656  0.00  0.00    +0.000 C 
ATOM     13  C   UNL     1      -2.253  10.016  18.158  0.00  0.00    +0.000 C 
ENDBRANCH  11  13
ENDBRANCH  10  11
ENDBRANCH   9  10
ENDBRANCH   8   9
ENDBRANCH   7   8
ENDBRANCH   6   7
ENDBRANCH   2   6
ENDBRANCH   1   4
BRANCH   1  14
ATOM     14  C   UNL     1       2.550   2.815  20.396  0.00  0.00    +0.000 C 
ATOM     15 CL   UNL     1       1.734   1.738  19.198  0.00  0.00    +0.000 Cl
ATOM     16 CL   UNL     1       3.980   1.929  21.040  0.00  0.00    +0.000 Cl
ATOM     17 CL   UNL     1       1.377   2.997  21.770  0.00  0.00    +0.000 Cl
ENDBRANCH   1  14
BRANCH   1  18
ATOM     18  N   UNL     1       4.419   4.342  19.491  0.00  0.00    +0.000 N 
ATOM     19  H   UNL     1       5.051   4.423  20.278  0.00  0.00    +0.000 HD
BRANCH  18  20
ATOM     20  C   UNL     1       5.020   4.107  18.268  0.00  0.00    +0.000 C 
ATOM     21  S   UNL     1       4.251   3.411  16.953  0.00  0.00    +0.000 S 
BRANCH  20  22
ATOM     22  N   UNL     1       6.370   4.409  18.336  0.00  0.00    +0.000 N 
ATOM     23  H   UNL     1       6.967   3.612  18.151  0.00  0.00    +0.000 HD
BRANCH  22  24
ATOM     24  C   UNL     1       6.959   5.679  18.139  0.00  0.00    +0.000 A 
ATOM     25  C   UNL     1       6.526   6.485  17.078  0.00  0.00    +0.000 A 
ATOM     26  C   UNL     1       7.036   7.770  16.903  0.00  0.00    +0.000 A 
ATOM     27  C   UNL     1       7.980   8.265  17.795  0.00  0.00    +0.000 A 
ATOM     28  C   UNL     1       8.413   7.475  18.862  0.00  0.00    +0.000 A 
ATOM     29  C   UNL     1       7.906   6.178  19.054  0.00  0.00    +0.000 A 
ATOM     30  C   UNL     1       8.433   5.362  20.202  0.00  0.00    +0.000 C 
ENDBRANCH  22  24
ENDBRANCH  20  22
ENDBRANCH  18  20
ENDBRANCH   1  18
TORSDOF 13
ENDMDL
MODEL 5
REMARK VINA RESULT:      -7.2      3.390      5.314
REMARK  Name = 
REMARK  15 active torsions:
REMARK  status: ('A' for Active; 'I' for Inactive)
REMARK    1  A    between atoms: C_1  and  C_2
REMARK    2  A    between atoms: C_2  and  C_3
REMARK    3  A    between atoms: C_3  and  C_4
REMARK    4  A    between atoms: C_4  and  C_5
REMARK    5  A    between atoms: C_5  and  C_6
REMARK    6  A    between atoms: C_6  and  C_7
REMARK    7  A    between atoms: C_7  and  C_8
REMARK    8  A    between atoms: C_8  and  C_9
REMARK    9  A    between atoms: N_11  and  C_12
REMARK   10  A    between atoms: C_12  and  N_13
REMARK   11  A    between atoms: C_12  and  C_24
REMARK   12  A    between atoms: N_13  and  C_14
REMARK   13  A    between atoms: C_14  and  N_16
REMARK   14  A    between atoms: N_16  and  C_17
REMARK   15  A    between atoms: C_22  and  C_23
REMARK                            x       y       z     vdW  Elec       q    Type
REMARK                         _______ _______ _______ _____ _____    ______ ____
ROOT
ATOM      1  C   UNL     1       3.611   4.115  18.311  0.00  0.00    +0.000 C 
ENDROOT
BRANCH   1   4
ATOM      2  C   UNL     1       5.100   5.048  16.497  0.00  0.00    +0.000 C 
ATOM      3  O   UNL     1       5.419   5.002  15.313  0.00  0.00    +0.000 OA
ATOM      4  N   UNL     1       4.023   4.315  16.926  0.00  0.00    +0.000 N 
ATOM      5  H   UNL     1       3.613   3.750  16.195  0.00  0.00    +0.000 HD
BRANCH   2   6
ATOM      6  C   UNL     1       5.836   5.879  17.531  0.00  0.00    +0.000 C 
BRANCH   6   7
ATOM      7  C   UNL     1       7.168   6.421  17.033  0.00  0.00    +0.000 C 
BRANCH   7   8
ATOM      8  C   UNL     1       7.877   7.202  18.141  0.00  0.00    +0.000 C 
BRANCH   8   9
ATOM      9  C   UNL     1       7.937   8.687  17.799  0.00  0.00    +0.000 C 
BRANCH   9  10
ATOM     10  C   UNL     1       8.821   9.453  18.782  0.00  0.00    +0.000 C 
BRANCH  10  11
ATOM     11  C   UNL     1       9.321  10.755  18.159  0.00  0.00    +0.000 C 
BRANCH  11  13
ATOM     12  C   UNL     1      11.678  11.592  18.446  0.00  0.00    +0.000 C 
ATOM     13  C   UNL     1      10.303  11.469  19.085  0.00  0.00    +0.000 C 
ENDBRANCH  11  13
ENDBRANCH  10  11
ENDBRANCH   9  10
ENDBRANCH   8   9
ENDBRANCH   7   8
ENDBRANCH   6   7
ENDBRANCH   2   6
ENDBRANCH   1   4
BRANCH   1  14
ATOM     14  C   UNL     1       3.265   2.603  18.736  0.00  0.00    +0.000 C 
ATOM     15 CL   UNL     1       4.108   1.373  17.717  0.00  0.00    +0.000 Cl
ATOM     16 CL   UNL     1       3.729   2.301  20.450  0.00  0.00    +0.000 Cl
ATOM     17 CL   UNL     1       1.495   2.229  18.593  0.00  0.00    +0.000 Cl
ENDBRANCH   1  14
BRANCH   1  18
ATOM     18  N   UNL     1       2.543   5.073  18.583  0.00  0.00    +0.000 N 
ATOM     19  H   UNL     1       1.849   5.226  17.863  0.00  0.00    +0.000 HD
BRANCH  18  20
ATOM     20  C   UNL     1       2.247   5.616  19.820  0.00  0.00    +0.000 C 
ATOM     21  S   UNL     1       1.338   4.849  20.999  0.00  0.00    +0.000 S 
BRANCH  20  22
ATOM     22  N   UNL     1       2.698   6.924  19.885  0.00  0.00    +0.000 N 
ATOM     23  H   UNL     1       3.709   6.998  19.886  0.00  0.00    +0.000 HD
BRANCH  22  24
ATOM     24  C   UNL     1       1.997   8.078  19.468  0.00  0.00    +0.000 A 
ATOM     25  C   UNL     1       1.948   8.403  18.106  0.00  0.00    +0.000 A 
ATOM     26  C   UNL     1       1.204   9.493  17.659  0.00  0.00    +0.000 A 
ATOM     27  C   UNL     1       0.494  10.266  18.571  0.00  0.00    +0.000 A 
ATOM     28  C   UNL     1       0.527   9.946  19.929  0.00  0.00    +0.000 A 
ATOM     29  C   UNL     1       1.271   8.848  20.396  0.00  0.00    +0.000 A 
ATOM     30  C   UNL     1       1.295   8.573  21.875  0.00  0.00    +0.000 C 
ENDBRANCH  22  24
ENDBRANCH  20  22
ENDBRANCH  18  20
ENDBRANCH   1  18
TORSDOF 13
ENDMDL
MODEL 6
REMARK VINA RESULT:      -7.2      3.444      5.732
REMARK  Name = 
REMARK  15 active torsions:
REMARK  status: ('A' for Active; 'I' for Inactive)
REMARK    1  A    between atoms: C_1  and  C_2
REMARK    2  A    between atoms: C_2  and  C_3
REMARK    3  A    between atoms: C_3  and  C_4
REMARK    4  A    between atoms: C_4  and  C_5
REMARK    5  A    between atoms: C_5  and  C_6
REMARK    6  A    between atoms: C_6  and  C_7
REMARK    7  A    between atoms: C_7  and  C_8
REMARK    8  A    between atoms: C_8  and  C_9
REMARK    9  A    between atoms: N_11  and  C_12
REMARK   10  A    between atoms: C_12  and  N_13
REMARK   11  A    between atoms: C_12  and  C_24
REMARK   12  A    between atoms: N_13  and  C_14
REMARK   13  A    between atoms: C_14  and  N_16
REMARK   14  A    between atoms: N_16  and  C_17
REMARK   15  A    between atoms: C_22  and  C_23
REMARK                            x       y       z     vdW  Elec       q    Type
REMARK                         _______ _______ _______ _____ _____    ______ ____
ROOT
ATOM      1  C   UNL     1       4.863   3.981  19.218  0.00  0.00    +0.000 C 
ENDROOT
BRANCH   1   4
ATOM      2  C   UNL     1       7.094   4.644  18.241  0.00  0.00    +0.000 C 
ATOM      3  O   UNL     1       8.158   4.256  17.767  0.00  0.00    +0.000 OA
ATOM      4  N   UNL     1       6.108   3.728  18.504  0.00  0.00    +0.000 N 
ATOM      5  H   UNL     1       6.391   2.776  18.311  0.00  0.00    +0.000 HD
BRANCH   2   6
ATOM      6  C   UNL     1       6.801   6.097  18.561  0.00  0.00    +0.000 C 
BRANCH   6   7
ATOM      7  C   UNL     1       8.011   7.006  18.402  0.00  0.00    +0.000 C 
BRANCH   7   8
ATOM      8  C   UNL     1       7.722   8.110  17.382  0.00  0.00    +0.000 C 
BRANCH   8   9
ATOM      9  C   UNL     1       8.042   9.481  17.968  0.00  0.00    +0.000 C 
BRANCH   9  10
ATOM     10  C   UNL     1       9.205   9.410  18.956  0.00  0.00    +0.000 C 
BRANCH  10  11
ATOM     11  C   UNL     1       9.292  10.691  19.783  0.00  0.00    +0.000 C 
BRANCH  11  13
ATOM     12  C   UNL     1      10.665  12.747  20.258  0.00  0.00    +0.000 C 
ATOM     13  C   UNL     1      10.646  11.374  19.605  0.00  0.00    +0.000 C 
ENDBRANCH  11  13
ENDBRANCH  10  11
ENDBRANCH   9  10
ENDBRANCH   8   9
ENDBRANCH   7   8
ENDBRANCH   6   7
ENDBRANCH   2   6
ENDBRANCH   1   4
BRANCH   1  14
ATOM     14  C   UNL     1       4.092   2.685  19.781  0.00  0.00    +0.000 C 
ATOM     15 CL   UNL     1       2.769   3.099  20.937  0.00  0.00    +0.000 Cl
ATOM     16 CL   UNL     1       3.362   1.742  18.432  0.00  0.00    +0.000 Cl
ATOM     17 CL   UNL     1       5.195   1.558  20.680  0.00  0.00    +0.000 Cl
ENDBRANCH   1  14
BRANCH   1  18
ATOM     18  N   UNL     1       4.046   4.840  18.367  0.00  0.00    +0.000 N 
ATOM     19  H   UNL     1       4.299   4.918  17.390  0.00  0.00    +0.000 HD
BRANCH  18  20
ATOM     20  C   UNL     1       2.815   5.372  18.706  0.00  0.00    +0.000 C 
ATOM     21  S   UNL     1       1.356   4.881  18.047  0.00  0.00    +0.000 S 
BRANCH  20  22
ATOM     22  N   UNL     1       2.983   6.447  19.565  0.00  0.00    +0.000 N 
ATOM     23  H   UNL     1       3.955   6.697  19.705  0.00  0.00    +0.000 HD
BRANCH  22  24
ATOM     24  C   UNL     1       2.039   7.463  19.835  0.00  0.00    +0.000 A 
ATOM     25  C   UNL     1       1.327   7.443  21.042  0.00  0.00    +0.000 A 
ATOM     26  C   UNL     1       0.445   8.470  21.367  0.00  0.00    +0.000 A 
ATOM     27  C   UNL     1       0.270   9.535  20.490  0.00  0.00    +0.000 A 
ATOM     28  C   UNL     1       0.980   9.571  19.289  0.00  0.00    +0.000 A 
ATOM     29  C   UNL     1       1.877   8.544  18.947  0.00  0.00    +0.000 A 
ATOM     30  C   UNL     1       2.590   8.621  17.625  0.00  0.00    +0.000 C 
ENDBRANCH  22  24
ENDBRANCH  20  22
ENDBRANCH  18  20
ENDBRANCH   1  18
TORSDOF 13
ENDMDL
MODEL 7
REMARK VINA RESULT:      -7.1      3.247      5.389
REMARK  Name = 
REMARK  15 active torsions:
REMARK  status: ('A' for Active; 'I' for Inactive)
REMARK    1  A    between atoms: C_1  and  C_2
REMARK    2  A    between atoms: C_2  and  C_3
REMARK    3  A    between atoms: C_3  and  C_4
REMARK    4  A    between atoms: C_4  and  C_5
REMARK    5  A    between atoms: C_5  and  C_6
REMARK    6  A    between atoms: C_6  and  C_7
REMARK    7  A    between atoms: C_7  and  C_8
REMARK    8  A    between atoms: C_8  and  C_9
REMARK    9  A    between atoms: N_11  and  C_12
REMARK   10  A    between atoms: C_12  and  N_13
REMARK   11  A    between atoms: C_12  and  C_24
REMARK   12  A    between atoms: N_13  and  C_14
REMARK   13  A    between atoms: C_14  and  N_16
REMARK   14  A    between atoms: N_16  and  C_17
REMARK   15  A    between atoms: C_22  and  C_23
REMARK                            x       y       z     vdW  Elec       q    Type
REMARK                         _______ _______ _______ _____ _____    ______ ____
ROOT
ATOM      1  C   UNL     1       4.485   3.944  19.417  0.00  0.00    +0.000 C 
ENDROOT
BRANCH   1   4
ATOM      2  C   UNL     1       5.602   4.768  17.309  0.00  0.00    +0.000 C 
ATOM      3  O   UNL     1       5.621   4.736  16.082  0.00  0.00    +0.000 OA
ATOM      4  N   UNL     1       4.575   4.153  17.977  0.00  0.00    +0.000 N 
ATOM      5  H   UNL     1       3.932   3.675  17.360  0.00  0.00    +0.000 HD
BRANCH   2   6
ATOM      6  C   UNL     1       6.665   5.457  18.144  0.00  0.00    +0.000 C 
BRANCH   6   7
ATOM      7  C   UNL     1       7.378   6.582  17.406  0.00  0.00    +0.000 C 
BRANCH   7   8
ATOM      8  C   UNL     1       8.162   7.454  18.388  0.00  0.00    +0.000 C 
BRANCH   8   9
ATOM      9  C   UNL     1       8.151   8.913  17.940  0.00  0.00    +0.000 C 
BRANCH   9  10
ATOM     10  C   UNL     1       8.979   9.792  18.875  0.00  0.00    +0.000 C 
BRANCH  10  11
ATOM     11  C   UNL     1       9.539  11.001  18.126  0.00  0.00    +0.000 C 
BRANCH  11  13
ATOM     12  C   UNL     1       9.193  13.486  17.918  0.00  0.00    +0.000 C 
ATOM     13  C   UNL     1       9.234  12.300  18.869  0.00  0.00    +0.000 C 
ENDBRANCH  11  13
ENDBRANCH  10  11
ENDBRANCH   9  10
ENDBRANCH   8   9
ENDBRANCH   7   8
ENDBRANCH   6   7
ENDBRANCH   2   6
ENDBRANCH   1   4
BRANCH   1  14
ATOM     14  C   UNL     1       3.899   2.523  19.892  0.00  0.00    +0.000 C 
ATOM     15 CL   UNL     1       5.128   1.496  20.726  0.00  0.00    +0.000 Cl
ATOM     16 CL   UNL     1       2.518   2.749  21.027  0.00  0.00    +0.000 Cl
ATOM     17 CL   UNL     1       3.287   1.525  18.505  0.00  0.00    +0.000 Cl
ENDBRANCH   1  14
BRANCH   1  18
ATOM     18  N   UNL     1       3.783   5.097  19.975  0.00  0.00    +0.000 N 
ATOM     19  H   UNL     1       4.168   5.529  20.805  0.00  0.00    +0.000 HD
BRANCH  18  20
ATOM     20  C   UNL     1       2.778   5.808  19.346  0.00  0.00    +0.000 C 
ATOM     21  S   UNL     1       1.727   5.163  18.214  0.00  0.00    +0.000 S 
BRANCH  20  22
ATOM     22  N   UNL     1       2.855   7.147  19.693  0.00  0.00    +0.000 N 
ATOM     23  H   UNL     1       3.698   7.598  19.358  0.00  0.00    +0.000 HD
BRANCH  22  24
ATOM     24  C   UNL     1       1.770   8.005  19.983  0.00  0.00    +0.000 A 
ATOM     25  C   UNL     1       1.123   7.909  21.222  0.00  0.00    +0.000 A 
ATOM     26  C   UNL     1       0.098   8.789  21.562  0.00  0.00    +0.000 A 
ATOM     27  C   UNL     1      -0.285   9.783  20.668  0.00  0.00    +0.000 A 
ATOM     28  C   UNL     1       0.359   9.896  19.435  0.00  0.00    +0.000 A 
ATOM     29  C   UNL     1       1.396   9.017  19.077  0.00  0.00    +0.000 A 
ATOM     30  C   UNL     1       2.030   9.167  17.721  0.00  0.00    +0.000 C 
ENDBRANCH  22  24
ENDBRANCH  20  22
ENDBRANCH  18  20
ENDBRANCH   1  18
TORSDOF 13
ENDMDL
MODEL 8
REMARK VINA RESULT:      -7.1      1.590      2.331
REMARK  Name = 
REMARK  15 active torsions:
REMARK  status: ('A' for Active; 'I' for Inactive)
REMARK    1  A    between atoms: C_1  and  C_2
REMARK    2  A    between atoms: C_2  and  C_3
REMARK    3  A    between atoms: C_3  and  C_4
REMARK    4  A    between atoms: C_4  and  C_5
REMARK    5  A    between atoms: C_5  and  C_6
REMARK    6  A    between atoms: C_6  and  C_7
REMARK    7  A    between atoms: C_7  and  C_8
REMARK    8  A    between atoms: C_8  and  C_9
REMARK    9  A    between atoms: N_11  and  C_12
REMARK   10  A    between atoms: C_12  and  N_13
REMARK   11  A    between atoms: C_12  and  C_24
REMARK   12  A    between atoms: N_13  and  C_14
REMARK   13  A    between atoms: C_14  and  N_16
REMARK   14  A    between atoms: N_16  and  C_17
REMARK   15  A    between atoms: C_22  and  C_23
REMARK                            x       y       z     vdW  Elec       q    Type
REMARK                         _______ _______ _______ _____ _____    ______ ____
ROOT
ATOM      1  C   UNL     1       4.374   4.867  18.468  0.00  0.00    +0.000 C 
ENDROOT
BRANCH   1   4
ATOM      2  C   UNL     1       5.198   6.274  16.540  0.00  0.00    +0.000 C 
ATOM      3  O   UNL     1       4.891   7.026  15.619  0.00  0.00    +0.000 OA
ATOM      4  N   UNL     1       4.231   5.881  17.429  0.00  0.00    +0.000 N 
ATOM      5  H   UNL     1       3.313   6.233  17.196  0.00  0.00    +0.000 HD
BRANCH   2   6
ATOM      6  C   UNL     1       6.603   5.744  16.756  0.00  0.00    +0.000 C 
BRANCH   6   7
ATOM      7  C   UNL     1       6.905   4.490  15.949  0.00  0.00    +0.000 C 
BRANCH   7   8
ATOM      8  C   UNL     1       6.827   4.784  14.450  0.00  0.00    +0.000 C 
BRANCH   8   9
ATOM      9  C   UNL     1       5.874   3.813  13.760  0.00  0.00    +0.000 C 
BRANCH   9  10
ATOM     10  C   UNL     1       6.125   3.757  12.254  0.00  0.00    +0.000 C 
BRANCH  10  11
ATOM     11  C   UNL     1       5.267   2.675  11.602  0.00  0.00    +0.000 C 
BRANCH  11  13
ATOM     12  C   UNL     1       3.596   3.878  10.153  0.00  0.00    +0.000 C 
ATOM     13  C   UNL     1       3.816   3.131  11.459  0.00  0.00    +0.000 C 
ENDBRANCH  11  13
ENDBRANCH  10  11
ENDBRANCH   9  10
ENDBRANCH   8   9
ENDBRANCH   7   8
ENDBRANCH   6   7
ENDBRANCH   2   6
ENDBRANCH   1   4
BRANCH   1  14
ATOM     14  C   UNL     1       3.621   3.470  18.204  0.00  0.00    +0.000 C 
ATOM     15 CL   UNL     1       4.481   2.420  17.012  0.00  0.00    +0.000 Cl
ATOM     16 CL   UNL     1       3.456   2.535  19.734  0.00  0.00    +0.000 Cl
ATOM     17 CL   UNL     1       1.948   3.698  17.538  0.00  0.00    +0.000 Cl
ENDBRANCH   1  14
BRANCH   1  18
ATOM     18  N   UNL     1       4.030   5.502  19.737  0.00  0.00    +0.000 N 
ATOM     19  H   UNL     1       4.787   5.761  20.357  0.00  0.00    +0.000 HD
BRANCH  18  20
ATOM     20  C   UNL     1       2.786   6.002  20.075  0.00  0.00    +0.000 C 
ATOM     21  S   UNL     1       1.514   5.073  20.643  0.00  0.00    +0.000 S 
BRANCH  20  22
ATOM     22  N   UNL     1       2.712   7.348  19.753  0.00  0.00    +0.000 N 
ATOM     23  H   UNL     1       3.250   7.591  18.929  0.00  0.00    +0.000 HD
BRANCH  22  24
ATOM     24  C   UNL     1       1.669   8.238  20.094  0.00  0.00    +0.000 A 
ATOM     25  C   UNL     1       1.142   8.222  21.392  0.00  0.00    +0.000 A 
ATOM     26  C   UNL     1       0.165   9.137  21.777  0.00  0.00    +0.000 A 
ATOM     27  C   UNL     1      -0.291  10.085  20.867  0.00  0.00    +0.000 A 
ATOM     28  C   UNL     1       0.233  10.117  19.574  0.00  0.00    +0.000 A 
ATOM     29  C   UNL     1       1.222   9.203  19.171  0.00  0.00    +0.000 A 
ATOM     30  C   UNL     1       1.725   9.265  17.755  0.00  0.00    +0.000 C 
ENDBRANCH  22  24
ENDBRANCH  20  22
ENDBRANCH  18  20
ENDBRANCH   1  18
TORSDOF 13
ENDMDL
MODEL 9
REMARK VINA RESULT:      -7.1      1.272      2.085
REMARK  Name = 
REMARK  15 active torsions:
REMARK  status: ('A' for Active; 'I' for Inactive)
REMARK    1  A    between atoms: C_1  and  C_2
REMARK    2  A    between atoms: C_2  and  C_3
REMARK    3  A    between atoms: C_3  and  C_4
REMARK    4  A    between atoms: C_4  and  C_5
REMARK    5  A    between atoms: C_5  and  C_6
REMARK    6  A    between atoms: C_6  and  C_7
REMARK    7  A    between atoms: C_7  and  C_8
REMARK    8  A    between atoms: C_8  and  C_9
REMARK    9  A    between atoms: N_11  and  C_12
REMARK   10  A    between atoms: C_12  and  N_13
REMARK   11  A    between atoms: C_12  and  C_24
REMARK   12  A    between atoms: N_13  and  C_14
REMARK   13  A    between atoms: C_14  and  N_16
REMARK   14  A    between atoms: N_16  and  C_17
REMARK   15  A    between atoms: C_22  and  C_23
REMARK                            x       y       z     vdW  Elec       q    Type
REMARK                         _______ _______ _______ _____ _____    ______ ____
ROOT
ATOM      1  C   UNL     1       3.961   3.886  19.450  0.00  0.00    +0.000 C 
ENDROOT
BRANCH   1   4
ATOM      2  C   UNL     1       6.088   4.451  18.214  0.00  0.00    +0.000 C 
ATOM      3  O   UNL     1       7.313   4.357  18.190  0.00  0.00    +0.000 OA
ATOM      4  N   UNL     1       5.386   3.758  19.166  0.00  0.00    +0.000 N 
ATOM      5  H   UNL     1       5.981   3.253  19.808  0.00  0.00    +0.000 HD
BRANCH   2   6
ATOM      6  C   UNL     1       5.295   5.302  17.240  0.00  0.00    +0.000 C 
BRANCH   6   7
ATOM      7  C   UNL     1       4.932   4.570  15.956  0.00  0.00    +0.000 C 
BRANCH   7   8
ATOM      8  C   UNL     1       5.739   5.122  14.779  0.00  0.00    +0.000 C 
BRANCH   8   9
ATOM      9  C   UNL     1       6.718   4.073  14.260  0.00  0.00    +0.000 C 
BRANCH   9  10
ATOM     10  C   UNL     1       6.431   3.713  12.803  0.00  0.00    +0.000 C 
BRANCH  10  11
ATOM     11  C   UNL     1       4.926   3.634  12.551  0.00  0.00    +0.000 C 
BRANCH  11  13
ATOM     12  C   UNL     1       3.311   3.393  10.636  0.00  0.00    +0.000 C 
ATOM     13  C   UNL     1       4.622   2.915  11.239  0.00  0.00    +0.000 C 
ENDBRANCH  11  13
ENDBRANCH  10  11
ENDBRANCH   9  10
ENDBRANCH   8   9
ENDBRANCH   7   8
ENDBRANCH   6   7
ENDBRANCH   2   6
ENDBRANCH   1   4
BRANCH   1  14
ATOM     14  C   UNL     1       2.984   2.904  18.631  0.00  0.00    +0.000 C 
ATOM     15 CL   UNL     1       1.810   2.033  19.691  0.00  0.00    +0.000 Cl
ATOM     16 CL   UNL     1       2.035   3.824  17.407  0.00  0.00    +0.000 Cl
ATOM     17 CL   UNL     1       3.890   1.611  17.736  0.00  0.00    +0.000 Cl
ENDBRANCH   1  14
BRANCH   1  18
ATOM     18  N   UNL     1       3.624   5.301  19.331  0.00  0.00    +0.000 N 
ATOM     19  H   UNL     1       4.119   5.849  18.640  0.00  0.00    +0.000 HD
BRANCH  18  20
ATOM     20  C   UNL     1       2.527   5.917  19.904  0.00  0.00    +0.000 C 
ATOM     21  S   UNL     1       1.411   5.145  20.886  0.00  0.00    +0.000 S 
BRANCH  20  22
ATOM     22  N   UNL     1       2.419   7.220  19.444  0.00  0.00    +0.000 N 
ATOM     23  H   UNL     1       2.590   7.307  18.449  0.00  0.00    +0.000 HD
BRANCH  22  24
ATOM     24  C   UNL     1       1.667   8.261  20.033  0.00  0.00    +0.000 A 
ATOM     25  C   UNL     1       1.457   8.264  21.419  0.00  0.00    +0.000 A 
ATOM     26  C   UNL     1       0.782   9.315  22.036  0.00  0.00    +0.000 A 
ATOM     27  C   UNL     1       0.317  10.380  21.273  0.00  0.00    +0.000 A 
ATOM     28  C   UNL     1       0.530  10.394  19.894  0.00  0.00    +0.000 A 
ATOM     29  C   UNL     1       1.211   9.343  19.256  0.00  0.00    +0.000 A 
ATOM     30  C   UNL     1       1.381   9.397  17.762  0.00  0.00    +0.000 C 
ENDBRANCH  22  24
ENDBRANCH  20  22
ENDBRANCH  18  20
ENDBRANCH   1  18
TORSDOF 13
ENDMDL
