MODEL 1
REMARK VINA RESULT:      -8.8      0.000      0.000
REMARK  Name = 
REMARK  9 active torsions:
REMARK  status: ('A' for Active; 'I' for Inactive)
REMARK    1  A    between atoms: O_1  and  C_2
REMARK    2  A    between atoms: C_5  and  N_6
REMARK    3  A    between atoms: N_6  and  C_7
REMARK    4  A    between atoms: N_6  and  C_14
REMARK    5  A    between atoms: C_7  and  C_8
REMARK    6  A    between atoms: C_17  and  O_18
REMARK    7  A    between atoms: O_18  and  C_19
REMARK    8  A    between atoms: C_19  and  C_20
REMARK    9  A    between atoms: C_20  and  N_21
REMARK                            x       y       z     vdW  Elec       q    Type
REMARK                         _______ _______ _______ _____ _____    ______ ____
ROOT
ATOM      1  N   UNL     1       3.219   5.574  18.066  0.00  0.00    +0.000 N 
ENDROOT
BRANCH   1   5
ATOM      2  C   UNL     1       6.706   5.351  15.610  0.00  0.00    +0.000 A 
ATOM      3  C   UNL     1       6.527   6.439  16.448  0.00  0.00    +0.000 A 
ATOM      4  C   UNL     1       5.386   6.498  17.264  0.00  0.00    +0.000 A 
ATOM      5  C   UNL     1       4.423   5.469  17.295  0.00  0.00    +0.000 A 
ATOM      6  C   UNL     1       4.702   4.344  16.493  0.00  0.00    +0.000 A 
ATOM      7  C   UNL     1       5.815   4.291  15.638  0.00  0.00    +0.000 A 
BRANCH   2   8
ATOM      8  O   UNL     1       7.745   5.298  14.729  0.00  0.00    +0.000 OA
ATOM      9  H   UNL     1       8.414   4.691  15.088  0.00  0.00    +0.000 HD
ENDBRANCH   2   8
ENDBRANCH   1   5
BRANCH   1  10
ATOM     10  C   UNL     1       2.588   6.795  18.462  0.00  0.00    +0.000 A 
ATOM     11  C   UNL     1       2.287   7.816  17.547  0.00  0.00    +0.000 A 
ATOM     12  C   UNL     1       1.753   9.042  17.954  0.00  0.00    +0.000 A 
ATOM     13  C   UNL     1       1.478   9.289  19.291  0.00  0.00    +0.000 A 
ATOM     14  C   UNL     1       1.750   8.296  20.225  0.00  0.00    +0.000 A 
ATOM     15  C   UNL     1       2.253   7.055  19.803  0.00  0.00    +0.000 A 
BRANCH  13  16
ATOM     16  O   UNL     1       0.970  10.468  19.768  0.00  0.00    +0.000 OA
BRANCH  16  17
ATOM     17  C   UNL     1      -0.461  10.478  19.823  0.00  0.00    +0.000 C 
BRANCH  17  18
ATOM     18  C   UNL     1      -1.028  11.795  19.286  0.00  0.00    +0.000 C 
BRANCH  18  19
ATOM     19  N   UNL     1      -2.118  11.621  18.297  0.00  0.00    +0.000 NA
ATOM     20  C   UNL     1      -1.963  10.369  17.568  0.00  0.00    +0.000 C 
ATOM     21  C   UNL     1      -2.409  10.525  16.113  0.00  0.00    +0.000 C 
ATOM     22  C   UNL     1      -3.915  10.523  15.880  0.00  0.00    +0.000 C 
ATOM     23  C   UNL     1      -4.688  11.584  16.657  0.00  0.00    +0.000 C 
ATOM     24  C   UNL     1      -4.684  11.310  18.155  0.00  0.00    +0.000 C 
ATOM     25  C   UNL     1      -3.450  11.829  18.894  0.00  0.00    +0.000 C 
ENDBRANCH  18  19
ENDBRANCH  17  18
ENDBRANCH  16  17
ENDBRANCH  13  16
ENDBRANCH   1  10
BRANCH   1  26
ATOM     26  C   UNL     1       2.313   4.395  17.948  0.00  0.00    +0.000 C 
BRANCH  26  27
ATOM     27  C   UNL     1       2.193   3.559  19.216  0.00  0.00    +0.000 A 
ATOM     28  C   UNL     1       3.333   2.933  19.755  0.00  0.00    +0.000 A 
ATOM     29  C   UNL     1       3.295   2.356  21.025  0.00  0.00    +0.000 A 
ATOM     30  C   UNL     1       2.124   2.390  21.776  0.00  0.00    +0.000 A 
ATOM     31  C   UNL     1       0.972   2.957  21.231  0.00  0.00    +0.000 A 
ATOM     32  C   UNL     1       1.004   3.529  19.958  0.00  0.00    +0.000 A 
ENDBRANCH  26  27
ENDBRANCH   1  26
TORSDOF 9
ENDMDL
MODEL 2
REMARK VINA RESULT:      -8.4      0.873      1.880
REMARK  Name = 
REMARK  9 active torsions:
REMARK  status: ('A' for Active; 'I' for Inactive)
REMARK    1  A    between atoms: O_1  and  C_2
REMARK    2  A    between atoms: C_5  and  N_6
REMARK    3  A    between atoms: N_6  and  C_7
REMARK    4  A    between atoms: N_6  and  C_14
REMARK    5  A    between atoms: C_7  and  C_8
REMARK    6  A    between atoms: C_17  and  O_18
REMARK    7  A    between atoms: O_18  and  C_19
REMARK    8  A    between atoms: C_19  and  C_20
REMARK    9  A    between atoms: C_20  and  N_21
REMARK                            x       y       z     vdW  Elec       q    Type
REMARK                         _______ _______ _______ _____ _____    ______ ____
ROOT
ATOM      1  N   UNL     1       3.289   5.717  18.060  0.00  0.00    +0.000 N 
ENDROOT
BRANCH   1   5
ATOM      2  C   UNL     1       6.792   5.414  15.635  0.00  0.00    +0.000 A 
ATOM      3  C   UNL     1       6.800   6.233  16.752  0.00  0.00    +0.000 A 
ATOM      4  C   UNL     1       5.651   6.315  17.553  0.00  0.00    +0.000 A 
ATOM      5  C   UNL     1       4.487   5.564  17.288  0.00  0.00    +0.000 A 
ATOM      6  C   UNL     1       4.565   4.678  16.194  0.00  0.00    +0.000 A 
ATOM      7  C   UNL     1       5.692   4.618  15.358  0.00  0.00    +0.000 A 
BRANCH   2   8
ATOM      8  O   UNL     1       7.848   5.378  14.774  0.00  0.00    +0.000 OA
ATOM      9  H   UNL     1       7.669   4.695  14.106  0.00  0.00    +0.000 HD
ENDBRANCH   2   8
ENDBRANCH   1   5
BRANCH   1  10
ATOM     10  C   UNL     1       2.707   6.962  18.457  0.00  0.00    +0.000 A 
ATOM     11  C   UNL     1       2.236   7.188  19.759  0.00  0.00    +0.000 A 
ATOM     12  C   UNL     1       1.588   8.374  20.116  0.00  0.00    +0.000 A 
ATOM     13  C   UNL     1       1.404   9.391  19.190  0.00  0.00    +0.000 A 
ATOM     14  C   UNL     1       1.871   9.208  17.894  0.00  0.00    +0.000 A 
ATOM     15  C   UNL     1       2.552   8.029  17.553  0.00  0.00    +0.000 A 
BRANCH  13  16
ATOM     16  O   UNL     1       0.766  10.573  19.460  0.00  0.00    +0.000 OA
BRANCH  16  17
ATOM     17  C   UNL     1      -0.649  10.419  19.623  0.00  0.00    +0.000 C 
BRANCH  17  18
ATOM     18  C   UNL     1      -1.420  11.385  18.720  0.00  0.00    +0.000 C 
BRANCH  18  19
ATOM     19  N   UNL     1      -2.829  11.594  19.127  0.00  0.00    +0.000 NA
ATOM     20  C   UNL     1      -2.967  12.813  19.913  0.00  0.00    +0.000 C 
ATOM     21  C   UNL     1      -4.023  12.641  21.006  0.00  0.00    +0.000 C 
ATOM     22  C   UNL     1      -5.473  12.726  20.543  0.00  0.00    +0.000 C 
ATOM     23  C   UNL     1      -5.858  11.736  19.448  0.00  0.00    +0.000 C 
ATOM     24  C   UNL     1      -5.173  12.053  18.126  0.00  0.00    +0.000 C 
ATOM     25  C   UNL     1      -3.760  11.483  17.988  0.00  0.00    +0.000 C 
ENDBRANCH  18  19
ENDBRANCH  17  18
ENDBRANCH  16  17
ENDBRANCH  13  16
ENDBRANCH   1  10
BRANCH   1  26
ATOM     26  C   UNL     1       2.336   4.575  17.941  0.00  0.00    +0.000 C 
BRANCH  26  27
ATOM     27  C   UNL     1       2.237   3.700  19.184  0.00  0.00    +0.000 A 
ATOM     28  C   UNL     1       3.395   3.104  19.718  0.00  0.00    +0.000 A 
ATOM     29  C   UNL     1       3.369   2.492  20.971  0.00  0.00    +0.000 A 
ATOM     30  C   UNL     1       2.190   2.461  21.711  0.00  0.00    +0.000 A 
ATOM     31  C   UNL     1       1.022   2.998  21.170  0.00  0.00    +0.000 A 
ATOM     32  C   UNL     1       1.043   3.605  19.913  0.00  0.00    +0.000 A 
ENDBRANCH  26  27
ENDBRANCH   1  26
TORSDOF 9
ENDMDL
MODEL 3
REMARK VINA RESULT:      -8.3      2.606      3.768
REMARK  Name = 
REMARK  9 active torsions:
REMARK  status: ('A' for Active; 'I' for Inactive)
REMARK    1  A    between atoms: O_1  and  C_2
REMARK    2  A    between atoms: C_5  and  N_6
REMARK    3  A    between atoms: N_6  and  C_7
REMARK    4  A    between atoms: N_6  and  C_14
REMARK    5  A    between atoms: C_7  and  C_8
REMARK    6  A    between atoms: C_17  and  O_18
REMARK    7  A    between atoms: O_18  and  C_19
REMARK    8  A    between atoms: C_19  and  C_20
REMARK    9  A    between atoms: C_20  and  N_21
REMARK                            x       y       z     vdW  Elec       q    Type
REMARK                         _______ _______ _______ _____ _____    ______ ____
ROOT
ATOM      1  N   UNL     1       3.050   5.834  18.130  0.00  0.00    +0.000 N 
ENDROOT
BRANCH   1   5
ATOM      2  C   UNL     1       6.573   5.443  15.746  0.00  0.00    +0.000 A 
ATOM      3  C   UNL     1       5.524   4.557  15.569  0.00  0.00    +0.000 A 
ATOM      4  C   UNL     1       4.363   4.701  16.345  0.00  0.00    +0.000 A 
ATOM      5  C   UNL     1       4.203   5.743  17.281  0.00  0.00    +0.000 A 
ATOM      6  C   UNL     1       5.261   6.670  17.355  0.00  0.00    +0.000 A 
ATOM      7  C   UNL     1       6.446   6.513  16.618  0.00  0.00    +0.000 A 
BRANCH   2   8
ATOM      8  O   UNL     1       7.756   5.284  15.088  0.00  0.00    +0.000 OA
ATOM      9  H   UNL     1       8.151   4.444  15.378  0.00  0.00    +0.000 HD
ENDBRANCH   2   8
ENDBRANCH   1   5
BRANCH   1  10
ATOM     10  C   UNL     1       2.463   7.047  18.609  0.00  0.00    +0.000 A 
ATOM     11  C   UNL     1       2.133   7.239  19.960  0.00  0.00    +0.000 A 
ATOM     12  C   UNL     1       1.477   8.391  20.405  0.00  0.00    +0.000 A 
ATOM     13  C   UNL     1       1.146   9.407  19.521  0.00  0.00    +0.000 A 
ATOM     14  C   UNL     1       1.471   9.259  18.177  0.00  0.00    +0.000 A 
ATOM     15  C   UNL     1       2.160   8.115  17.745  0.00  0.00    +0.000 A 
BRANCH  13  16
ATOM     16  O   UNL     1       0.491  10.556  19.878  0.00  0.00    +0.000 OA
BRANCH  16  17
ATOM     17  C   UNL     1       0.982  11.715  19.193  0.00  0.00    +0.000 C 
BRANCH  17  18
ATOM     18  C   UNL     1       1.309  12.843  20.176  0.00  0.00    +0.000 C 
BRANCH  18  19
ATOM     19  N   UNL     1       1.925  14.032  19.542  0.00  0.00    +0.000 NA
ATOM     20  C   UNL     1       2.545  13.680  18.272  0.00  0.00    +0.000 C 
ATOM     21  C   UNL     1       3.821  14.492  18.043  0.00  0.00    +0.000 C 
ATOM     22  C   UNL     1       3.615  15.933  17.591  0.00  0.00    +0.000 C 
ATOM     23  C   UNL     1       2.755  16.783  18.521  0.00  0.00    +0.000 C 
ATOM     24  C   UNL     1       1.301  16.330  18.525  0.00  0.00    +0.000 C 
ATOM     25  C   UNL     1       0.996  15.175  19.482  0.00  0.00    +0.000 C 
ENDBRANCH  18  19
ENDBRANCH  17  18
ENDBRANCH  16  17
ENDBRANCH  13  16
ENDBRANCH   1  10
BRANCH   1  26
ATOM     26  C   UNL     1       2.122   4.671  18.027  0.00  0.00    +0.000 C 
BRANCH  26  27
ATOM     27  C   UNL     1       2.137   3.739  19.232  0.00  0.00    +0.000 A 
ATOM     28  C   UNL     1       3.334   3.106  19.615  0.00  0.00    +0.000 A 
ATOM     29  C   UNL     1       3.427   2.434  20.835  0.00  0.00    +0.000 A 
ATOM     30  C   UNL     1       2.329   2.380  21.689  0.00  0.00    +0.000 A 
ATOM     31  C   UNL     1       1.121   2.954  21.297  0.00  0.00    +0.000 A 
ATOM     32  C   UNL     1       1.022   3.621  20.075  0.00  0.00    +0.000 A 
ENDBRANCH  26  27
ENDBRANCH   1  26
TORSDOF 9
ENDMDL
MODEL 4
REMARK VINA RESULT:      -8.2      2.122      2.848
REMARK  Name = 
REMARK  9 active torsions:
REMARK  status: ('A' for Active; 'I' for Inactive)
REMARK    1  A    between atoms: O_1  and  C_2
REMARK    2  A    between atoms: C_5  and  N_6
REMARK    3  A    between atoms: N_6  and  C_7
REMARK    4  A    between atoms: N_6  and  C_14
REMARK    5  A    between atoms: C_7  and  C_8
REMARK    6  A    between atoms: C_17  and  O_18
REMARK    7  A    between atoms: O_18  and  C_19
REMARK    8  A    between atoms: C_19  and  C_20
REMARK    9  A    between atoms: C_20  and  N_21
REMARK                            x       y       z     vdW  Elec       q    Type
REMARK                         _______ _______ _______ _____ _____    ______ ____
ROOT
ATOM      1  N   UNL     1       3.432   5.543  17.873  0.00  0.00    +0.000 N 
ENDROOT
BRANCH   1   5
ATOM      2  C   UNL     1       6.873   5.327  15.351  0.00  0.00    +0.000 A 
ATOM      3  C   UNL     1       6.912   6.102  16.498  0.00  0.00    +0.000 A 
ATOM      4  C   UNL     1       5.783   6.155  17.331  0.00  0.00    +0.000 A 
ATOM      5  C   UNL     1       4.611   5.418  17.066  0.00  0.00    +0.000 A 
ATOM      6  C   UNL     1       4.659   4.575  15.937  0.00  0.00    +0.000 A 
ATOM      7  C   UNL     1       5.764   4.545  15.072  0.00  0.00    +0.000 A 
BRANCH   2   8
ATOM      8  O   UNL     1       7.907   5.323  14.463  0.00  0.00    +0.000 OA
ATOM      9  H   UNL     1       7.914   6.181  14.005  0.00  0.00    +0.000 HD
ENDBRANCH   2   8
ENDBRANCH   1   5
BRANCH   1  10
ATOM     10  C   UNL     1       2.840   6.774  18.296  0.00  0.00    +0.000 A 
ATOM     11  C   UNL     1       2.396   6.980  19.612  0.00  0.00    +0.000 A 
ATOM     12  C   UNL     1       1.737   8.151  19.996  0.00  0.00    +0.000 A 
ATOM     13  C   UNL     1       1.514   9.173  19.084  0.00  0.00    +0.000 A 
ATOM     14  C   UNL     1       1.953   9.011  17.775  0.00  0.00    +0.000 A 
ATOM     15  C   UNL     1       2.645   7.846  17.407  0.00  0.00    +0.000 A 
BRANCH  13  16
ATOM     16  O   UNL     1       0.863  10.342  19.381  0.00  0.00    +0.000 OA
BRANCH  16  17
ATOM     17  C   UNL     1      -0.204  10.163  20.320  0.00  0.00    +0.000 C 
BRANCH  17  18
ATOM     18  C   UNL     1       0.095  10.879  21.641  0.00  0.00    +0.000 C 
BRANCH  18  19
ATOM     19  N   UNL     1      -0.909  11.905  22.009  0.00  0.00    +0.000 NA
ATOM     20  C   UNL     1      -1.667  12.332  20.840  0.00  0.00    +0.000 C 
ATOM     21  C   UNL     1      -2.003  13.822  20.923  0.00  0.00    +0.000 C 
ATOM     22  C   UNL     1      -3.153  14.188  21.854  0.00  0.00    +0.000 C 
ATOM     23  C   UNL     1      -2.981  13.731  23.299  0.00  0.00    +0.000 C 
ATOM     24  C   UNL     1      -3.051  12.215  23.430  0.00  0.00    +0.000 C 
ATOM     25  C   UNL     1      -1.730  11.492  23.162  0.00  0.00    +0.000 C 
ENDBRANCH  18  19
ENDBRANCH  17  18
ENDBRANCH  16  17
ENDBRANCH  13  16
ENDBRANCH   1  10
BRANCH   1  26
ATOM     26  C   UNL     1       2.498   4.384  17.773  0.00  0.00    +0.000 C 
BRANCH  26  27
ATOM     27  C   UNL     1       2.321   3.599  19.067  0.00  0.00    +0.000 A 
ATOM     28  C   UNL     1       3.438   3.011  19.690  0.00  0.00    +0.000 A 
ATOM     29  C   UNL     1       3.341   2.486  20.979  0.00  0.00    +0.000 A 
ATOM     30  C   UNL     1       2.131   2.536  21.666  0.00  0.00    +0.000 A 
ATOM     31  C   UNL     1       1.003   3.065  21.039  0.00  0.00    +0.000 A 
ATOM     32  C   UNL     1       1.095   3.584  19.747  0.00  0.00    +0.000 A 
ENDBRANCH  26  27
ENDBRANCH   1  26
TORSDOF 9
ENDMDL
MODEL 5
REMARK VINA RESULT:      -8.2      5.268      9.023
REMARK  Name = 
REMARK  9 active torsions:
REMARK  status: ('A' for Active; 'I' for Inactive)
REMARK    1  A    between atoms: O_1  and  C_2
REMARK    2  A    between atoms: C_5  and  N_6
REMARK    3  A    between atoms: N_6  and  C_7
REMARK    4  A    between atoms: N_6  and  C_14
REMARK    5  A    between atoms: C_7  and  C_8
REMARK    6  A    between atoms: C_17  and  O_18
REMARK    7  A    between atoms: O_18  and  C_19
REMARK    8  A    between atoms: C_19  and  C_20
REMARK    9  A    between atoms: C_20  and  N_21
REMARK                            x       y       z     vdW  Elec       q    Type
REMARK                         _______ _______ _______ _____ _____    ______ ____
ROOT
ATOM      1  N   UNL     1       5.417   4.529  16.802  0.00  0.00    +0.000 N 
ENDROOT
BRANCH   1   5
ATOM      2  C   UNL     1       1.643   3.373  18.434  0.00  0.00    +0.000 A 
ATOM      3  C   UNL     1       2.688   2.466  18.417  0.00  0.00    +0.000 A 
ATOM      4  C   UNL     1       3.931   2.858  17.893  0.00  0.00    +0.000 A 
ATOM      5  C   UNL     1       4.173   4.161  17.413  0.00  0.00    +0.000 A 
ATOM      6  C   UNL     1       3.103   5.070  17.539  0.00  0.00    +0.000 A 
ATOM      7  C   UNL     1       1.842   4.680  18.019  0.00  0.00    +0.000 A 
BRANCH   2   8
ATOM      8  O   UNL     1       0.394   3.008  18.839  0.00  0.00    +0.000 OA
ATOM      9  H   UNL     1       0.472   2.575  19.706  0.00  0.00    +0.000 HD
ENDBRANCH   2   8
ENDBRANCH   1   5
BRANCH   1  10
ATOM     10  C   UNL     1       6.366   5.454  17.340  0.00  0.00    +0.000 A 
ATOM     11  C   UNL     1       7.243   5.109  18.380  0.00  0.00    +0.000 A 
ATOM     12  C   UNL     1       8.106   6.042  18.961  0.00  0.00    +0.000 A 
ATOM     13  C   UNL     1       8.142   7.354  18.511  0.00  0.00    +0.000 A 
ATOM     14  C   UNL     1       7.298   7.729  17.472  0.00  0.00    +0.000 A 
ATOM     15  C   UNL     1       6.460   6.776  16.871  0.00  0.00    +0.000 A 
BRANCH  13  16
ATOM     16  O   UNL     1       8.948   8.328  19.039  0.00  0.00    +0.000 OA
BRANCH  16  17
ATOM     17  C   UNL     1       8.631   9.638  18.554  0.00  0.00    +0.000 C 
BRANCH  17  18
ATOM     18  C   UNL     1       9.033  10.716  19.564  0.00  0.00    +0.000 C 
BRANCH  18  19
ATOM     19  N   UNL     1       9.726  11.879  18.960  0.00  0.00    +0.000 NA
ATOM     20  C   UNL     1      10.312  11.522  17.674  0.00  0.00    +0.000 C 
ATOM     21  C   UNL     1      11.639  12.252  17.458  0.00  0.00    +0.000 C 
ATOM     22  C   UNL     1      11.528  13.716  17.049  0.00  0.00    +0.000 C 
ATOM     23  C   UNL     1      10.734  14.595  18.010  0.00  0.00    +0.000 C 
ATOM     24  C   UNL     1       9.253  14.242  18.013  0.00  0.00    +0.000 C 
ATOM     25  C   UNL     1       8.876  13.084  18.939  0.00  0.00    +0.000 C 
ENDBRANCH  18  19
ENDBRANCH  17  18
ENDBRANCH  16  17
ENDBRANCH  13  16
ENDBRANCH   1  10
BRANCH   1  26
ATOM     26  C   UNL     1       5.980   3.493  15.888  0.00  0.00    +0.000 C 
BRANCH  26  27
ATOM     27  C   UNL     1       6.279   3.986  14.478  0.00  0.00    +0.000 A 
ATOM     28  C   UNL     1       7.333   4.892  14.260  0.00  0.00    +0.000 A 
ATOM     29  C   UNL     1       7.770   5.181  12.967  0.00  0.00    +0.000 A 
ATOM     30  C   UNL     1       7.162   4.574  11.871  0.00  0.00    +0.000 A 
ATOM     31  C   UNL     1       6.079   3.717  12.070  0.00  0.00    +0.000 A 
ATOM     32  C   UNL     1       5.636   3.432  13.362  0.00  0.00    +0.000 A 
ENDBRANCH  26  27
ENDBRANCH   1  26
TORSDOF 9
ENDMDL
MODEL 6
REMARK VINA RESULT:      -8.2      1.671      2.749
REMARK  Name = 
REMARK  9 active torsions:
REMARK  status: ('A' for Active; 'I' for Inactive)
REMARK    1  A    between atoms: O_1  and  C_2
REMARK    2  A    between atoms: C_5  and  N_6
REMARK    3  A    between atoms: N_6  and  C_7
REMARK    4  A    between atoms: N_6  and  C_14
REMARK    5  A    between atoms: C_7  and  C_8
REMARK    6  A    between atoms: C_17  and  O_18
REMARK    7  A    between atoms: O_18  and  C_19
REMARK    8  A    between atoms: C_19  and  C_20
REMARK    9  A    between atoms: C_20  and  N_21
REMARK                            x       y       z     vdW  Elec       q    Type
REMARK                         _______ _______ _______ _____ _____    ______ ____
ROOT
ATOM      1  N   UNL     1       2.988   5.832  18.107  0.00  0.00    +0.000 N 
ENDROOT
BRANCH   1   5
ATOM      2  C   UNL     1       6.551   5.447  15.783  0.00  0.00    +0.000 A 
ATOM      3  C   UNL     1       5.509   4.556  15.593  0.00  0.00    +0.000 A 
ATOM      4  C   UNL     1       4.335   4.697  16.349  0.00  0.00    +0.000 A 
ATOM      5  C   UNL     1       4.154   5.742  17.278  0.00  0.00    +0.000 A 
ATOM      6  C   UNL     1       5.208   6.675  17.365  0.00  0.00    +0.000 A 
ATOM      7  C   UNL     1       6.405   6.520  16.648  0.00  0.00    +0.000 A 
BRANCH   2   8
ATOM      8  O   UNL     1       7.745   5.290  15.146  0.00  0.00    +0.000 OA
ATOM      9  H   UNL     1       7.927   6.101  14.642  0.00  0.00    +0.000 HD
ENDBRANCH   2   8
ENDBRANCH   1   5
BRANCH   1  10
ATOM     10  C   UNL     1       2.368   7.045  18.544  0.00  0.00    +0.000 A 
ATOM     11  C   UNL     1       2.067   8.093  17.661  0.00  0.00    +0.000 A 
ATOM     12  C   UNL     1       1.544   9.310  18.108  0.00  0.00    +0.000 A 
ATOM     13  C   UNL     1       1.281   9.519  19.454  0.00  0.00    +0.000 A 
ATOM     14  C   UNL     1       1.553   8.497  20.357  0.00  0.00    +0.000 A 
ATOM     15  C   UNL     1       2.045   7.266  19.894  0.00  0.00    +0.000 A 
BRANCH  13  16
ATOM     16  O   UNL     1       0.784  10.688  19.970  0.00  0.00    +0.000 OA
BRANCH  16  17
ATOM     17  C   UNL     1       0.725  11.743  19.003  0.00  0.00    +0.000 C 
BRANCH  17  18
ATOM     18  C   UNL     1      -0.664  12.387  18.970  0.00  0.00    +0.000 C 
BRANCH  18  19
ATOM     19  N   UNL     1      -1.315  12.482  20.298  0.00  0.00    +0.000 NA
ATOM     20  C   UNL     1      -0.768  13.593  21.065  0.00  0.00    +0.000 C 
ATOM     21  C   UNL     1      -0.697  13.245  22.554  0.00  0.00    +0.000 C 
ATOM     22  C   UNL     1      -2.018  13.318  23.311  0.00  0.00    +0.000 C 
ATOM     23  C   UNL     1      -3.134  12.446  22.744  0.00  0.00    +0.000 C 
ATOM     24  C   UNL     1      -3.616  12.948  21.389  0.00  0.00    +0.000 C 
ATOM     25  C   UNL     1      -2.786  12.463  20.199  0.00  0.00    +0.000 C 
ENDBRANCH  18  19
ENDBRANCH  17  18
ENDBRANCH  16  17
ENDBRANCH  13  16
ENDBRANCH   1  10
BRANCH   1  26
ATOM     26  C   UNL     1       2.085   4.647  18.022  0.00  0.00    +0.000 C 
BRANCH  26  27
ATOM     27  C   UNL     1       2.120   3.735  19.242  0.00  0.00    +0.000 A 
ATOM     28  C   UNL     1       3.322   3.101  19.611  0.00  0.00    +0.000 A 
ATOM     29  C   UNL     1       3.436   2.449  20.839  0.00  0.00    +0.000 A 
ATOM     30  C   UNL     1       2.356   2.416  21.717  0.00  0.00    +0.000 A 
ATOM     31  C   UNL     1       1.143   2.991  21.340  0.00  0.00    +0.000 A 
ATOM     32  C   UNL     1       1.023   3.637  20.109  0.00  0.00    +0.000 A 
ENDBRANCH  26  27
ENDBRANCH   1  26
TORSDOF 9
ENDMDL
MODEL 7
REMARK VINA RESULT:      -8.1      2.436      8.902
REMARK  Name = 
REMARK  9 active torsions:
REMARK  status: ('A' for Active; 'I' for Inactive)
REMARK    1  A    between atoms: O_1  and  C_2
REMARK    2  A    between atoms: C_5  and  N_6
REMARK    3  A    between atoms: N_6  and  C_7
REMARK    4  A    between atoms: N_6  and  C_14
REMARK    5  A    between atoms: C_7  and  C_8
REMARK    6  A    between atoms: C_17  and  O_18
REMARK    7  A    between atoms: O_18  and  C_19
REMARK    8  A    between atoms: C_19  and  C_20
REMARK    9  A    between atoms: C_20  and  N_21
REMARK                            x       y       z     vdW  Elec       q    Type
REMARK                         _______ _______ _______ _____ _____    ______ ____
ROOT
ATOM      1  N   UNL     1       0.657  10.694  19.339  0.00  0.00    +0.000 N 
ENDROOT
BRANCH   1   5
ATOM      2  C   UNL     1       3.001  14.257  19.568  0.00  0.00    +0.000 A 
ATOM      3  C   UNL     1       2.867  13.602  18.356  0.00  0.00    +0.000 A 
ATOM      4  C   UNL     1       2.083  12.440  18.285  0.00  0.00    +0.000 A 
ATOM      5  C   UNL     1       1.387  11.927  19.398  0.00  0.00    +0.000 A 
ATOM      6  C   UNL     1       1.483  12.683  20.584  0.00  0.00    +0.000 A 
ATOM      7  C   UNL     1       2.300  13.821  20.681  0.00  0.00    +0.000 A 
BRANCH   2   8
ATOM      8  O   UNL     1       3.831  15.329  19.708  0.00  0.00    +0.000 OA
ATOM      9  H   UNL     1       3.557  16.008  19.068  0.00  0.00    +0.000 HD
ENDBRANCH   2   8
ENDBRANCH   1   5
BRANCH   1  10
ATOM     10  C   UNL     1       1.217   9.386  19.494  0.00  0.00    +0.000 A 
ATOM     11  C   UNL     1       1.894   8.732  18.453  0.00  0.00    +0.000 A 
ATOM     12  C   UNL     1       2.359   7.421  18.582  0.00  0.00    +0.000 A 
ATOM     13  C   UNL     1       2.185   6.717  19.765  0.00  0.00    +0.000 A 
ATOM     14  C   UNL     1       1.532   7.338  20.824  0.00  0.00    +0.000 A 
ATOM     15  C   UNL     1       1.099   8.668  20.697  0.00  0.00    +0.000 A 
BRANCH  13  16
ATOM     16  O   UNL     1       2.599   5.426  19.962  0.00  0.00    +0.000 OA
BRANCH  16  17
ATOM     17  C   UNL     1       2.494   4.621  18.782  0.00  0.00    +0.000 C 
BRANCH  17  18
ATOM     18  C   UNL     1       3.531   3.494  18.785  0.00  0.00    +0.000 C 
BRANCH  18  19
ATOM     19  N   UNL     1       4.790   3.835  18.081  0.00  0.00    +0.000 NA
ATOM     20  C   UNL     1       4.514   4.531  16.831  0.00  0.00    +0.000 C 
ATOM     21  C   UNL     1       5.524   4.137  15.753  0.00  0.00    +0.000 C 
ATOM     22  C   UNL     1       6.896   4.792  15.862  0.00  0.00    +0.000 C 
ATOM     23  C   UNL     1       7.612   4.567  17.190  0.00  0.00    +0.000 C 
ATOM     24  C   UNL     1       6.919   5.285  18.341  0.00  0.00    +0.000 C 
ATOM     25  C   UNL     1       5.757   4.512  18.966  0.00  0.00    +0.000 C 
ENDBRANCH  18  19
ENDBRANCH  17  18
ENDBRANCH  16  17
ENDBRANCH  13  16
ENDBRANCH   1  10
BRANCH   1  26
ATOM     26  C   UNL     1      -0.784  10.820  19.703  0.00  0.00    +0.000 C 
BRANCH  26  27
ATOM     27  C   UNL     1      -1.735  10.879  18.514  0.00  0.00    +0.000 A 
ATOM     28  C   UNL     1      -1.537  10.024  17.414  0.00  0.00    +0.000 A 
ATOM     29  C   UNL     1      -2.513   9.898  16.424  0.00  0.00    +0.000 A 
ATOM     30  C   UNL     1      -3.698  10.623  16.513  0.00  0.00    +0.000 A 
ATOM     31  C   UNL     1      -3.883  11.516  17.569  0.00  0.00    +0.000 A 
ATOM     32  C   UNL     1      -2.906  11.649  18.557  0.00  0.00    +0.000 A 
ENDBRANCH  26  27
ENDBRANCH   1  26
TORSDOF 9
ENDMDL
MODEL 8
REMARK VINA RESULT:      -8.1      1.115      1.392
REMARK  Name = 
REMARK  9 active torsions:
REMARK  status: ('A' for Active; 'I' for Inactive)
REMARK    1  A    between atoms: O_1  and  C_2
REMARK    2  A    between atoms: C_5  and  N_6
REMARK    3  A    between atoms: N_6  and  C_7
REMARK    4  A    between atoms: N_6  and  C_14
REMARK    5  A    between atoms: C_7  and  C_8
REMARK    6  A    between atoms: C_17  and  O_18
REMARK    7  A    between atoms: O_18  and  C_19
REMARK    8  A    between atoms: C_19  and  C_20
REMARK    9  A    between atoms: C_20  and  N_21
REMARK                            x       y       z     vdW  Elec       q    Type
REMARK                         _______ _______ _______ _____ _____    ______ ____
ROOT
ATOM      1  N   UNL     1       2.902   6.309  18.525  0.00  0.00    +0.000 N 
ENDROOT
BRANCH   1   5
ATOM      2  C   UNL     1       6.800   5.246  17.139  0.00  0.00    +0.000 A 
ATOM      3  C   UNL     1       5.918   5.880  16.282  0.00  0.00    +0.000 A 
ATOM      4  C   UNL     1       4.643   6.241  16.749  0.00  0.00    +0.000 A 
ATOM      5  C   UNL     1       4.233   6.015  18.078  0.00  0.00    +0.000 A 
ATOM      6  C   UNL     1       5.202   5.452  18.933  0.00  0.00    +0.000 A 
ATOM      7  C   UNL     1       6.463   5.046  18.469  0.00  0.00    +0.000 A 
BRANCH   2   8
ATOM      8  O   UNL     1       8.008   4.788  16.704  0.00  0.00    +0.000 OA
ATOM      9  H   UNL     1       8.697   5.380  17.050  0.00  0.00    +0.000 HD
ENDBRANCH   2   8
ENDBRANCH   1   5
BRANCH   1  10
ATOM     10  C   UNL     1       2.344   7.617  18.676  0.00  0.00    +0.000 A 
ATOM     11  C   UNL     1       2.416   8.585  17.663  0.00  0.00    +0.000 A 
ATOM     12  C   UNL     1       1.948   9.889  17.850  0.00  0.00    +0.000 A 
ATOM     13  C   UNL     1       1.370  10.272  19.051  0.00  0.00    +0.000 A 
ATOM     14  C   UNL     1       1.268   9.335  20.073  0.00  0.00    +0.000 A 
ATOM     15  C   UNL     1       1.708   8.019  19.865  0.00  0.00    +0.000 A 
BRANCH  13  16
ATOM     16  O   UNL     1       0.903  11.532  19.315  0.00  0.00    +0.000 OA
BRANCH  16  17
ATOM     17  C   UNL     1      -0.115  11.551  20.322  0.00  0.00    +0.000 C 
BRANCH  17  18
ATOM     18  C   UNL     1      -1.318  12.389  19.879  0.00  0.00    +0.000 C 
BRANCH  18  19
ATOM     19  N   UNL     1      -2.057  11.818  18.728  0.00  0.00    +0.000 NA
ATOM     20  C   UNL     1      -1.848  10.379  18.639  0.00  0.00    +0.000 C 
ATOM     21  C   UNL     1      -1.791   9.924  17.180  0.00  0.00    +0.000 C 
ATOM     22  C   UNL     1      -3.135   9.815  16.470  0.00  0.00    +0.000 C 
ATOM     23  C   UNL     1      -3.966  11.094  16.464  0.00  0.00    +0.000 C 
ATOM     24  C   UNL     1      -4.467  11.455  17.856  0.00  0.00    +0.000 C 
ATOM     25  C   UNL     1      -3.469  12.241  18.708  0.00  0.00    +0.000 C 
ENDBRANCH  18  19
ENDBRANCH  17  18
ENDBRANCH  16  17
ENDBRANCH  13  16
ENDBRANCH   1  10
BRANCH   1  26
ATOM     26  C   UNL     1       1.917   5.219  18.267  0.00  0.00    +0.000 C 
BRANCH  26  27
ATOM     27  C   UNL     1       1.677   4.288  19.449  0.00  0.00    +0.000 A 
ATOM     28  C   UNL     1       1.083   3.029  19.242  0.00  0.00    +0.000 A 
ATOM     29  C   UNL     1       1.059   2.075  20.261  0.00  0.00    +0.000 A 
ATOM     30  C   UNL     1       1.624   2.362  21.501  0.00  0.00    +0.000 A 
ATOM     31  C   UNL     1       2.165   3.625  21.737  0.00  0.00    +0.000 A 
ATOM     32  C   UNL     1       2.183   4.583  20.723  0.00  0.00    +0.000 A 
ENDBRANCH  26  27
ENDBRANCH   1  26
TORSDOF 9
ENDMDL
MODEL 9
REMARK VINA RESULT:      -8.1      2.554      3.678
REMARK  Name = 
REMARK  9 active torsions:
REMARK  status: ('A' for Active; 'I' for Inactive)
REMARK    1  A    between atoms: O_1  and  C_2
REMARK    2  A    between atoms: C_5  and  N_6
REMARK    3  A    between atoms: N_6  and  C_7
REMARK    4  A    between atoms: N_6  and  C_14
REMARK    5  A    between atoms: C_7  and  C_8
REMARK    6  A    between atoms: C_17  and  O_18
REMARK    7  A    between atoms: O_18  and  C_19
REMARK    8  A    between atoms: C_19  and  C_20
REMARK    9  A    between atoms: C_20  and  N_21
REMARK                            x       y       z     vdW  Elec       q    Type
REMARK                         _______ _______ _______ _____ _____    ______ ____
ROOT
ATOM      1  N   UNL     1       3.237   5.641  17.967  0.00  0.00    +0.000 N 
ENDROOT
BRANCH   1   5
ATOM      2  C   UNL     1       6.783   5.403  15.599  0.00  0.00    +0.000 A 
ATOM      3  C   UNL     1       6.727   6.289  16.661  0.00  0.00    +0.000 A 
ATOM      4  C   UNL     1       5.564   6.351  17.445  0.00  0.00    +0.000 A 
ATOM      5  C   UNL     1       4.453   5.515  17.218  0.00  0.00    +0.000 A 
ATOM      6  C   UNL     1       4.598   4.568  16.183  0.00  0.00    +0.000 A 
ATOM      7  C   UNL     1       5.737   4.525  15.364  0.00  0.00    +0.000 A 
BRANCH   2   8
ATOM      8  O   UNL     1       7.850   5.378  14.752  0.00  0.00    +0.000 OA
ATOM      9  H   UNL     1       7.962   6.270  14.381  0.00  0.00    +0.000 HD
ENDBRANCH   2   8
ENDBRANCH   1   5
BRANCH   1  10
ATOM     10  C   UNL     1       2.612   6.873  18.338  0.00  0.00    +0.000 A 
ATOM     11  C   UNL     1       2.367   7.899  17.411  0.00  0.00    +0.000 A 
ATOM     12  C   UNL     1       1.838   9.134  17.797  0.00  0.00    +0.000 A 
ATOM     13  C   UNL     1       1.512   9.386  19.122  0.00  0.00    +0.000 A 
ATOM     14  C   UNL     1       1.727   8.388  20.065  0.00  0.00    +0.000 A 
ATOM     15  C   UNL     1       2.225   7.139  19.664  0.00  0.00    +0.000 A 
BRANCH  13  16
ATOM     16  O   UNL     1       1.006  10.574  19.578  0.00  0.00    +0.000 OA
BRANCH  16  17
ATOM     17  C   UNL     1       1.359  11.687  18.748  0.00  0.00    +0.000 C 
BRANCH  17  18
ATOM     18  C   UNL     1       0.504  12.915  19.074  0.00  0.00    +0.000 C 
BRANCH  18  19
ATOM     19  N   UNL     1       1.156  14.205  18.746  0.00  0.00    +0.000 NA
ATOM     20  C   UNL     1       1.110  15.113  19.885  0.00  0.00    +0.000 C 
ATOM     21  C   UNL     1       0.926  16.559  19.423  0.00  0.00    +0.000 C 
ATOM     22  C   UNL     1       2.174  17.242  18.875  0.00  0.00    +0.000 C 
ATOM     23  C   UNL     1       2.839  16.524  17.705  0.00  0.00    +0.000 C 
ATOM     24  C   UNL     1       3.464  15.202  18.128  0.00  0.00    +0.000 C 
ATOM     25  C   UNL     1       2.494  14.019  18.156  0.00  0.00    +0.000 C 
ENDBRANCH  18  19
ENDBRANCH  17  18
ENDBRANCH  16  17
ENDBRANCH  13  16
ENDBRANCH   1  10
BRANCH   1  26
ATOM     26  C   UNL     1       2.321   4.470  17.848  0.00  0.00    +0.000 C 
BRANCH  26  27
ATOM     27  C   UNL     1       2.196   3.631  19.113  0.00  0.00    +0.000 A 
ATOM     28  C   UNL     1       3.334   3.003  19.654  0.00  0.00    +0.000 A 
ATOM     29  C   UNL     1       3.294   2.423  20.923  0.00  0.00    +0.000 A 
ATOM     30  C   UNL     1       2.120   2.457  21.671  0.00  0.00    +0.000 A 
ATOM     31  C   UNL     1       0.970   3.026  21.124  0.00  0.00    +0.000 A 
ATOM     32  C   UNL     1       1.005   3.600  19.853  0.00  0.00    +0.000 A 
ENDBRANCH  26  27
ENDBRANCH   1  26
TORSDOF 9
ENDMDL
