MODEL 1
REMARK VINA RESULT:      -7.0      0.000      0.000
REMARK  Name = 
REMARK  8 active torsions:
REMARK  status: ('A' for Active; 'I' for Inactive)
REMARK    1  A    between atoms: C_1  and  N_2
REMARK    2  A    between atoms: N_2  and  C_3
REMARK    3  A    between atoms: C_7  and  C_8
REMARK    4  A    between atoms: C_8  and  N_9
REMARK    5  A    between atoms: N_9  and  C_10
REMARK    6  A    between atoms: C_15  and  S_16
REMARK    7  A    between atoms: S_16  and  C_17
REMARK    8  A    between atoms: N_20  and  C_21
REMARK                            x       y       z     vdW  Elec       q    Type
REMARK                         _______ _______ _______ _____ _____    ______ ____
ROOT
ATOM      1  N   UNL     1       4.809   5.726  19.273  0.00  0.00    +0.000 NA
ATOM      2  H   UNL     1       4.960   6.706  19.028  0.00  0.00    +0.000 HD
ENDROOT
BRANCH   1   3
ATOM      3  C   UNL     1       3.597   5.230  18.573  0.00  0.00    +0.000 C 
ATOM      4  C   UNL     1       2.557   6.373  18.620  0.00  0.00    +0.000 C 
ATOM      5  C   UNL     1       2.034   6.650  20.032  0.00  0.00    +0.000 C 
ATOM      6  C   UNL     1       1.528   5.395  20.737  0.00  0.00    +0.000 C 
ATOM      7  C   UNL     1       2.509   4.229  20.649  0.00  0.00    +0.000 C 
ATOM      8  C   UNL     1       3.012   3.955  19.229  0.00  0.00    +0.000 C 
BRANCH   8   9
ATOM      9  S   UNL     1       1.786   3.169  18.157  0.00  0.00    +0.000 S 
ATOM     10  C   UNL     1       0.612   2.456  19.285  0.00  0.00    +0.000 C 
ATOM     11  O   UNL     1       1.075   4.165  17.379  0.00  0.00    +0.000 OA
ATOM     12  O   UNL     1       2.441   2.058  17.491  0.00  0.00    +0.000 OA
ENDBRANCH   8   9
ENDBRANCH   1   3
BRANCH   1  13
ATOM     13  C   UNL     1       6.038   4.998  18.970  0.00  0.00    +0.000 C 
BRANCH  13  20
ATOM     14  C   UNL     1       5.821   3.895  13.516  0.00  0.00    +0.000 C 
ATOM     15  N   UNL     1       6.978   4.530  14.126  0.00  0.00    +0.000 N 
ATOM     16  C   UNL     1       7.875   5.224  13.197  0.00  0.00    +0.000 C 
ATOM     17  C   UNL     1       6.923   5.063  15.386  0.00  0.00    +0.000 A 
ATOM     18  N   UNL     1       7.571   6.145  15.772  0.00  0.00    +0.000 NA
ATOM     19  C   UNL     1       7.319   6.301  17.105  0.00  0.00    +0.000 A 
ATOM     20  C   UNL     1       6.500   5.301  17.582  0.00  0.00    +0.000 A 
ATOM     21  N   UNL     1       6.258   4.510  16.469  0.00  0.00    +0.000 N 
ATOM     22  C   UNL     1       5.526   3.268  16.477  0.00  0.00    +0.000 C 
ENDBRANCH  13  20
ENDBRANCH   1  13
TORSDOF 4
ENDMDL
MODEL 2
REMARK VINA RESULT:      -6.9      3.754      7.046
REMARK  Name = 
REMARK  8 active torsions:
REMARK  status: ('A' for Active; 'I' for Inactive)
REMARK    1  A    between atoms: C_1  and  N_2
REMARK    2  A    between atoms: N_2  and  C_3
REMARK    3  A    between atoms: C_7  and  C_8
REMARK    4  A    between atoms: C_8  and  N_9
REMARK    5  A    between atoms: N_9  and  C_10
REMARK    6  A    between atoms: C_15  and  S_16
REMARK    7  A    between atoms: S_16  and  C_17
REMARK    8  A    between atoms: N_20  and  C_21
REMARK                            x       y       z     vdW  Elec       q    Type
REMARK                         _______ _______ _______ _____ _____    ______ ____
ROOT
ATOM      1  N   UNL     1       4.351   7.002  17.903  0.00  0.00    +0.000 NA
ATOM      2  H   UNL     1       4.780   7.266  18.792  0.00  0.00    +0.000 HD
ENDROOT
BRANCH   1   3
ATOM      3  C   UNL     1       5.104   5.864  17.318  0.00  0.00    +0.000 C 
ATOM      4  C   UNL     1       5.452   4.914  18.486  0.00  0.00    +0.000 C 
ATOM      5  C   UNL     1       6.466   5.514  19.464  0.00  0.00    +0.000 C 
ATOM      6  C   UNL     1       7.719   6.045  18.773  0.00  0.00    +0.000 C 
ATOM      7  C   UNL     1       7.402   6.934  17.574  0.00  0.00    +0.000 C 
ATOM      8  C   UNL     1       6.398   6.314  16.597  0.00  0.00    +0.000 C 
BRANCH   8   9
ATOM      9  S   UNL     1       7.085   4.980  15.588  0.00  0.00    +0.000 S 
ATOM     10  C   UNL     1       5.664   4.046  15.073  0.00  0.00    +0.000 C 
ATOM     11  O   UNL     1       7.700   5.514  14.388  0.00  0.00    +0.000 OA
ATOM     12  O   UNL     1       7.846   4.117  16.472  0.00  0.00    +0.000 OA
ENDBRANCH   8   9
ENDBRANCH   1   3
BRANCH   1  13
ATOM     13  C   UNL     1       2.936   6.742  18.152  0.00  0.00    +0.000 C 
BRANCH  13  20
ATOM     14  C   UNL     1       0.548   9.998  21.987  0.00  0.00    +0.000 C 
ATOM     15  N   UNL     1       0.190  10.079  20.580  0.00  0.00    +0.000 N 
ATOM     16  C   UNL     1      -0.500  11.307  20.178  0.00  0.00    +0.000 C 
ATOM     17  C   UNL     1       0.964   9.503  19.608  0.00  0.00    +0.000 A 
ATOM     18  N   UNL     1       1.147  10.002  18.401  0.00  0.00    +0.000 NA
ATOM     19  C   UNL     1       1.912   9.103  17.714  0.00  0.00    +0.000 A 
ATOM     20  C   UNL     1       2.219   8.008  18.492  0.00  0.00    +0.000 A 
ATOM     21  N   UNL     1       1.601   8.276  19.703  0.00  0.00    +0.000 N 
ATOM     22  C   UNL     1       1.547   7.371  20.825  0.00  0.00    +0.000 C 
ENDBRANCH  13  20
ENDBRANCH   1  13
TORSDOF 4
ENDMDL
MODEL 3
REMARK VINA RESULT:      -6.9      3.549      6.903
REMARK  Name = 
REMARK  8 active torsions:
REMARK  status: ('A' for Active; 'I' for Inactive)
REMARK    1  A    between atoms: C_1  and  N_2
REMARK    2  A    between atoms: N_2  and  C_3
REMARK    3  A    between atoms: C_7  and  C_8
REMARK    4  A    between atoms: C_8  and  N_9
REMARK    5  A    between atoms: N_9  and  C_10
REMARK    6  A    between atoms: C_15  and  S_16
REMARK    7  A    between atoms: S_16  and  C_17
REMARK    8  A    between atoms: N_20  and  C_21
REMARK                            x       y       z     vdW  Elec       q    Type
REMARK                         _______ _______ _______ _____ _____    ______ ____
ROOT
ATOM      1  N   UNL     1       4.281   6.516  18.110  0.00  0.00    +0.000 NA
ATOM      2  H   UNL     1       4.680   6.837  18.993  0.00  0.00    +0.000 HD
ENDROOT
BRANCH   1   3
ATOM      3  C   UNL     1       5.196   5.519  17.496  0.00  0.00    +0.000 C 
ATOM      4  C   UNL     1       5.839   4.731  18.660  0.00  0.00    +0.000 C 
ATOM      5  C   UNL     1       6.793   5.580  19.504  0.00  0.00    +0.000 C 
ATOM      6  C   UNL     1       7.840   6.310  18.667  0.00  0.00    +0.000 C 
ATOM      7  C   UNL     1       7.238   7.043  17.472  0.00  0.00    +0.000 C 
ATOM      8  C   UNL     1       6.297   6.177  16.629  0.00  0.00    +0.000 C 
BRANCH   8   9
ATOM      9  S   UNL     1       7.149   4.950  15.609  0.00  0.00    +0.000 S 
ATOM     10  C   UNL     1       5.845   3.904  15.004  0.00  0.00    +0.000 C 
ATOM     11  O   UNL     1       7.757   5.581  14.454  0.00  0.00    +0.000 OA
ATOM     12  O   UNL     1       7.953   4.132  16.498  0.00  0.00    +0.000 OA
ENDBRANCH   8   9
ENDBRANCH   1   3
BRANCH   1  13
ATOM     13  C   UNL     1       2.932   6.028  18.382  0.00  0.00    +0.000 C 
BRANCH  13  20
ATOM     14  C   UNL     1       0.222  10.839  19.100  0.00  0.00    +0.000 C 
ATOM     15  N   UNL     1       0.881  10.157  20.202  0.00  0.00    +0.000 N 
ATOM     16  C   UNL     1       0.452  10.569  21.541  0.00  0.00    +0.000 C 
ATOM     17  C   UNL     1       1.288   8.854  20.098  0.00  0.00    +0.000 A 
ATOM     18  N   UNL     1       1.270   7.981  21.086  0.00  0.00    +0.000 NA
ATOM     19  C   UNL     1       1.823   6.828  20.606  0.00  0.00    +0.000 A 
ATOM     20  C   UNL     1       2.206   6.967  19.289  0.00  0.00    +0.000 A 
ATOM     21  N   UNL     1       1.862   8.273  18.978  0.00  0.00    +0.000 N 
ATOM     22  C   UNL     1       2.156   8.934  17.730  0.00  0.00    +0.000 C 
ENDBRANCH  13  20
ENDBRANCH   1  13
TORSDOF 4
ENDMDL
MODEL 4
REMARK VINA RESULT:      -6.8      3.723      7.091
REMARK  Name = 
REMARK  8 active torsions:
REMARK  status: ('A' for Active; 'I' for Inactive)
REMARK    1  A    between atoms: C_1  and  N_2
REMARK    2  A    between atoms: N_2  and  C_3
REMARK    3  A    between atoms: C_7  and  C_8
REMARK    4  A    between atoms: C_8  and  N_9
REMARK    5  A    between atoms: N_9  and  C_10
REMARK    6  A    between atoms: C_15  and  S_16
REMARK    7  A    between atoms: S_16  and  C_17
REMARK    8  A    between atoms: N_20  and  C_21
REMARK                            x       y       z     vdW  Elec       q    Type
REMARK                         _______ _______ _______ _____ _____    ______ ____
ROOT
ATOM      1  N   UNL     1       3.126   6.238  17.451  0.00  0.00    +0.000 NA
ATOM      2  H   UNL     1       2.484   6.018  16.687  0.00  0.00    +0.000 HD
ENDROOT
BRANCH   1   3
ATOM      3  C   UNL     1       4.488   5.764  17.094  0.00  0.00    +0.000 C 
ATOM      4  C   UNL     1       4.356   4.268  16.730  0.00  0.00    +0.000 C 
ATOM      5  C   UNL     1       4.003   3.388  17.932  0.00  0.00    +0.000 C 
ATOM      6  C   UNL     1       4.935   3.602  19.121  0.00  0.00    +0.000 C 
ATOM      7  C   UNL     1       5.134   5.076  19.461  0.00  0.00    +0.000 C 
ATOM      8  C   UNL     1       5.501   5.942  18.251  0.00  0.00    +0.000 C 
BRANCH   8   9
ATOM      9  S   UNL     1       7.200   5.714  17.676  0.00  0.00    +0.000 S 
ATOM     10  C   UNL     1       8.126   6.956  18.548  0.00  0.00    +0.000 C 
ATOM     11  O   UNL     1       7.714   4.426  18.101  0.00  0.00    +0.000 OA
ATOM     12  O   UNL     1       7.235   6.084  16.273  0.00  0.00    +0.000 OA
ENDBRANCH   8   9
ENDBRANCH   1   3
BRANCH   1  13
ATOM     13  C   UNL     1       3.022   7.670  17.720  0.00  0.00    +0.000 C 
BRANCH  13  20
ATOM     14  C   UNL     1      -0.695  10.782  20.459  0.00  0.00    +0.000 C 
ATOM     15  N   UNL     1       0.270   9.947  21.156  0.00  0.00    +0.000 N 
ATOM     16  C   UNL     1      -0.051   9.652  22.555  0.00  0.00    +0.000 C 
ATOM     17  C   UNL     1       0.978   8.972  20.505  0.00  0.00    +0.000 A 
ATOM     18  N   UNL     1       1.328   7.817  21.036  0.00  0.00    +0.000 NA
ATOM     19  C   UNL     1       2.081   7.165  20.103  0.00  0.00    +0.000 A 
ATOM     20  C   UNL     1       2.220   7.916  18.956  0.00  0.00    +0.000 A 
ATOM     21  N   UNL     1       1.512   9.076  19.230  0.00  0.00    +0.000 N 
ATOM     22  C   UNL     1       1.442  10.230  18.367  0.00  0.00    +0.000 C 
ENDBRANCH  13  20
ENDBRANCH   1  13
TORSDOF 4
ENDMDL
MODEL 5
REMARK VINA RESULT:      -6.8      3.928      7.161
REMARK  Name = 
REMARK  8 active torsions:
REMARK  status: ('A' for Active; 'I' for Inactive)
REMARK    1  A    between atoms: C_1  and  N_2
REMARK    2  A    between atoms: N_2  and  C_3
REMARK    3  A    between atoms: C_7  and  C_8
REMARK    4  A    between atoms: C_8  and  N_9
REMARK    5  A    between atoms: N_9  and  C_10
REMARK    6  A    between atoms: C_15  and  S_16
REMARK    7  A    between atoms: S_16  and  C_17
REMARK    8  A    between atoms: N_20  and  C_21
REMARK                            x       y       z     vdW  Elec       q    Type
REMARK                         _______ _______ _______ _____ _____    ______ ____
ROOT
ATOM      1  N   UNL     1       3.564   6.708  17.480  0.00  0.00    +0.000 NA
ATOM      2  H   UNL     1       3.331   7.514  16.898  0.00  0.00    +0.000 HD
ENDROOT
BRANCH   1   3
ATOM      3  C   UNL     1       5.041   6.560  17.539  0.00  0.00    +0.000 C 
ATOM      4  C   UNL     1       5.528   6.376  16.084  0.00  0.00    +0.000 C 
ATOM      5  C   UNL     1       5.086   5.045  15.469  0.00  0.00    +0.000 C 
ATOM      6  C   UNL     1       5.434   3.842  16.339  0.00  0.00    +0.000 C 
ATOM      7  C   UNL     1       5.023   4.025  17.797  0.00  0.00    +0.000 C 
ATOM      8  C   UNL     1       5.484   5.354  18.403  0.00  0.00    +0.000 C 
BRANCH   8   9
ATOM      9  S   UNL     1       7.255   5.420  18.763  0.00  0.00    +0.000 S 
ATOM     10  C   UNL     1       7.768   7.006  18.144  0.00  0.00    +0.000 C 
ATOM     11  O   UNL     1       7.485   5.428  20.194  0.00  0.00    +0.000 OA
ATOM     12  O   UNL     1       7.903   4.425  17.928  0.00  0.00    +0.000 OA
ENDBRANCH   8   9
ENDBRANCH   1   3
BRANCH   1  13
ATOM     13  C   UNL     1       2.911   6.889  18.773  0.00  0.00    +0.000 C 
BRANCH  13  20
ATOM     14  C   UNL     1       0.090  10.717  21.672  0.00  0.00    +0.000 C 
ATOM     15  N   UNL     1      -0.150  10.496  20.255  0.00  0.00    +0.000 N 
ATOM     16  C   UNL     1      -0.847  11.581  19.559  0.00  0.00    +0.000 C 
ATOM     17  C   UNL     1       0.724   9.779  19.482  0.00  0.00    +0.000 A 
ATOM     18  N   UNL     1       0.991  10.035  18.216  0.00  0.00    +0.000 NA
ATOM     19  C   UNL     1       1.843   9.058  17.787  0.00  0.00    +0.000 A 
ATOM     20  C   UNL     1       2.123   8.159  18.792  0.00  0.00    +0.000 A 
ATOM     21  N   UNL     1       1.394   8.630  19.873  0.00  0.00    +0.000 N 
ATOM     22  C   UNL     1       1.278   7.967  21.148  0.00  0.00    +0.000 C 
ENDBRANCH  13  20
ENDBRANCH   1  13
TORSDOF 4
ENDMDL
MODEL 6
REMARK VINA RESULT:      -6.7      3.137      6.139
REMARK  Name = 
REMARK  8 active torsions:
REMARK  status: ('A' for Active; 'I' for Inactive)
REMARK    1  A    between atoms: C_1  and  N_2
REMARK    2  A    between atoms: N_2  and  C_3
REMARK    3  A    between atoms: C_7  and  C_8
REMARK    4  A    between atoms: C_8  and  N_9
REMARK    5  A    between atoms: N_9  and  C_10
REMARK    6  A    between atoms: C_15  and  S_16
REMARK    7  A    between atoms: S_16  and  C_17
REMARK    8  A    between atoms: N_20  and  C_21
REMARK                            x       y       z     vdW  Elec       q    Type
REMARK                         _______ _______ _______ _____ _____    ______ ____
ROOT
ATOM      1  N   UNL     1       4.393   7.080  17.709  0.00  0.00    +0.000 NA
ATOM      2  H   UNL     1       4.746   7.307  18.640  0.00  0.00    +0.000 HD
ENDROOT
BRANCH   1   3
ATOM      3  C   UNL     1       5.159   5.930  17.164  0.00  0.00    +0.000 C 
ATOM      4  C   UNL     1       5.509   5.021  18.364  0.00  0.00    +0.000 C 
ATOM      5  C   UNL     1       6.512   5.661  19.327  0.00  0.00    +0.000 C 
ATOM      6  C   UNL     1       7.764   6.181  18.627  0.00  0.00    +0.000 C 
ATOM      7  C   UNL     1       7.447   7.028  17.398  0.00  0.00    +0.000 C 
ATOM      8  C   UNL     1       6.453   6.369  16.436  0.00  0.00    +0.000 C 
BRANCH   8   9
ATOM      9  S   UNL     1       7.158   5.010  15.473  0.00  0.00    +0.000 S 
ATOM     10  C   UNL     1       5.742   4.101  14.899  0.00  0.00    +0.000 C 
ATOM     11  O   UNL     1       7.841   5.517  14.299  0.00  0.00    +0.000 OA
ATOM     12  O   UNL     1       7.856   4.139  16.401  0.00  0.00    +0.000 OA
ENDBRANCH   8   9
ENDBRANCH   1   3
BRANCH   1  13
ATOM     13  C   UNL     1       2.953   6.864  17.819  0.00  0.00    +0.000 C 
BRANCH  13  20
ATOM     14  C   UNL     1       1.901   1.683  19.568  0.00  0.00    +0.000 C 
ATOM     15  N   UNL     1       1.457   2.850  20.313  0.00  0.00    +0.000 N 
ATOM     16  C   UNL     1       1.099   2.603  21.712  0.00  0.00    +0.000 C 
ATOM     17  C   UNL     1       1.954   4.099  20.053  0.00  0.00    +0.000 A 
ATOM     18  N   UNL     1       2.161   5.029  20.965  0.00  0.00    +0.000 NA
ATOM     19  C   UNL     1       2.585   6.145  20.302  0.00  0.00    +0.000 A 
ATOM     20  C   UNL     1       2.645   5.928  18.943  0.00  0.00    +0.000 A 
ATOM     21  N   UNL     1       2.234   4.613  18.797  0.00  0.00    +0.000 N 
ATOM     22  C   UNL     1       2.031   3.942  17.536  0.00  0.00    +0.000 C 
ENDBRANCH  13  20
ENDBRANCH   1  13
TORSDOF 4
ENDMDL
MODEL 7
REMARK VINA RESULT:      -6.7      4.222      7.212
REMARK  Name = 
REMARK  8 active torsions:
REMARK  status: ('A' for Active; 'I' for Inactive)
REMARK    1  A    between atoms: C_1  and  N_2
REMARK    2  A    between atoms: N_2  and  C_3
REMARK    3  A    between atoms: C_7  and  C_8
REMARK    4  A    between atoms: C_8  and  N_9
REMARK    5  A    between atoms: N_9  and  C_10
REMARK    6  A    between atoms: C_15  and  S_16
REMARK    7  A    between atoms: S_16  and  C_17
REMARK    8  A    between atoms: N_20  and  C_21
REMARK                            x       y       z     vdW  Elec       q    Type
REMARK                         _______ _______ _______ _____ _____    ______ ____
ROOT
ATOM      1  N   UNL     1       2.187   6.247  20.324  0.00  0.00    +0.000 NA
ATOM      2  H   UNL     1       1.243   5.856  20.297  0.00  0.00    +0.000 HD
ENDROOT
BRANCH   1   3
ATOM      3  C   UNL     1       3.134   5.274  19.721  0.00  0.00    +0.000 C 
ATOM      4  C   UNL     1       2.865   5.277  18.199  0.00  0.00    +0.000 C 
ATOM      5  C   UNL     1       1.502   4.684  17.830  0.00  0.00    +0.000 C 
ATOM      6  C   UNL     1       1.265   3.308  18.445  0.00  0.00    +0.000 C 
ATOM      7  C   UNL     1       1.587   3.261  19.936  0.00  0.00    +0.000 C 
ATOM      8  C   UNL     1       2.958   3.844  20.288  0.00  0.00    +0.000 C 
BRANCH   8   9
ATOM      9  S   UNL     1       4.346   2.780  19.826  0.00  0.00    +0.000 S 
ATOM     10  C   UNL     1       3.647   1.630  18.665  0.00  0.00    +0.000 C 
ATOM     11  O   UNL     1       5.356   3.539  19.114  0.00  0.00    +0.000 OA
ATOM     12  O   UNL     1       4.710   2.009  21.000  0.00  0.00    +0.000 OA
ENDBRANCH   8   9
ENDBRANCH   1   3
BRANCH   1  13
ATOM     13  C   UNL     1       2.146   7.553  19.671  0.00  0.00    +0.000 C 
BRANCH  13  20
ATOM     14  C   UNL     1      -1.485  11.758  20.048  0.00  0.00    +0.000 C 
ATOM     15  N   UNL     1      -0.454  11.541  21.050  0.00  0.00    +0.000 N 
ATOM     16  C   UNL     1      -0.678  12.208  22.336  0.00  0.00    +0.000 C 
ATOM     17  C   UNL     1       0.241  10.363  21.122  0.00  0.00    +0.000 A 
ATOM     18  N   UNL     1       0.657   9.804  22.242  0.00  0.00    +0.000 NA
ATOM     19  C   UNL     1       1.370   8.694  21.888  0.00  0.00    +0.000 A 
ATOM     20  C   UNL     1       1.415   8.543  20.519  0.00  0.00    +0.000 A 
ATOM     21  N   UNL     1       0.691   9.623  20.040  0.00  0.00    +0.000 N 
ATOM     22  C   UNL     1       0.534   9.965  18.647  0.00  0.00    +0.000 C 
ENDBRANCH  13  20
ENDBRANCH   1  13
TORSDOF 4
ENDMDL
MODEL 8
REMARK VINA RESULT:      -6.5      3.909      7.237
REMARK  Name = 
REMARK  8 active torsions:
REMARK  status: ('A' for Active; 'I' for Inactive)
REMARK    1  A    between atoms: C_1  and  N_2
REMARK    2  A    between atoms: N_2  and  C_3
REMARK    3  A    between atoms: C_7  and  C_8
REMARK    4  A    between atoms: C_8  and  N_9
REMARK    5  A    between atoms: N_9  and  C_10
REMARK    6  A    between atoms: C_15  and  S_16
REMARK    7  A    between atoms: S_16  and  C_17
REMARK    8  A    between atoms: N_20  and  C_21
REMARK                            x       y       z     vdW  Elec       q    Type
REMARK                         _______ _______ _______ _____ _____    ______ ____
ROOT
ATOM      1  N   UNL     1       1.933   6.682  18.213  0.00  0.00    +0.000 NA
ATOM      2  H   UNL     1       1.451   6.779  17.318  0.00  0.00    +0.000 HD
ENDROOT
BRANCH   1   3
ATOM      3  C   UNL     1       3.019   5.678  18.076  0.00  0.00    +0.000 C 
ATOM      4  C   UNL     1       2.359   4.375  17.570  0.00  0.00    +0.000 C 
ATOM      5  C   UNL     1       1.438   3.728  18.607  0.00  0.00    +0.000 C 
ATOM      6  C   UNL     1       2.111   3.532  19.962  0.00  0.00    +0.000 C 
ATOM      7  C   UNL     1       2.828   4.785  20.455  0.00  0.00    +0.000 C 
ATOM      8  C   UNL     1       3.756   5.414  19.412  0.00  0.00    +0.000 C 
BRANCH   8   9
ATOM      9  S   UNL     1       5.288   4.490  19.144  0.00  0.00    +0.000 S 
ATOM     10  C   UNL     1       5.545   4.570  17.387  0.00  0.00    +0.000 C 
ATOM     11  O   UNL     1       6.408   5.168  19.768  0.00  0.00    +0.000 OA
ATOM     12  O   UNL     1       5.015   3.099  19.457  0.00  0.00    +0.000 OA
ENDBRANCH   8   9
ENDBRANCH   1   3
BRANCH   1  13
ATOM     13  C   UNL     1       2.372   8.011  18.628  0.00  0.00    +0.000 C 
BRANCH  13  20
ATOM     14  C   UNL     1      -1.314  11.741  20.503  0.00  0.00    +0.000 C 
ATOM     15  N   UNL     1      -0.432  11.014  21.402  0.00  0.00    +0.000 N 
ATOM     16  C   UNL     1      -0.840  11.004  22.809  0.00  0.00    +0.000 C 
ATOM     17  C   UNL     1       0.257   9.905  20.990  0.00  0.00    +0.000 A 
ATOM     18  N   UNL     1       0.517   8.858  21.749  0.00  0.00    +0.000 NA
ATOM     19  C   UNL     1       1.283   8.009  21.001  0.00  0.00    +0.000 A 
ATOM     20  C   UNL     1       1.521   8.522  19.745  0.00  0.00    +0.000 A 
ATOM     21  N   UNL     1       0.861   9.741  19.753  0.00  0.00    +0.000 N 
ATOM     22  C   UNL     1       0.897  10.711  18.686  0.00  0.00    +0.000 C 
ENDBRANCH  13  20
ENDBRANCH   1  13
TORSDOF 4
ENDMDL
MODEL 9
REMARK VINA RESULT:      -6.5      3.974      7.364
REMARK  Name = 
REMARK  8 active torsions:
REMARK  status: ('A' for Active; 'I' for Inactive)
REMARK    1  A    between atoms: C_1  and  N_2
REMARK    2  A    between atoms: N_2  and  C_3
REMARK    3  A    between atoms: C_7  and  C_8
REMARK    4  A    between atoms: C_8  and  N_9
REMARK    5  A    between atoms: N_9  and  C_10
REMARK    6  A    between atoms: C_15  and  S_16
REMARK    7  A    between atoms: S_16  and  C_17
REMARK    8  A    between atoms: N_20  and  C_21
REMARK                            x       y       z     vdW  Elec       q    Type
REMARK                         _______ _______ _______ _____ _____    ______ ____
ROOT
ATOM      1  N   UNL     1       2.240   6.469  20.194  0.00  0.00    +0.000 NA
ATOM      2  H   UNL     1       1.319   6.037  20.272  0.00  0.00    +0.000 HD
ENDROOT
BRANCH   1   3
ATOM      3  C   UNL     1       3.150   5.549  19.465  0.00  0.00    +0.000 C 
ATOM      4  C   UNL     1       2.696   5.554  17.987  0.00  0.00    +0.000 C 
ATOM      5  C   UNL     1       1.327   4.900  17.779  0.00  0.00    +0.000 C 
ATOM      6  C   UNL     1       1.231   3.508  18.397  0.00  0.00    +0.000 C 
ATOM      7  C   UNL     1       1.736   3.462  19.836  0.00  0.00    +0.000 C 
ATOM      8  C   UNL     1       3.112   4.107  20.026  0.00  0.00    +0.000 C 
BRANCH   8   9
ATOM      9  S   UNL     1       4.481   3.115  19.381  0.00  0.00    +0.000 S 
ATOM     10  C   UNL     1       5.759   4.303  19.044  0.00  0.00    +0.000 C 
ATOM     11  O   UNL     1       4.990   2.222  20.403  0.00  0.00    +0.000 OA
ATOM     12  O   UNL     1       4.062   2.586  18.096  0.00  0.00    +0.000 OA
ENDBRANCH   8   9
ENDBRANCH   1   3
BRANCH   1  13
ATOM     13  C   UNL     1       2.065   7.781  19.576  0.00  0.00    +0.000 C 
BRANCH  13  20
ATOM     14  C   UNL     1      -1.620  11.899  20.260  0.00  0.00    +0.000 C 
ATOM     15  N   UNL     1      -0.577  11.630  21.238  0.00  0.00    +0.000 N 
ATOM     16  C   UNL     1      -0.800  12.207  22.566  0.00  0.00    +0.000 C 
ATOM     17  C   UNL     1       0.134  10.460  21.225  0.00  0.00    +0.000 A 
ATOM     18  N   UNL     1       0.568   9.834  22.302  0.00  0.00    +0.000 NA
ATOM     19  C   UNL     1       1.292   8.761  21.869  0.00  0.00    +0.000 A 
ATOM     20  C   UNL     1       1.328   8.701  20.493  0.00  0.00    +0.000 A 
ATOM     21  N   UNL     1       0.585   9.801  20.093  0.00  0.00    +0.000 N 
ATOM     22  C   UNL     1       0.411  10.233  18.727  0.00  0.00    +0.000 C 
ENDBRANCH  13  20
ENDBRANCH   1  13
TORSDOF 4
ENDMDL
