MODEL 1
REMARK VINA RESULT:      -6.6      0.000      0.000
REMARK  Name = 
REMARK  8 active torsions:
REMARK  status: ('A' for Active; 'I' for Inactive)
REMARK    1  A    between atoms: C_1  and  O_2
REMARK    2  A    between atoms: O_2  and  C_3
REMARK    3  A    between atoms: C_6  and  C_7
REMARK    4  A    between atoms: C_7  and  N_8
REMARK    5  A    between atoms: C_9  and  C_11
REMARK    6  A    between atoms: N_15  and  C_16
REMARK    7  A    between atoms: C_18  and  O_19
REMARK    8  A    between atoms: O_19  and  C_20
REMARK                            x       y       z     vdW  Elec       q    Type
REMARK                         _______ _______ _______ _____ _____    ______ ____
ROOT
ATOM      1  C   UNL     1       4.829   6.670  16.689  0.00  0.00    +0.000 C 
ENDROOT
BRANCH   1   5
ATOM      2  C   UNL     1       2.774   4.552  19.841  0.00  0.00    +0.000 A 
ATOM      3  C   UNL     1       2.565   5.929  19.647  0.00  0.00    +0.000 A 
ATOM      4  C   UNL     1       3.245   6.630  18.651  0.00  0.00    +0.000 A 
ATOM      5  C   UNL     1       4.189   5.979  17.860  0.00  0.00    +0.000 A 
ATOM      6  C   UNL     1       4.501   4.644  18.154  0.00  0.00    +0.000 A 
ATOM      7  C   UNL     1       3.801   3.916  19.131  0.00  0.00    +0.000 A 
BRANCH   2   9
ATOM      8  C   UNL     1       0.775   3.331  20.138  0.00  0.00    +0.000 C 
ATOM      9  O   UNL     1       1.985   3.843  20.708  0.00  0.00    +0.000 OA
ENDBRANCH   2   9
BRANCH   7  10
ATOM     10  O   UNL     1       4.247   2.624  19.204  0.00  0.00    +0.000 OA
ATOM     11  C   UNL     1       3.581   1.606  18.477  0.00  0.00    +0.000 C 
ENDBRANCH   7  10
ENDBRANCH   1   5
BRANCH   1  12
ATOM     12  N   UNL     1       5.286   5.760  15.675  0.00  0.00    +0.000 N 
ATOM     13  C   UNL     1       6.631   5.575  15.455  0.00  0.00    +0.000 C 
ATOM     14  O   UNL     1       7.504   6.103  16.148  0.00  0.00    +0.000 OA
ATOM     15  H   UNL     1       4.671   5.467  14.923  0.00  0.00    +0.000 HD
BRANCH  13  16
ATOM     16  C   UNL     1       6.976   4.574  14.346  0.00  0.00    +0.000 C 
ATOM     17  C   UNL     1       5.755   3.724  14.005  0.00  0.00    +0.000 C 
ATOM     18  C   UNL     1       5.876   3.420  12.517  0.00  0.00    +0.000 C 
ATOM     19  C   UNL     1       7.117   4.167  12.055  0.00  0.00    +0.000 C 
ATOM     20  N   UNL     1       7.289   5.232  13.050  0.00  0.00    +0.000 NA
ATOM     21  C   UNL     1       8.643   5.775  13.006  0.00  0.00    +0.000 C 
ENDBRANCH  13  16
ENDBRANCH   1  12
TORSDOF 5
ENDMDL
MODEL 2
REMARK VINA RESULT:      -6.6      2.542      6.916
REMARK  Name = 
REMARK  8 active torsions:
REMARK  status: ('A' for Active; 'I' for Inactive)
REMARK    1  A    between atoms: C_1  and  O_2
REMARK    2  A    between atoms: O_2  and  C_3
REMARK    3  A    between atoms: C_6  and  C_7
REMARK    4  A    between atoms: C_7  and  N_8
REMARK    5  A    between atoms: C_9  and  C_11
REMARK    6  A    between atoms: N_15  and  C_16
REMARK    7  A    between atoms: C_18  and  O_19
REMARK    8  A    between atoms: O_19  and  C_20
REMARK                            x       y       z     vdW  Elec       q    Type
REMARK                         _______ _______ _______ _____ _____    ______ ____
ROOT
ATOM      1  C   UNL     1       3.722   3.520  16.628  0.00  0.00    +0.000 C 
ENDROOT
BRANCH   1   5
ATOM      2  C   UNL     1       6.839   6.506  16.533  0.00  0.00    +0.000 A 
ATOM      3  C   UNL     1       5.734   6.651  17.390  0.00  0.00    +0.000 A 
ATOM      4  C   UNL     1       4.707   5.707  17.409  0.00  0.00    +0.000 A 
ATOM      5  C   UNL     1       4.737   4.625  16.531  0.00  0.00    +0.000 A 
ATOM      6  C   UNL     1       5.763   4.565  15.579  0.00  0.00    +0.000 A 
ATOM      7  C   UNL     1       6.822   5.489  15.570  0.00  0.00    +0.000 A 
BRANCH   2   9
ATOM      8  C   UNL     1       7.838   8.294  17.708  0.00  0.00    +0.000 C 
ATOM      9  O   UNL     1       7.917   7.346  16.638  0.00  0.00    +0.000 OA
ENDBRANCH   2   9
BRANCH   7  10
ATOM     10  O   UNL     1       7.728   5.199  14.585  0.00  0.00    +0.000 OA
ATOM     11  C   UNL     1       7.282   4.653  13.356  0.00  0.00    +0.000 C 
ENDBRANCH   7  10
ENDBRANCH   1   5
BRANCH   1  12
ATOM     12  N   UNL     1       3.142   3.398  17.937  0.00  0.00    +0.000 N 
ATOM     13  C   UNL     1       1.847   3.796  18.168  0.00  0.00    +0.000 C 
ATOM     14  O   UNL     1       1.097   4.198  17.275  0.00  0.00    +0.000 OA
ATOM     15  H   UNL     1       3.729   3.302  18.760  0.00  0.00    +0.000 HD
BRANCH  13  16
ATOM     16  C   UNL     1       1.355   3.606  19.609  0.00  0.00    +0.000 C 
ATOM     17  C   UNL     1       1.550   2.156  20.044  0.00  0.00    +0.000 C 
ATOM     18  C   UNL     1       1.843   2.217  21.538  0.00  0.00    +0.000 C 
ATOM     19  C   UNL     1       1.876   3.698  21.879  0.00  0.00    +0.000 C 
ATOM     20  N   UNL     1       2.169   4.357  20.601  0.00  0.00    +0.000 NA
ATOM     21  C   UNL     1       1.827   5.775  20.653  0.00  0.00    +0.000 C 
ENDBRANCH  13  16
ENDBRANCH   1  12
TORSDOF 5
ENDMDL
MODEL 3
REMARK VINA RESULT:      -6.4      3.473      5.274
REMARK  Name = 
REMARK  8 active torsions:
REMARK  status: ('A' for Active; 'I' for Inactive)
REMARK    1  A    between atoms: C_1  and  O_2
REMARK    2  A    between atoms: O_2  and  C_3
REMARK    3  A    between atoms: C_6  and  C_7
REMARK    4  A    between atoms: C_7  and  N_8
REMARK    5  A    between atoms: C_9  and  C_11
REMARK    6  A    between atoms: N_15  and  C_16
REMARK    7  A    between atoms: C_18  and  O_19
REMARK    8  A    between atoms: O_19  and  C_20
REMARK                            x       y       z     vdW  Elec       q    Type
REMARK                         _______ _______ _______ _____ _____    ______ ____
ROOT
ATOM      1  C   UNL     1       2.882   6.087  19.611  0.00  0.00    +0.000 C 
ENDROOT
BRANCH   1   5
ATOM      2  C   UNL     1       0.850   9.814  18.826  0.00  0.00    +0.000 A 
ATOM      3  C   UNL     1       1.616   9.190  17.825  0.00  0.00    +0.000 A 
ATOM      4  C   UNL     1       2.300   8.000  18.076  0.00  0.00    +0.000 A 
ATOM      5  C   UNL     1       2.277   7.437  19.350  0.00  0.00    +0.000 A 
ATOM      6  C   UNL     1       1.636   8.140  20.379  0.00  0.00    +0.000 A 
ATOM      7  C   UNL     1       0.915   9.320  20.135  0.00  0.00    +0.000 A 
BRANCH   2   9
ATOM      8  C   UNL     1      -1.290  10.554  18.158  0.00  0.00    +0.000 C 
ATOM      9  O   UNL     1       0.053  10.888  18.526  0.00  0.00    +0.000 OA
ENDBRANCH   2   9
BRANCH   7  10
ATOM     10  O   UNL     1       0.335   9.796  21.281  0.00  0.00    +0.000 OA
ATOM     11  C   UNL     1       0.693   9.243  22.534  0.00  0.00    +0.000 C 
ENDBRANCH   7  10
ENDBRANCH   1   5
BRANCH   1  12
ATOM     12  N   UNL     1       3.847   5.697  18.620  0.00  0.00    +0.000 N 
ATOM     13  C   UNL     1       4.512   4.498  18.724  0.00  0.00    +0.000 C 
ATOM     14  O   UNL     1       4.272   3.670  19.605  0.00  0.00    +0.000 OA
ATOM     15  H   UNL     1       4.271   6.387  18.007  0.00  0.00    +0.000 HD
BRANCH  13  16
ATOM     16  C   UNL     1       5.510   4.209  17.595  0.00  0.00    +0.000 C 
ATOM     17  C   UNL     1       4.778   4.098  16.261  0.00  0.00    +0.000 C 
ATOM     18  C   UNL     1       5.754   4.630  15.218  0.00  0.00    +0.000 C 
ATOM     19  C   UNL     1       6.971   5.089  16.006  0.00  0.00    +0.000 C 
ATOM     20  N   UNL     1       6.455   5.332  17.358  0.00  0.00    +0.000 NA
ATOM     21  C   UNL     1       7.541   5.371  18.332  0.00  0.00    +0.000 C 
ENDBRANCH  13  16
ENDBRANCH   1  12
TORSDOF 5
ENDMDL
MODEL 4
REMARK VINA RESULT:      -6.3      4.192      7.760
REMARK  Name = 
REMARK  8 active torsions:
REMARK  status: ('A' for Active; 'I' for Inactive)
REMARK    1  A    between atoms: C_1  and  O_2
REMARK    2  A    between atoms: O_2  and  C_3
REMARK    3  A    between atoms: C_6  and  C_7
REMARK    4  A    between atoms: C_7  and  N_8
REMARK    5  A    between atoms: C_9  and  C_11
REMARK    6  A    between atoms: N_15  and  C_16
REMARK    7  A    between atoms: C_18  and  O_19
REMARK    8  A    between atoms: O_19  and  C_20
REMARK                            x       y       z     vdW  Elec       q    Type
REMARK                         _______ _______ _______ _____ _____    ______ ____
ROOT
ATOM      1  C   UNL     1       2.518   7.942  18.624  0.00  0.00    +0.000 C 
ENDROOT
BRANCH   1   5
ATOM      2  C   UNL     1       3.659   3.799  19.040  0.00  0.00    +0.000 A 
ATOM      3  C   UNL     1       3.912   4.496  17.845  0.00  0.00    +0.000 A 
ATOM      4  C   UNL     1       3.522   5.826  17.689  0.00  0.00    +0.000 A 
ATOM      5  C   UNL     1       2.823   6.473  18.706  0.00  0.00    +0.000 A 
ATOM      6  C   UNL     1       2.445   5.731  19.833  0.00  0.00    +0.000 A 
ATOM      7  C   UNL     1       2.859   4.401  20.020  0.00  0.00    +0.000 A 
BRANCH   2   9
ATOM      8  C   UNL     1       3.546   1.499  18.515  0.00  0.00    +0.000 C 
ATOM      9  O   UNL     1       4.189   2.552  19.244  0.00  0.00    +0.000 OA
ENDBRANCH   2   9
BRANCH   7  10
ATOM     10  O   UNL     1       2.411   3.902  21.214  0.00  0.00    +0.000 OA
ATOM     11  C   UNL     1       1.343   2.973  21.234  0.00  0.00    +0.000 C 
ENDBRANCH   7  10
ENDBRANCH   1   5
BRANCH   1  12
ATOM     12  N   UNL     1       1.561   8.378  19.604  0.00  0.00    +0.000 N 
ATOM     13  C   UNL     1       0.937   9.596  19.479  0.00  0.00    +0.000 C 
ATOM     14  O   UNL     1       1.096  10.336  18.505  0.00  0.00    +0.000 OA
ATOM     15  H   UNL     1       1.537   7.961  20.529  0.00  0.00    +0.000 HD
BRANCH  13  16
ATOM     16  C   UNL     1      -0.063   9.932  20.593  0.00  0.00    +0.000 C 
ATOM     17  C   UNL     1      -0.288   8.712  21.483  0.00  0.00    +0.000 C 
ATOM     18  C   UNL     1      -0.544   9.269  22.877  0.00  0.00    +0.000 C 
ATOM     19  C   UNL     1      -0.383  10.775  22.743  0.00  0.00    +0.000 C 
ATOM     20  N   UNL     1       0.457  10.943  21.551  0.00  0.00    +0.000 NA
ATOM     21  C   UNL     1       0.367  12.305  21.036  0.00  0.00    +0.000 C 
ENDBRANCH  13  16
ENDBRANCH   1  12
TORSDOF 5
ENDMDL
MODEL 5
REMARK VINA RESULT:      -6.3      4.274      6.844
REMARK  Name = 
REMARK  8 active torsions:
REMARK  status: ('A' for Active; 'I' for Inactive)
REMARK    1  A    between atoms: C_1  and  O_2
REMARK    2  A    between atoms: O_2  and  C_3
REMARK    3  A    between atoms: C_6  and  C_7
REMARK    4  A    between atoms: C_7  and  N_8
REMARK    5  A    between atoms: C_9  and  C_11
REMARK    6  A    between atoms: N_15  and  C_16
REMARK    7  A    between atoms: C_18  and  O_19
REMARK    8  A    between atoms: O_19  and  C_20
REMARK                            x       y       z     vdW  Elec       q    Type
REMARK                         _______ _______ _______ _____ _____    ______ ____
ROOT
ATOM      1  C   UNL     1       2.990   7.282  18.326  0.00  0.00    +0.000 C 
ENDROOT
BRANCH   1   5
ATOM      2  C   UNL     1      -0.046  10.148  19.425  0.00  0.00    +0.000 A 
ATOM      3  C   UNL     1       0.619  10.246  18.190  0.00  0.00    +0.000 A 
ATOM      4  C   UNL     1       1.621   9.343  17.836  0.00  0.00    +0.000 A 
ATOM      5  C   UNL     1       2.019   8.353  18.734  0.00  0.00    +0.000 A 
ATOM      6  C   UNL     1       1.457   8.352  20.018  0.00  0.00    +0.000 A 
ATOM      7  C   UNL     1       0.423   9.233  20.377  0.00  0.00    +0.000 A 
BRANCH   2   9
ATOM      8  C   UNL     1      -1.527  11.805  18.627  0.00  0.00    +0.000 C 
ATOM      9  O   UNL     1      -1.136  10.933  19.695  0.00  0.00    +0.000 OA
ENDBRANCH   2   9
BRANCH   7  10
ATOM     10  O   UNL     1       0.003   9.010  21.661  0.00  0.00    +0.000 OA
ATOM     11  C   UNL     1       0.851   9.336  22.747  0.00  0.00    +0.000 C 
ENDBRANCH   7  10
ENDBRANCH   1   5
BRANCH   1  12
ATOM     12  N   UNL     1       2.672   5.991  18.871  0.00  0.00    +0.000 N 
ATOM     13  C   UNL     1       3.665   5.170  19.350  0.00  0.00    +0.000 C 
ATOM     14  O   UNL     1       4.848   5.512  19.413  0.00  0.00    +0.000 OA
ATOM     15  H   UNL     1       1.789   5.539  18.656  0.00  0.00    +0.000 HD
BRANCH  13  16
ATOM     16  C   UNL     1       3.183   3.824  19.906  0.00  0.00    +0.000 C 
ATOM     17  C   UNL     1       2.236   4.049  21.082  0.00  0.00    +0.000 C 
ATOM     18  C   UNL     1       1.238   2.899  21.024  0.00  0.00    +0.000 C 
ATOM     19  C   UNL     1       1.610   2.108  19.779  0.00  0.00    +0.000 C 
ATOM     20  N   UNL     1       2.336   3.071  18.943  0.00  0.00    +0.000 NA
ATOM     21  C   UNL     1       3.119   2.387  17.919  0.00  0.00    +0.000 C 
ENDBRANCH  13  16
ENDBRANCH   1  12
TORSDOF 5
ENDMDL
MODEL 6
REMARK VINA RESULT:      -6.2      1.085      2.336
REMARK  Name = 
REMARK  8 active torsions:
REMARK  status: ('A' for Active; 'I' for Inactive)
REMARK    1  A    between atoms: C_1  and  O_2
REMARK    2  A    between atoms: O_2  and  C_3
REMARK    3  A    between atoms: C_6  and  C_7
REMARK    4  A    between atoms: C_7  and  N_8
REMARK    5  A    between atoms: C_9  and  C_11
REMARK    6  A    between atoms: N_15  and  C_16
REMARK    7  A    between atoms: C_18  and  O_19
REMARK    8  A    between atoms: O_19  and  C_20
REMARK                            x       y       z     vdW  Elec       q    Type
REMARK                         _______ _______ _______ _____ _____    ______ ____
ROOT
ATOM      1  C   UNL     1       4.795   6.718  16.683  0.00  0.00    +0.000 C 
ENDROOT
BRANCH   1   5
ATOM      2  C   UNL     1       2.829   4.923  20.082  0.00  0.00    +0.000 A 
ATOM      3  C   UNL     1       3.606   4.142  19.209  0.00  0.00    +0.000 A 
ATOM      4  C   UNL     1       4.223   4.706  18.092  0.00  0.00    +0.000 A 
ATOM      5  C   UNL     1       4.031   6.053  17.793  0.00  0.00    +0.000 A 
ATOM      6  C   UNL     1       3.137   6.791  18.582  0.00  0.00    +0.000 A 
ATOM      7  C   UNL     1       2.536   6.247  19.729  0.00  0.00    +0.000 A 
BRANCH   2   9
ATOM      8  C   UNL     1       2.239   2.972  21.275  0.00  0.00    +0.000 C 
ATOM      9  O   UNL     1       2.365   4.399  21.260  0.00  0.00    +0.000 OA
ENDBRANCH   2   9
BRANCH   7  10
ATOM     10  O   UNL     1       1.747   7.169  20.363  0.00  0.00    +0.000 OA
ATOM     11  C   UNL     1       1.612   8.472  19.823  0.00  0.00    +0.000 C 
ENDBRANCH   7  10
ENDBRANCH   1   5
BRANCH   1  12
ATOM     12  N   UNL     1       5.255   5.796  15.681  0.00  0.00    +0.000 N 
ATOM     13  C   UNL     1       6.600   5.583  15.491  0.00  0.00    +0.000 C 
ATOM     14  O   UNL     1       7.469   6.095  16.201  0.00  0.00    +0.000 OA
ATOM     15  H   UNL     1       4.650   5.513  14.917  0.00  0.00    +0.000 HD
BRANCH  13  16
ATOM     16  C   UNL     1       6.948   4.571  14.391  0.00  0.00    +0.000 C 
ATOM     17  C   UNL     1       5.730   3.712  14.061  0.00  0.00    +0.000 C 
ATOM     18  C   UNL     1       5.850   3.394  12.576  0.00  0.00    +0.000 C 
ATOM     19  C   UNL     1       7.087   4.141  12.105  0.00  0.00    +0.000 C 
ATOM     20  N   UNL     1       7.256   5.217  13.088  0.00  0.00    +0.000 NA
ATOM     21  C   UNL     1       8.607   5.766  13.036  0.00  0.00    +0.000 C 
ENDBRANCH  13  16
ENDBRANCH   1  12
TORSDOF 5
ENDMDL
MODEL 7
REMARK VINA RESULT:      -6.2      2.116      6.862
REMARK  Name = 
REMARK  8 active torsions:
REMARK  status: ('A' for Active; 'I' for Inactive)
REMARK    1  A    between atoms: C_1  and  O_2
REMARK    2  A    between atoms: O_2  and  C_3
REMARK    3  A    between atoms: C_6  and  C_7
REMARK    4  A    between atoms: C_7  and  N_8
REMARK    5  A    between atoms: C_9  and  C_11
REMARK    6  A    between atoms: N_15  and  C_16
REMARK    7  A    between atoms: C_18  and  O_19
REMARK    8  A    between atoms: O_19  and  C_20
REMARK                            x       y       z     vdW  Elec       q    Type
REMARK                         _______ _______ _______ _____ _____    ______ ____
ROOT
ATOM      1  C   UNL     1       5.139   6.046  17.492  0.00  0.00    +0.000 C 
ENDROOT
BRANCH   1   5
ATOM      2  C   UNL     1       6.323   4.078  13.836  0.00  0.00    +0.000 A 
ATOM      3  C   UNL     1       5.208   3.627  14.564  0.00  0.00    +0.000 A 
ATOM      4  C   UNL     1       4.833   4.237  15.761  0.00  0.00    +0.000 A 
ATOM      5  C   UNL     1       5.598   5.278  16.284  0.00  0.00    +0.000 A 
ATOM      6  C   UNL     1       6.790   5.623  15.633  0.00  0.00    +0.000 A 
ATOM      7  C   UNL     1       7.162   5.042  14.409  0.00  0.00    +0.000 A 
BRANCH   2   9
ATOM      8  C   UNL     1       5.480   2.923  11.956  0.00  0.00    +0.000 C 
ATOM      9  O   UNL     1       6.585   3.582  12.585  0.00  0.00    +0.000 OA
ENDBRANCH   2   9
BRANCH   7  10
ATOM     10  O   UNL     1       8.334   5.574  13.942  0.00  0.00    +0.000 OA
ATOM     11  C   UNL     1       8.437   5.971  12.586  0.00  0.00    +0.000 C 
ENDBRANCH   7  10
ENDBRANCH   1   5
BRANCH   1  12
ATOM     12  N   UNL     1       4.142   5.352  18.259  0.00  0.00    +0.000 N 
ATOM     13  C   UNL     1       4.507   4.412  19.194  0.00  0.00    +0.000 C 
ATOM     14  O   UNL     1       5.682   4.170  19.481  0.00  0.00    +0.000 OA
ATOM     15  H   UNL     1       3.178   5.311  17.945  0.00  0.00    +0.000 HD
BRANCH  13  16
ATOM     16  C   UNL     1       3.341   3.752  19.942  0.00  0.00    +0.000 C 
ATOM     17  C   UNL     1       2.456   4.818  20.581  0.00  0.00    +0.000 C 
ATOM     18  C   UNL     1       1.044   4.246  20.546  0.00  0.00    +0.000 C 
ATOM     19  C   UNL     1       1.170   2.914  19.824  0.00  0.00    +0.000 C 
ATOM     20  N   UNL     1       2.400   3.045  19.035  0.00  0.00    +0.000 NA
ATOM     21  C   UNL     1       2.894   1.737  18.617  0.00  0.00    +0.000 C 
ENDBRANCH  13  16
ENDBRANCH   1  12
TORSDOF 5
ENDMDL
MODEL 8
REMARK VINA RESULT:      -6.2      4.729      7.986
REMARK  Name = 
REMARK  8 active torsions:
REMARK  status: ('A' for Active; 'I' for Inactive)
REMARK    1  A    between atoms: C_1  and  O_2
REMARK    2  A    between atoms: O_2  and  C_3
REMARK    3  A    between atoms: C_6  and  C_7
REMARK    4  A    between atoms: C_7  and  N_8
REMARK    5  A    between atoms: C_9  and  C_11
REMARK    6  A    between atoms: N_15  and  C_16
REMARK    7  A    between atoms: C_18  and  O_19
REMARK    8  A    between atoms: O_19  and  C_20
REMARK                            x       y       z     vdW  Elec       q    Type
REMARK                         _______ _______ _______ _____ _____    ______ ____
ROOT
ATOM      1  C   UNL     1       2.550   7.629  19.483  0.00  0.00    +0.000 C 
ENDROOT
BRANCH   1   5
ATOM      2  C   UNL     1       2.048   3.420  18.662  0.00  0.00    +0.000 A 
ATOM      3  C   UNL     1       2.459   4.304  17.649  0.00  0.00    +0.000 A 
ATOM      4  C   UNL     1       2.597   5.670  17.895  0.00  0.00    +0.000 A 
ATOM      5  C   UNL     1       2.275   6.190  19.147  0.00  0.00    +0.000 A 
ATOM      6  C   UNL     1       1.725   5.329  20.106  0.00  0.00    +0.000 A 
ATOM      7  C   UNL     1       1.613   3.946  19.885  0.00  0.00    +0.000 A 
BRANCH   2   9
ATOM      8  C   UNL     1       3.384   1.485  18.438  0.00  0.00    +0.000 C 
ATOM      9  O   UNL     1       2.074   2.065  18.457  0.00  0.00    +0.000 OA
ENDBRANCH   2   9
BRANCH   7  10
ATOM     10  O   UNL     1       1.097   3.306  20.980  0.00  0.00    +0.000 OA
ATOM     11  C   UNL     1       1.959   2.607  21.860  0.00  0.00    +0.000 C 
ENDBRANCH   7  10
ENDBRANCH   1   5
BRANCH   1  12
ATOM     12  N   UNL     1       1.529   8.224  20.301  0.00  0.00    +0.000 N 
ATOM     13  C   UNL     1       0.825   9.318  19.855  0.00  0.00    +0.000 C 
ATOM     14  O   UNL     1       0.965   9.793  18.726  0.00  0.00    +0.000 OA
ATOM     15  H   UNL     1       1.502   8.058  21.302  0.00  0.00    +0.000 HD
BRANCH  13  16
ATOM     16  C   UNL     1      -0.236   9.848  20.829  0.00  0.00    +0.000 C 
ATOM     17  C   UNL     1      -0.295   8.967  22.073  0.00  0.00    +0.000 C 
ATOM     18  C   UNL     1      -0.659   9.905  23.217  0.00  0.00    +0.000 C 
ATOM     19  C   UNL     1      -0.720  11.291  22.594  0.00  0.00    +0.000 C 
ATOM     20  N   UNL     1       0.109  11.182  21.388  0.00  0.00    +0.000 NA
ATOM     21  C   UNL     1      -0.173  12.272  20.460  0.00  0.00    +0.000 C 
ENDBRANCH  13  16
ENDBRANCH   1  12
TORSDOF 5
ENDMDL
MODEL 9
REMARK VINA RESULT:      -6.1      4.674      7.437
REMARK  Name = 
REMARK  8 active torsions:
REMARK  status: ('A' for Active; 'I' for Inactive)
REMARK    1  A    between atoms: C_1  and  O_2
REMARK    2  A    between atoms: O_2  and  C_3
REMARK    3  A    between atoms: C_6  and  C_7
REMARK    4  A    between atoms: C_7  and  N_8
REMARK    5  A    between atoms: C_9  and  C_11
REMARK    6  A    between atoms: N_15  and  C_16
REMARK    7  A    between atoms: C_18  and  O_19
REMARK    8  A    between atoms: O_19  and  C_20
REMARK                            x       y       z     vdW  Elec       q    Type
REMARK                         _______ _______ _______ _____ _____    ______ ____
ROOT
ATOM      1  C   UNL     1       2.180   7.766  19.251  0.00  0.00    +0.000 C 
ENDROOT
BRANCH   1   5
ATOM      2  C   UNL     1       0.172  10.549  21.870  0.00  0.00    +0.000 A 
ATOM      3  C   UNL     1       0.463   9.242  22.300  0.00  0.00    +0.000 A 
ATOM      4  C   UNL     1       1.086   8.326  21.453  0.00  0.00    +0.000 A 
ATOM      5  C   UNL     1       1.383   8.680  20.138  0.00  0.00    +0.000 A 
ATOM      6  C   UNL     1       0.957   9.930  19.671  0.00  0.00    +0.000 A 
ATOM      7  C   UNL     1       0.360  10.877  20.521  0.00  0.00    +0.000 A 
BRANCH   2   9
ATOM      8  C   UNL     1      -1.661  11.336  23.135  0.00  0.00    +0.000 C 
ATOM      9  O   UNL     1      -0.288  11.488  22.756  0.00  0.00    +0.000 OA
ENDBRANCH   2   9
BRANCH   7  10
ATOM     10  O   UNL     1       0.078  12.038  19.853  0.00  0.00    +0.000 OA
ATOM     11  C   UNL     1       0.997  12.546  18.902  0.00  0.00    +0.000 C 
ENDBRANCH   7  10
ENDBRANCH   1   5
BRANCH   1  12
ATOM     12  N   UNL     1       2.128   6.390  19.662  0.00  0.00    +0.000 N 
ATOM     13  C   UNL     1       3.160   5.531  19.368  0.00  0.00    +0.000 C 
ATOM     14  O   UNL     1       4.203   5.897  18.819  0.00  0.00    +0.000 OA
ATOM     15  H   UNL     1       1.244   5.952  19.903  0.00  0.00    +0.000 HD
BRANCH  13  16
ATOM     16  C   UNL     1       2.974   4.094  19.869  0.00  0.00    +0.000 C 
ATOM     17  C   UNL     1       2.165   4.088  21.164  0.00  0.00    +0.000 C 
ATOM     18  C   UNL     1       1.362   2.794  21.134  0.00  0.00    +0.000 C 
ATOM     19  C   UNL     1       1.688   2.151  19.796  0.00  0.00    +0.000 C 
ATOM     20  N   UNL     1       2.137   3.268  18.958  0.00  0.00    +0.000 NA
ATOM     21  C   UNL     1       2.877   2.786  17.796  0.00  0.00    +0.000 C 
ENDBRANCH  13  16
ENDBRANCH   1  12
TORSDOF 5
ENDMDL
