MODEL 1
REMARK VINA RESULT:      -7.1      0.000      0.000
REMARK  Name = 
REMARK  2 active torsions:
REMARK  status: ('A' for Active; 'I' for Inactive)
REMARK    1  A    between atoms: C_2  and  C_5
REMARK    2  A    between atoms: C_9  and  N_10
REMARK                            x       y       z     vdW  Elec       q    Type
REMARK                         _______ _______ _______ _____ _____    ______ ____
ROOT
ATOM      1  C   UNL     1       5.100   5.014  15.928  0.00  0.00    +0.000 A 
ATOM      2  C   UNL     1       5.121   6.405  16.107  0.00  0.00    +0.000 A 
ATOM      3  C   UNL     1       4.408   6.991  17.149  0.00  0.00    +0.000 A 
ATOM      4  C   UNL     1       3.667   6.206  18.027  0.00  0.00    +0.000 A 
ATOM      5  C   UNL     1       3.633   4.801  17.896  0.00  0.00    +0.000 A 
ATOM      6  C   UNL     1       4.359   4.218  16.832  0.00  0.00    +0.000 A 
ENDROOT
BRANCH   5   7
ATOM      7  N   UNL     1       2.896   4.004  18.850  0.00  0.00    +0.000 N 
ATOM      8  C   UNL     1       2.659   4.443  20.222  0.00  0.00    +0.000 C 
ATOM      9  C   UNL     1       1.155   4.360  20.513  0.00  0.00    +0.000 C 
ATOM     10  N   UNL     1       0.671   2.993  20.262  0.00  0.00    +0.000 NA
ATOM     11  C   UNL     1       0.883   2.619  18.856  0.00  0.00    +0.000 C 
ATOM     12  C   UNL     1       2.377   2.679  18.527  0.00  0.00    +0.000 C 
ATOM     13  H   UNL     1      -0.353   2.951  20.473  0.00  0.00    +0.000 HD
ENDBRANCH   5   7
BRANCH   1  15
ATOM     14  F   UNL     1       6.935   5.145  14.386  0.00  0.00    +0.000 F 
ATOM     15  C   UNL     1       5.853   4.376  14.781  0.00  0.00    +0.000 C 
ATOM     16  F   UNL     1       5.007   4.226  13.698  0.00  0.00    +0.000 F 
ATOM     17  F   UNL     1       6.328   3.137  15.158  0.00  0.00    +0.000 F 
ENDBRANCH   1  15
TORSDOF 2
ENDMDL
MODEL 2
REMARK VINA RESULT:      -7.1      2.629      3.018
REMARK  Name = 
REMARK  2 active torsions:
REMARK  status: ('A' for Active; 'I' for Inactive)
REMARK    1  A    between atoms: C_2  and  C_5
REMARK    2  A    between atoms: C_9  and  N_10
REMARK                            x       y       z     vdW  Elec       q    Type
REMARK                         _______ _______ _______ _____ _____    ______ ____
ROOT
ATOM      1  C   UNL     1       6.193   5.651  18.479  0.00  0.00    +0.000 A 
ATOM      2  C   UNL     1       5.713   6.570  17.536  0.00  0.00    +0.000 A 
ATOM      3  C   UNL     1       4.373   6.558  17.159  0.00  0.00    +0.000 A 
ATOM      4  C   UNL     1       3.493   5.634  17.716  0.00  0.00    +0.000 A 
ATOM      5  C   UNL     1       3.928   4.703  18.684  0.00  0.00    +0.000 A 
ATOM      6  C   UNL     1       5.293   4.726  19.055  0.00  0.00    +0.000 A 
ENDROOT
BRANCH   5   7
ATOM      7  N   UNL     1       2.985   3.789  19.282  0.00  0.00    +0.000 N 
ATOM      8  C   UNL     1       3.389   2.753  20.229  0.00  0.00    +0.000 C 
ATOM      9  C   UNL     1       2.530   2.880  21.495  0.00  0.00    +0.000 C 
ATOM     10  N   UNL     1       1.104   2.802  21.142  0.00  0.00    +0.000 NA
ATOM     11  C   UNL     1       0.735   3.896  20.231  0.00  0.00    +0.000 C 
ATOM     12  C   UNL     1       1.564   3.799  18.948  0.00  0.00    +0.000 C 
ATOM     13  H   UNL     1       0.533   2.882  22.015  0.00  0.00    +0.000 HD
ENDBRANCH   5   7
BRANCH   1  15
ATOM     14  F   UNL     1       7.819   5.528  20.242  0.00  0.00    +0.000 F 
ATOM     15  C   UNL     1       7.655   5.646  18.872  0.00  0.00    +0.000 C 
ATOM     16  F   UNL     1       8.247   6.827  18.464  0.00  0.00    +0.000 F 
ATOM     17  F   UNL     1       8.303   4.586  18.274  0.00  0.00    +0.000 F 
ENDBRANCH   1  15
TORSDOF 2
ENDMDL
MODEL 3
REMARK VINA RESULT:      -7.0      4.060      5.990
REMARK  Name = 
REMARK  2 active torsions:
REMARK  status: ('A' for Active; 'I' for Inactive)
REMARK    1  A    between atoms: C_2  and  C_5
REMARK    2  A    between atoms: C_9  and  N_10
REMARK                            x       y       z     vdW  Elec       q    Type
REMARK                         _______ _______ _______ _____ _____    ______ ____
ROOT
ATOM      1  C   UNL     1       2.374   3.492  20.072  0.00  0.00    +0.000 A 
ATOM      2  C   UNL     1       1.250   3.400  19.239  0.00  0.00    +0.000 A 
ATOM      3  C   UNL     1       1.324   3.802  17.909  0.00  0.00    +0.000 A 
ATOM      4  C   UNL     1       2.515   4.299  17.388  0.00  0.00    +0.000 A 
ATOM      5  C   UNL     1       3.677   4.392  18.184  0.00  0.00    +0.000 A 
ATOM      6  C   UNL     1       3.587   3.982  19.535  0.00  0.00    +0.000 A 
ENDROOT
BRANCH   5   7
ATOM      7  N   UNL     1       4.913   4.865  17.606  0.00  0.00    +0.000 N 
ATOM      8  C   UNL     1       6.006   5.393  18.418  0.00  0.00    +0.000 C 
ATOM      9  C   UNL     1       7.296   4.646  18.053  0.00  0.00    +0.000 C 
ATOM     10  N   UNL     1       7.552   4.763  16.609  0.00  0.00    +0.000 NA
ATOM     11  C   UNL     1       6.449   4.168  15.839  0.00  0.00    +0.000 C 
ATOM     12  C   UNL     1       5.143   4.895  16.165  0.00  0.00    +0.000 C 
ATOM     13  H   UNL     1       8.438   4.256  16.379  0.00  0.00    +0.000 HD
ENDBRANCH   5   7
BRANCH   1  15
ATOM     14  F   UNL     1       3.259   2.144  21.852  0.00  0.00    +0.000 F 
ATOM     15  C   UNL     1       2.290   3.079  21.526  0.00  0.00    +0.000 C 
ATOM     16  F   UNL     1       1.049   2.524  21.777  0.00  0.00    +0.000 F 
ATOM     17  F   UNL     1       2.468   4.176  22.341  0.00  0.00    +0.000 F 
ENDBRANCH   1  15
TORSDOF 2
ENDMDL
MODEL 4
REMARK VINA RESULT:      -7.0      2.559      2.873
REMARK  Name = 
REMARK  2 active torsions:
REMARK  status: ('A' for Active; 'I' for Inactive)
REMARK    1  A    between atoms: C_2  and  C_5
REMARK    2  A    between atoms: C_9  and  N_10
REMARK                            x       y       z     vdW  Elec       q    Type
REMARK                         _______ _______ _______ _____ _____    ______ ____
ROOT
ATOM      1  C   UNL     1       6.282   5.713  18.475  0.00  0.00    +0.000 A 
ATOM      2  C   UNL     1       5.838   6.547  17.439  0.00  0.00    +0.000 A 
ATOM      3  C   UNL     1       4.508   6.513  17.029  0.00  0.00    +0.000 A 
ATOM      4  C   UNL     1       3.602   5.653  17.642  0.00  0.00    +0.000 A 
ATOM      5  C   UNL     1       4.000   4.810  18.703  0.00  0.00    +0.000 A 
ATOM      6  C   UNL     1       5.355   4.853  19.108  0.00  0.00    +0.000 A 
ENDROOT
BRANCH   5   7
ATOM      7  N   UNL     1       3.030   3.963  19.356  0.00  0.00    +0.000 N 
ATOM      8  C   UNL     1       2.432   4.305  20.644  0.00  0.00    +0.000 C 
ATOM      9  C   UNL     1       0.904   4.238  20.511  0.00  0.00    +0.000 C 
ATOM     10  N   UNL     1       0.501   2.906  20.031  0.00  0.00    +0.000 NA
ATOM     11  C   UNL     1       1.085   2.633  18.710  0.00  0.00    +0.000 C 
ATOM     12  C   UNL     1       2.612   2.680  18.802  0.00  0.00    +0.000 C 
ATOM     13  H   UNL     1      -0.542   2.874  19.954  0.00  0.00    +0.000 HD
ENDBRANCH   5   7
BRANCH   1  15
ATOM     14  F   UNL     1       8.362   6.909  18.548  0.00  0.00    +0.000 F 
ATOM     15  C   UNL     1       7.732   5.730  18.907  0.00  0.00    +0.000 C 
ATOM     16  F   UNL     1       8.404   4.678  18.311  0.00  0.00    +0.000 F 
ATOM     17  F   UNL     1       7.820   5.602  20.277  0.00  0.00    +0.000 F 
ENDBRANCH   1  15
TORSDOF 2
ENDMDL
MODEL 5
REMARK VINA RESULT:      -7.0      3.980      6.066
REMARK  Name = 
REMARK  2 active torsions:
REMARK  status: ('A' for Active; 'I' for Inactive)
REMARK    1  A    between atoms: C_2  and  C_5
REMARK    2  A    between atoms: C_9  and  N_10
REMARK                            x       y       z     vdW  Elec       q    Type
REMARK                         _______ _______ _______ _____ _____    ______ ____
ROOT
ATOM      1  C   UNL     1       2.487   3.648  19.635  0.00  0.00    +0.000 A 
ATOM      2  C   UNL     1       2.451   2.290  19.285  0.00  0.00    +0.000 A 
ATOM      3  C   UNL     1       3.211   1.818  18.219  0.00  0.00    +0.000 A 
ATOM      4  C   UNL     1       4.018   2.685  17.489  0.00  0.00    +0.000 A 
ATOM      5  C   UNL     1       4.100   4.055  17.818  0.00  0.00    +0.000 A 
ATOM      6  C   UNL     1       3.320   4.523  18.901  0.00  0.00    +0.000 A 
ENDROOT
BRANCH   5   7
ATOM      7  N   UNL     1       4.983   4.925  17.076  0.00  0.00    +0.000 N 
ATOM      8  C   UNL     1       5.524   6.159  17.640  0.00  0.00    +0.000 C 
ATOM      9  C   UNL     1       7.050   6.145  17.482  0.00  0.00    +0.000 C 
ATOM     10  N   UNL     1       7.406   5.962  16.066  0.00  0.00    +0.000 NA
ATOM     11  C   UNL     1       6.885   4.683  15.562  0.00  0.00    +0.000 C 
ATOM     12  C   UNL     1       5.360   4.661  15.691  0.00  0.00    +0.000 C 
ATOM     13  H   UNL     1       8.448   5.963  15.974  0.00  0.00    +0.000 HD
ENDBRANCH   5   7
BRANCH   1  15
ATOM     14  F   UNL     1       2.036   5.437  21.172  0.00  0.00    +0.000 F 
ATOM     15  C   UNL     1       1.642   4.169  20.778  0.00  0.00    +0.000 C 
ATOM     16  F   UNL     1       1.758   3.321  21.864  0.00  0.00    +0.000 F 
ATOM     17  F   UNL     1       0.319   4.236  20.396  0.00  0.00    +0.000 F 
ENDBRANCH   1  15
TORSDOF 2
ENDMDL
MODEL 6
REMARK VINA RESULT:      -7.0      2.391      2.887
REMARK  Name = 
REMARK  2 active torsions:
REMARK  status: ('A' for Active; 'I' for Inactive)
REMARK    1  A    between atoms: C_2  and  C_5
REMARK    2  A    between atoms: C_9  and  N_10
REMARK                            x       y       z     vdW  Elec       q    Type
REMARK                         _______ _______ _______ _____ _____    ______ ____
ROOT
ATOM      1  C   UNL     1       6.311   4.819  18.003  0.00  0.00    +0.000 A 
ATOM      2  C   UNL     1       6.113   4.759  16.616  0.00  0.00    +0.000 A 
ATOM      3  C   UNL     1       4.937   4.225  16.096  0.00  0.00    +0.000 A 
ATOM      4  C   UNL     1       3.943   3.747  16.945  0.00  0.00    +0.000 A 
ATOM      5  C   UNL     1       4.092   3.806  18.347  0.00  0.00    +0.000 A 
ATOM      6  C   UNL     1       5.293   4.348  18.862  0.00  0.00    +0.000 A 
ENDROOT
BRANCH   5   7
ATOM      7  N   UNL     1       3.025   3.349  19.207  0.00  0.00    +0.000 N 
ATOM      8  C   UNL     1       2.679   4.025  20.454  0.00  0.00    +0.000 C 
ATOM      9  C   UNL     1       1.176   4.337  20.444  0.00  0.00    +0.000 C 
ATOM     10  N   UNL     1       0.408   3.100  20.236  0.00  0.00    +0.000 NA
ATOM     11  C   UNL     1       0.754   2.487  18.945  0.00  0.00    +0.000 C 
ATOM     12  C   UNL     1       2.246   2.149  18.918  0.00  0.00    +0.000 C 
ATOM     13  H   UNL     1      -0.613   3.328  20.241  0.00  0.00    +0.000 HD
ENDBRANCH   5   7
BRANCH   1  15
ATOM     14  F   UNL     1       7.963   6.561  17.956  0.00  0.00    +0.000 F 
ATOM     15  C   UNL     1       7.599   5.375  18.571  0.00  0.00    +0.000 C 
ATOM     16  F   UNL     1       8.619   4.460  18.387  0.00  0.00    +0.000 F 
ATOM     17  F   UNL     1       7.453   5.624  19.920  0.00  0.00    +0.000 F 
ENDBRANCH   1  15
TORSDOF 2
ENDMDL
MODEL 7
REMARK VINA RESULT:      -7.0      4.089      6.102
REMARK  Name = 
REMARK  2 active torsions:
REMARK  status: ('A' for Active; 'I' for Inactive)
REMARK    1  A    between atoms: C_2  and  C_5
REMARK    2  A    between atoms: C_9  and  N_10
REMARK                            x       y       z     vdW  Elec       q    Type
REMARK                         _______ _______ _______ _____ _____    ______ ____
ROOT
ATOM      1  C   UNL     1       2.453   3.557  19.979  0.00  0.00    +0.000 A 
ATOM      2  C   UNL     1       1.349   3.701  19.126  0.00  0.00    +0.000 A 
ATOM      3  C   UNL     1       1.527   4.108  17.807  0.00  0.00    +0.000 A 
ATOM      4  C   UNL     1       2.802   4.375  17.318  0.00  0.00    +0.000 A 
ATOM      5  C   UNL     1       3.943   4.225  18.135  0.00  0.00    +0.000 A 
ATOM      6  C   UNL     1       3.748   3.813  19.474  0.00  0.00    +0.000 A 
ENDROOT
BRANCH   5   7
ATOM      7  N   UNL     1       5.259   4.461  17.589  0.00  0.00    +0.000 N 
ATOM      8  C   UNL     1       5.639   4.034  16.244  0.00  0.00    +0.000 C 
ATOM      9  C   UNL     1       6.212   5.241  15.489  0.00  0.00    +0.000 C 
ATOM     10  N   UNL     1       7.338   5.815  16.242  0.00  0.00    +0.000 NA
ATOM     11  C   UNL     1       6.893   6.277  17.565  0.00  0.00    +0.000 C 
ATOM     12  C   UNL     1       6.323   5.098  18.358  0.00  0.00    +0.000 C 
ATOM     13  H   UNL     1       7.723   6.630  15.710  0.00  0.00    +0.000 HD
ENDBRANCH   5   7
BRANCH   1  15
ATOM     14  F   UNL     1       2.414   4.205  22.291  0.00  0.00    +0.000 F 
ATOM     15  C   UNL     1       2.260   3.138  21.421  0.00  0.00    +0.000 C 
ATOM     16  F   UNL     1       3.192   2.171  21.750  0.00  0.00    +0.000 F 
ATOM     17  F   UNL     1       0.993   2.624  21.599  0.00  0.00    +0.000 F 
ENDBRANCH   1  15
TORSDOF 2
ENDMDL
MODEL 8
REMARK VINA RESULT:      -7.0      3.499      5.578
REMARK  Name = 
REMARK  2 active torsions:
REMARK  status: ('A' for Active; 'I' for Inactive)
REMARK    1  A    between atoms: C_2  and  C_5
REMARK    2  A    between atoms: C_9  and  N_10
REMARK                            x       y       z     vdW  Elec       q    Type
REMARK                         _______ _______ _______ _____ _____    ______ ____
ROOT
ATOM      1  C   UNL     1       2.123   3.757  19.277  0.00  0.00    +0.000 A 
ATOM      2  C   UNL     1       1.669   4.816  20.076  0.00  0.00    +0.000 A 
ATOM      3  C   UNL     1       2.230   6.084  19.950  0.00  0.00    +0.000 A 
ATOM      4  C   UNL     1       3.247   6.317  19.028  0.00  0.00    +0.000 A 
ATOM      5  C   UNL     1       3.721   5.285  18.190  0.00  0.00    +0.000 A 
ATOM      6  C   UNL     1       3.145   4.002  18.331  0.00  0.00    +0.000 A 
ENDROOT
BRANCH   5   7
ATOM      7  N   UNL     1       4.743   5.564  17.208  0.00  0.00    +0.000 N 
ATOM      8  C   UNL     1       5.403   6.863  17.111  0.00  0.00    +0.000 C 
ATOM      9  C   UNL     1       6.922   6.648  17.151  0.00  0.00    +0.000 C 
ATOM     10  N   UNL     1       7.326   5.723  16.080  0.00  0.00    +0.000 NA
ATOM     11  C   UNL     1       6.676   4.415  16.254  0.00  0.00    +0.000 C 
ATOM     12  C   UNL     1       5.156   4.585  16.208  0.00  0.00    +0.000 C 
ATOM     13  H   UNL     1       8.363   5.594  16.116  0.00  0.00    +0.000 HD
ENDBRANCH   5   7
BRANCH   1  15
ATOM     14  F   UNL     1       0.302   2.266  18.805  0.00  0.00    +0.000 F 
ATOM     15  C   UNL     1       1.533   2.372  19.430  0.00  0.00    +0.000 C 
ATOM     16  F   UNL     1       1.365   2.086  20.772  0.00  0.00    +0.000 F 
ATOM     17  F   UNL     1       2.375   1.434  18.870  0.00  0.00    +0.000 F 
ENDBRANCH   1  15
TORSDOF 2
ENDMDL
MODEL 9
REMARK VINA RESULT:      -7.0      2.479      3.187
REMARK  Name = 
REMARK  2 active torsions:
REMARK  status: ('A' for Active; 'I' for Inactive)
REMARK    1  A    between atoms: C_2  and  C_5
REMARK    2  A    between atoms: C_9  and  N_10
REMARK                            x       y       z     vdW  Elec       q    Type
REMARK                         _______ _______ _______ _____ _____    ______ ____
ROOT
ATOM      1  C   UNL     1       6.310   4.964  18.070  0.00  0.00    +0.000 A 
ATOM      2  C   UNL     1       6.271   4.592  16.719  0.00  0.00    +0.000 A 
ATOM      3  C   UNL     1       5.093   4.107  16.157  0.00  0.00    +0.000 A 
ATOM      4  C   UNL     1       3.940   3.989  16.927  0.00  0.00    +0.000 A 
ATOM      5  C   UNL     1       3.929   4.370  18.285  0.00  0.00    +0.000 A 
ATOM      6  C   UNL     1       5.133   4.858  18.845  0.00  0.00    +0.000 A 
ENDROOT
BRANCH   5   7
ATOM      7  N   UNL     1       2.706   4.284  19.050  0.00  0.00    +0.000 N 
ATOM      8  C   UNL     1       1.446   3.834  18.466  0.00  0.00    +0.000 C 
ATOM      9  C   UNL     1       0.880   2.700  19.332  0.00  0.00    +0.000 C 
ATOM     10  N   UNL     1       0.730   3.158  20.722  0.00  0.00    +0.000 NA
ATOM     11  C   UNL     1       2.034   3.549  21.281  0.00  0.00    +0.000 C 
ATOM     12  C   UNL     1       2.629   4.688  20.450  0.00  0.00    +0.000 C 
ATOM     13  H   UNL     1       0.336   2.378  21.296  0.00  0.00    +0.000 HD
ENDBRANCH   5   7
BRANCH   1  15
ATOM     14  F   UNL     1       7.464   5.668  20.055  0.00  0.00    +0.000 F 
ATOM     15  C   UNL     1       7.596   5.467  18.691  0.00  0.00    +0.000 C 
ATOM     16  F   UNL     1       7.951   6.670  18.107  0.00  0.00    +0.000 F 
ATOM     17  F   UNL     1       8.608   4.552  18.493  0.00  0.00    +0.000 F 
ENDBRANCH   1  15
TORSDOF 2
ENDMDL
