MODEL 1
REMARK VINA RESULT:      -8.5      0.000      0.000
REMARK  Name = 
REMARK  8 active torsions:
REMARK  status: ('A' for Active; 'I' for Inactive)
REMARK    1  A    between atoms: C_1  and  N_2
REMARK    2  A    between atoms: N_2  and  C_3
REMARK    3  A    between atoms: N_2  and  C_4
REMARK    4  A    between atoms: C_7  and  C_8
REMARK    5  A    between atoms: C_9  and  C_10
REMARK    6  A    between atoms: C_9  and  C_12
REMARK    7  A    between atoms: N_22  and  C_23
REMARK    8  A    between atoms: C_23  and  C_24
REMARK                            x       y       z     vdW  Elec       q    Type
REMARK                         _______ _______ _______ _____ _____    ______ ____
ROOT
ATOM      1  C   UNL     1       1.326   9.266  18.555  0.00  0.00    +0.000 C 
ATOM      2  O   UNL     1       1.796   9.613  17.474  0.00  0.00    +0.000 OA
ATOM      3  N   UNL     1       1.755   8.175  19.290  0.00  0.00    +0.000 N 
ATOM      4  C   UNL     1       2.808   7.391  18.868  0.00  0.00    +0.000 A 
ATOM      5  N   UNL     1       3.700   7.622  17.934  0.00  0.00    +0.000 NA
ATOM      6  C   UNL     1       4.547   6.532  17.820  0.00  0.00    +0.000 A 
ATOM      7  C   UNL     1       4.246   5.475  18.656  0.00  0.00    +0.000 A 
ATOM      8  S   UNL     1       2.953   5.886  19.687  0.00  0.00    +0.000 S 
ATOM      9  C   UNL     1       4.950   4.159  18.607  0.00  0.00    +0.000 C 
ATOM     10  C   UNL     1       6.255   4.310  17.785  0.00  0.00    +0.000 C 
ATOM     11  N   UNL     1       6.134   5.109  16.538  0.00  0.00    +0.000 NA
ATOM     12  C   UNL     1       5.709   6.504  16.861  0.00  0.00    +0.000 C 
ATOM     13  H   UNL     1       1.276   7.850  20.118  0.00  0.00    +0.000 HD
ENDROOT
BRANCH   1  15
ATOM     14  C   UNL     1       0.342  10.654  20.326  0.00  0.00    +0.000 C 
ATOM     15  C   UNL     1       0.161  10.052  19.130  0.00  0.00    +0.000 C 
BRANCH  14  19
ATOM     16  C   UNL     1      -2.826  12.628  22.537  0.00  0.00    +0.000 A 
ATOM     17  C   UNL     1      -2.010  11.642  23.114  0.00  0.00    +0.000 A 
ATOM     18  C   UNL     1      -0.976  11.018  22.398  0.00  0.00    +0.000 A 
ATOM     19  C   UNL     1      -0.696  11.386  21.082  0.00  0.00    +0.000 A 
ATOM     20  C   UNL     1      -1.417  12.437  20.522  0.00  0.00    +0.000 A 
ATOM     21  C   UNL     1      -2.464  13.043  21.243  0.00  0.00    +0.000 A 
BRANCH  16  23
ATOM     22  C   UNL     1      -4.323  12.648  24.504  0.00  0.00    +0.000 C 
ATOM     23  N   UNL     1      -3.932  13.187  23.201  0.00  0.00    +0.000 N 
ATOM     24  C   UNL     1      -5.048  13.595  22.340  0.00  0.00    +0.000 C 
ENDBRANCH  16  23
ENDBRANCH  14  19
BRANCH  15  25
ATOM     25  C   UNL     1      -1.079  10.114  18.436  0.00  0.00    +0.000 C 
ATOM     26  N   UNL     1      -2.083  10.156  17.858  0.00  0.00    +0.000 NA
ENDBRANCH  15  25
ENDBRANCH   1  15
BRANCH  11  27
ATOM     27  C   UNL     1       5.230   4.522  15.531  0.00  0.00    +0.000 C 
BRANCH  27  28
ATOM     28  C   UNL     1       5.834   4.318  14.154  0.00  0.00    +0.000 A 
ATOM     29  C   UNL     1       7.048   4.939  13.821  0.00  0.00    +0.000 A 
ATOM     30  C   UNL     1       7.646   4.722  12.577  0.00  0.00    +0.000 A 
ATOM     31  C   UNL     1       7.042   3.873  11.652  0.00  0.00    +0.000 A 
ATOM     32  C   UNL     1       5.838   3.247  11.968  0.00  0.00    +0.000 A 
ATOM     33  C   UNL     1       5.235   3.469  13.212  0.00  0.00    +0.000 A 
ENDBRANCH  27  28
ENDBRANCH  11  27
TORSDOF 6
ENDMDL
MODEL 2
REMARK VINA RESULT:      -8.1      0.623      1.340
REMARK  Name = 
REMARK  8 active torsions:
REMARK  status: ('A' for Active; 'I' for Inactive)
REMARK    1  A    between atoms: C_1  and  N_2
REMARK    2  A    between atoms: N_2  and  C_3
REMARK    3  A    between atoms: N_2  and  C_4
REMARK    4  A    between atoms: C_7  and  C_8
REMARK    5  A    between atoms: C_9  and  C_10
REMARK    6  A    between atoms: C_9  and  C_12
REMARK    7  A    between atoms: N_22  and  C_23
REMARK    8  A    between atoms: C_23  and  C_24
REMARK                            x       y       z     vdW  Elec       q    Type
REMARK                         _______ _______ _______ _____ _____    ______ ____
ROOT
ATOM      1  C   UNL     1       1.333   9.390  18.479  0.00  0.00    +0.000 C 
ATOM      2  O   UNL     1       1.898   9.742  17.445  0.00  0.00    +0.000 OA
ATOM      3  N   UNL     1       1.657   8.262  19.211  0.00  0.00    +0.000 N 
ATOM      4  C   UNL     1       2.702   7.441  18.846  0.00  0.00    +0.000 A 
ATOM      5  N   UNL     1       3.671   7.653  17.987  0.00  0.00    +0.000 NA
ATOM      6  C   UNL     1       4.476   6.529  17.905  0.00  0.00    +0.000 A 
ATOM      7  C   UNL     1       4.066   5.466  18.686  0.00  0.00    +0.000 A 
ATOM      8  S   UNL     1       2.719   5.911  19.630  0.00  0.00    +0.000 S 
ATOM      9  C   UNL     1       4.713   4.121  18.651  0.00  0.00    +0.000 C 
ATOM     10  C   UNL     1       6.081   4.231  17.932  0.00  0.00    +0.000 C 
ATOM     11  N   UNL     1       6.089   5.066  16.703  0.00  0.00    +0.000 NA
ATOM     12  C   UNL     1       5.703   6.471  17.033  0.00  0.00    +0.000 C 
ATOM     13  H   UNL     1       1.103   7.939  19.993  0.00  0.00    +0.000 HD
ENDROOT
BRANCH   1  15
ATOM     14  C   UNL     1       0.379  11.009  20.060  0.00  0.00    +0.000 C 
ATOM     15  C   UNL     1       0.164  10.215  18.989  0.00  0.00    +0.000 C 
BRANCH  14  19
ATOM     16  C   UNL     1      -2.494  13.511  22.135  0.00  0.00    +0.000 A 
ATOM     17  C   UNL     1      -1.949  13.867  20.891  0.00  0.00    +0.000 A 
ATOM     18  C   UNL     1      -1.032  13.045  20.217  0.00  0.00    +0.000 A 
ATOM     19  C   UNL     1      -0.651  11.813  20.750  0.00  0.00    +0.000 A 
ATOM     20  C   UNL     1      -1.260  11.386  21.927  0.00  0.00    +0.000 A 
ATOM     21  C   UNL     1      -2.164  12.226  22.604  0.00  0.00    +0.000 A 
BRANCH  16  23
ATOM     22  C   UNL     1      -3.115  14.494  24.316  0.00  0.00    +0.000 C 
ATOM     23  N   UNL     1      -3.329  14.366  22.875  0.00  0.00    +0.000 N 
ATOM     24  C   UNL     1      -4.735  14.399  22.452  0.00  0.00    +0.000 C 
ENDBRANCH  16  23
ENDBRANCH  14  19
BRANCH  15  25
ATOM     25  C   UNL     1      -1.112  10.117  18.367  0.00  0.00    +0.000 C 
ATOM     26  N   UNL     1      -2.156  10.050  17.866  0.00  0.00    +0.000 NA
ENDBRANCH  15  25
ENDBRANCH   1  15
BRANCH  11  27
ATOM     27  C   UNL     1       5.238   4.547  15.616  0.00  0.00    +0.000 C 
BRANCH  27  28
ATOM     28  C   UNL     1       5.934   4.347  14.282  0.00  0.00    +0.000 A 
ATOM     29  C   UNL     1       5.359   3.515  13.309  0.00  0.00    +0.000 A 
ATOM     30  C   UNL     1       5.958   3.358  12.056  0.00  0.00    +0.000 A 
ATOM     31  C   UNL     1       7.135   4.039  11.757  0.00  0.00    +0.000 A 
ATOM     32  C   UNL     1       7.718   4.872  12.712  0.00  0.00    +0.000 A 
ATOM     33  C   UNL     1       7.122   5.024  13.969  0.00  0.00    +0.000 A 
ENDBRANCH  27  28
ENDBRANCH  11  27
TORSDOF 6
ENDMDL
MODEL 3
REMARK VINA RESULT:      -8.0      0.630      1.060
REMARK  Name = 
REMARK  8 active torsions:
REMARK  status: ('A' for Active; 'I' for Inactive)
REMARK    1  A    between atoms: C_1  and  N_2
REMARK    2  A    between atoms: N_2  and  C_3
REMARK    3  A    between atoms: N_2  and  C_4
REMARK    4  A    between atoms: C_7  and  C_8
REMARK    5  A    between atoms: C_9  and  C_10
REMARK    6  A    between atoms: C_9  and  C_12
REMARK    7  A    between atoms: N_22  and  C_23
REMARK    8  A    between atoms: C_23  and  C_24
REMARK                            x       y       z     vdW  Elec       q    Type
REMARK                         _______ _______ _______ _____ _____    ______ ____
ROOT
ATOM      1  C   UNL     1       1.385   9.402  18.957  0.00  0.00    +0.000 C 
ATOM      2  O   UNL     1       1.977   9.831  17.969  0.00  0.00    +0.000 OA
ATOM      3  N   UNL     1       1.641   8.185  19.564  0.00  0.00    +0.000 N 
ATOM      4  C   UNL     1       2.642   7.351  19.113  0.00  0.00    +0.000 A 
ATOM      5  N   UNL     1       3.628   7.601  18.285  0.00  0.00    +0.000 NA
ATOM      6  C   UNL     1       4.370   6.448  18.083  0.00  0.00    +0.000 A 
ATOM      7  C   UNL     1       3.895   5.332  18.743  0.00  0.00    +0.000 A 
ATOM      8  S   UNL     1       2.568   5.747  19.727  0.00  0.00    +0.000 S 
ATOM      9  C   UNL     1       4.467   3.964  18.564  0.00  0.00    +0.000 C 
ATOM     10  C   UNL     1       5.845   4.076  17.863  0.00  0.00    +0.000 C 
ATOM     11  N   UNL     1       5.910   5.037  16.732  0.00  0.00    +0.000 NA
ATOM     12  C   UNL     1       5.599   6.418  17.212  0.00  0.00    +0.000 C 
ATOM     13  H   UNL     1       1.063   7.811  20.304  0.00  0.00    +0.000 HD
ENDROOT
BRANCH   1  15
ATOM     14  C   UNL     1       0.510  10.891  20.702  0.00  0.00    +0.000 C 
ATOM     15  C   UNL     1       0.260  10.230  19.551  0.00  0.00    +0.000 C 
BRANCH  14  19
ATOM     16  C   UNL     1      -2.546  13.064  22.883  0.00  0.00    +0.000 A 
ATOM     17  C   UNL     1      -2.143  11.770  23.246  0.00  0.00    +0.000 A 
ATOM     18  C   UNL     1      -1.141  11.078  22.546  0.00  0.00    +0.000 A 
ATOM     19  C   UNL     1      -0.479  11.673  21.473  0.00  0.00    +0.000 A 
ATOM     20  C   UNL     1      -0.783  12.997  21.162  0.00  0.00    +0.000 A 
ATOM     21  C   UNL     1      -1.801  13.675  21.859  0.00  0.00    +0.000 A 
BRANCH  16  23
ATOM     22  C   UNL     1      -4.877  13.013  23.707  0.00  0.00    +0.000 C 
ATOM     23  N   UNL     1      -3.618  13.730  23.503  0.00  0.00    +0.000 N 
ATOM     24  C   UNL     1      -3.763  15.150  23.162  0.00  0.00    +0.000 C 
ENDBRANCH  16  23
ENDBRANCH  14  19
BRANCH  15  25
ATOM     25  C   UNL     1      -1.015  10.270  18.921  0.00  0.00    +0.000 C 
ATOM     26  N   UNL     1      -2.048  10.312  18.397  0.00  0.00    +0.000 NA
ENDBRANCH  15  25
ENDBRANCH   1  15
BRANCH  11  27
ATOM     27  C   UNL     1       5.040   4.687  15.593  0.00  0.00    +0.000 C 
BRANCH  27  28
ATOM     28  C   UNL     1       5.760   4.386  14.292  0.00  0.00    +0.000 A 
ATOM     29  C   UNL     1       5.147   3.578  13.322  0.00  0.00    +0.000 A 
ATOM     30  C   UNL     1       5.771   3.332  12.096  0.00  0.00    +0.000 A 
ATOM     31  C   UNL     1       7.013   3.898  11.821  0.00  0.00    +0.000 A 
ATOM     32  C   UNL     1       7.634   4.707  12.773  0.00  0.00    +0.000 A 
ATOM     33  C   UNL     1       7.012   4.948  14.003  0.00  0.00    +0.000 A 
ENDBRANCH  27  28
ENDBRANCH  11  27
TORSDOF 6
ENDMDL
MODEL 4
REMARK VINA RESULT:      -8.0      1.498      2.127
REMARK  Name = 
REMARK  8 active torsions:
REMARK  status: ('A' for Active; 'I' for Inactive)
REMARK    1  A    between atoms: C_1  and  N_2
REMARK    2  A    between atoms: N_2  and  C_3
REMARK    3  A    between atoms: N_2  and  C_4
REMARK    4  A    between atoms: C_7  and  C_8
REMARK    5  A    between atoms: C_9  and  C_10
REMARK    6  A    between atoms: C_9  and  C_12
REMARK    7  A    between atoms: N_22  and  C_23
REMARK    8  A    between atoms: C_23  and  C_24
REMARK                            x       y       z     vdW  Elec       q    Type
REMARK                         _______ _______ _______ _____ _____    ______ ____
ROOT
ATOM      1  C   UNL     1       1.316   9.007  18.597  0.00  0.00    +0.000 C 
ATOM      2  O   UNL     1       1.748   9.385  17.509  0.00  0.00    +0.000 OA
ATOM      3  N   UNL     1       1.835   7.954  19.329  0.00  0.00    +0.000 N 
ATOM      4  C   UNL     1       2.939   7.250  18.897  0.00  0.00    +0.000 A 
ATOM      5  N   UNL     1       3.801   7.545  17.953  0.00  0.00    +0.000 NA
ATOM      6  C   UNL     1       4.727   6.522  17.832  0.00  0.00    +0.000 A 
ATOM      7  C   UNL     1       4.515   5.448  18.674  0.00  0.00    +0.000 A 
ATOM      8  S   UNL     1       3.207   5.764  19.718  0.00  0.00    +0.000 S 
ATOM      9  C   UNL     1       5.317   4.189  18.620  0.00  0.00    +0.000 C 
ATOM     10  C   UNL     1       6.597   4.435  17.783  0.00  0.00    +0.000 C 
ATOM     11  N   UNL     1       6.403   5.219  16.536  0.00  0.00    +0.000 NA
ATOM     12  C   UNL     1       5.877   6.579  16.860  0.00  0.00    +0.000 C 
ATOM     13  H   UNL     1       1.391   7.597  20.164  0.00  0.00    +0.000 HD
ENDROOT
BRANCH   1  15
ATOM     14  C   UNL     1      -0.690  10.399  18.337  0.00  0.00    +0.000 C 
ATOM     15  C   UNL     1       0.102   9.705  19.183  0.00  0.00    +0.000 C 
BRANCH  14  19
ATOM     16  C   UNL     1      -4.119  12.689  19.685  0.00  0.00    +0.000 A 
ATOM     17  C   UNL     1      -2.817  12.951  20.138  0.00  0.00    +0.000 A 
ATOM     18  C   UNL     1      -1.709  12.217  19.686  0.00  0.00    +0.000 A 
ATOM     19  C   UNL     1      -1.860  11.211  18.732  0.00  0.00    +0.000 A 
ATOM     20  C   UNL     1      -3.124  11.005  18.184  0.00  0.00    +0.000 A 
ATOM     21  C   UNL     1      -4.231  11.734  18.657  0.00  0.00    +0.000 A 
BRANCH  16  23
ATOM     22  C   UNL     1      -5.571  13.185  21.623  0.00  0.00    +0.000 C 
ATOM     23  N   UNL     1      -5.253  13.339  20.203  0.00  0.00    +0.000 N 
ATOM     24  C   UNL     1      -6.416  13.392  19.310  0.00  0.00    +0.000 C 
ENDBRANCH  16  23
ENDBRANCH  14  19
BRANCH  15  25
ATOM     25  C   UNL     1      -0.157   9.646  20.580  0.00  0.00    +0.000 C 
ATOM     26  N   UNL     1      -0.380   9.608  21.718  0.00  0.00    +0.000 NA
ENDBRANCH  15  25
ENDBRANCH   1  15
BRANCH  11  27
ATOM     27  C   UNL     1       5.535   4.562  15.541  0.00  0.00    +0.000 C 
BRANCH  27  28
ATOM     28  C   UNL     1       6.148   4.373  14.165  0.00  0.00    +0.000 A 
ATOM     29  C   UNL     1       5.560   3.485  13.251  0.00  0.00    +0.000 A 
ATOM     30  C   UNL     1       6.079   3.336  11.962  0.00  0.00    +0.000 A 
ATOM     31  C   UNL     1       7.187   4.081  11.567  0.00  0.00    +0.000 A 
ATOM     32  C   UNL     1       7.781   4.970  12.462  0.00  0.00    +0.000 A 
ATOM     33  C   UNL     1       7.266   5.114  13.756  0.00  0.00    +0.000 A 
ENDBRANCH  27  28
ENDBRANCH  11  27
TORSDOF 6
ENDMDL
MODEL 5
REMARK VINA RESULT:      -7.9      0.970      1.464
REMARK  Name = 
REMARK  8 active torsions:
REMARK  status: ('A' for Active; 'I' for Inactive)
REMARK    1  A    between atoms: C_1  and  N_2
REMARK    2  A    between atoms: N_2  and  C_3
REMARK    3  A    between atoms: N_2  and  C_4
REMARK    4  A    between atoms: C_7  and  C_8
REMARK    5  A    between atoms: C_9  and  C_10
REMARK    6  A    between atoms: C_9  and  C_12
REMARK    7  A    between atoms: N_22  and  C_23
REMARK    8  A    between atoms: C_23  and  C_24
REMARK                            x       y       z     vdW  Elec       q    Type
REMARK                         _______ _______ _______ _____ _____    ______ ____
ROOT
ATOM      1  C   UNL     1       1.339   9.498  18.328  0.00  0.00    +0.000 C 
ATOM      2  O   UNL     1       1.941   9.808  17.302  0.00  0.00    +0.000 OA
ATOM      3  N   UNL     1       1.608   8.376  19.092  0.00  0.00    +0.000 N 
ATOM      4  C   UNL     1       2.634   7.514  18.770  0.00  0.00    +0.000 A 
ATOM      5  N   UNL     1       3.631   7.676  17.932  0.00  0.00    +0.000 NA
ATOM      6  C   UNL     1       4.399   6.524  17.893  0.00  0.00    +0.000 A 
ATOM      7  C   UNL     1       3.935   5.493  18.685  0.00  0.00    +0.000 A 
ATOM      8  S   UNL     1       2.581   6.001  19.586  0.00  0.00    +0.000 S 
ATOM      9  C   UNL     1       4.538   4.126  18.696  0.00  0.00    +0.000 C 
ATOM     10  C   UNL     1       5.926   4.177  18.009  0.00  0.00    +0.000 C 
ATOM     11  N   UNL     1       5.993   4.985  16.764  0.00  0.00    +0.000 NA
ATOM     12  C   UNL     1       5.645   6.408  17.054  0.00  0.00    +0.000 C 
ATOM     13  H   UNL     1       1.024   8.088  19.865  0.00  0.00    +0.000 HD
ENDROOT
BRANCH   1  15
ATOM     14  C   UNL     1       0.442  11.289  19.748  0.00  0.00    +0.000 C 
ATOM     15  C   UNL     1       0.187  10.371  18.790  0.00  0.00    +0.000 C 
BRANCH  14  19
ATOM     16  C   UNL     1      -2.353  13.979  21.691  0.00  0.00    +0.000 A 
ATOM     17  C   UNL     1      -1.649  14.338  20.531  0.00  0.00    +0.000 A 
ATOM     18  C   UNL     1      -0.758  13.457  19.897  0.00  0.00    +0.000 A 
ATOM     19  C   UNL     1      -0.564  12.165  20.385  0.00  0.00    +0.000 A 
ATOM     20  C   UNL     1      -1.332  11.745  21.468  0.00  0.00    +0.000 A 
ATOM     21  C   UNL     1      -2.209  12.643  22.107  0.00  0.00    +0.000 A 
BRANCH  16  23
ATOM     22  C   UNL     1      -4.027  15.797  21.652  0.00  0.00    +0.000 C 
ATOM     23  N   UNL     1      -3.166  14.880  22.399  0.00  0.00    +0.000 N 
ATOM     24  C   UNL     1      -2.574  15.443  23.619  0.00  0.00    +0.000 C 
ENDBRANCH  16  23
ENDBRANCH  14  19
BRANCH  15  25
ATOM     25  C   UNL     1      -1.116  10.192  18.247  0.00  0.00    +0.000 C 
ATOM     26  N   UNL     1      -2.181  10.036  17.816  0.00  0.00    +0.000 NA
ENDBRANCH  15  25
ENDBRANCH   1  15
BRANCH  11  27
ATOM     27  C   UNL     1       5.152   4.470  15.666  0.00  0.00    +0.000 C 
BRANCH  27  28
ATOM     28  C   UNL     1       5.841   4.348  14.319  0.00  0.00    +0.000 A 
ATOM     29  C   UNL     1       7.046   5.029  14.084  0.00  0.00    +0.000 A 
ATOM     30  C   UNL     1       7.722   4.888  12.870  0.00  0.00    +0.000 A 
ATOM     31  C   UNL     1       7.207   4.057  11.878  0.00  0.00    +0.000 A 
ATOM     32  C   UNL     1       6.013   3.371  12.097  0.00  0.00    +0.000 A 
ATOM     33  C   UNL     1       5.332   3.518  13.311  0.00  0.00    +0.000 A 
ENDBRANCH  27  28
ENDBRANCH  11  27
TORSDOF 6
ENDMDL
MODEL 6
REMARK VINA RESULT:      -7.9      1.370      1.832
REMARK  Name = 
REMARK  8 active torsions:
REMARK  status: ('A' for Active; 'I' for Inactive)
REMARK    1  A    between atoms: C_1  and  N_2
REMARK    2  A    between atoms: N_2  and  C_3
REMARK    3  A    between atoms: N_2  and  C_4
REMARK    4  A    between atoms: C_7  and  C_8
REMARK    5  A    between atoms: C_9  and  C_10
REMARK    6  A    between atoms: C_9  and  C_12
REMARK    7  A    between atoms: N_22  and  C_23
REMARK    8  A    between atoms: C_23  and  C_24
REMARK                            x       y       z     vdW  Elec       q    Type
REMARK                         _______ _______ _______ _____ _____    ______ ____
ROOT
ATOM      1  C   UNL     1       1.272   9.080  18.703  0.00  0.00    +0.000 C 
ATOM      2  O   UNL     1       1.651   9.445  17.592  0.00  0.00    +0.000 OA
ATOM      3  N   UNL     1       1.818   8.027  19.416  0.00  0.00    +0.000 N 
ATOM      4  C   UNL     1       2.891   7.310  18.934  0.00  0.00    +0.000 A 
ATOM      5  N   UNL     1       3.707   7.588  17.944  0.00  0.00    +0.000 NA
ATOM      6  C   UNL     1       4.616   6.555  17.785  0.00  0.00    +0.000 A 
ATOM      7  C   UNL     1       4.437   5.490  18.645  0.00  0.00    +0.000 A 
ATOM      8  S   UNL     1       3.187   5.826  19.752  0.00  0.00    +0.000 S 
ATOM      9  C   UNL     1       5.223   4.223  18.560  0.00  0.00    +0.000 C 
ATOM     10  C   UNL     1       6.462   4.450  17.657  0.00  0.00    +0.000 C 
ATOM     11  N   UNL     1       6.211   5.226  16.416  0.00  0.00    +0.000 NA
ATOM     12  C   UNL     1       5.715   6.594  16.755  0.00  0.00    +0.000 C 
ATOM     13  H   UNL     1       1.413   7.680  20.275  0.00  0.00    +0.000 HD
ENDROOT
BRANCH   1  15
ATOM     14  C   UNL     1      -0.610  10.651  18.576  0.00  0.00    +0.000 C 
ATOM     15  C   UNL     1       0.096   9.794  19.344  0.00  0.00    +0.000 C 
BRANCH  14  19
ATOM     16  C   UNL     1      -3.875  13.044  20.137  0.00  0.00    +0.000 A 
ATOM     17  C   UNL     1      -2.541  13.260  20.514  0.00  0.00    +0.000 A 
ATOM     18  C   UNL     1      -1.486  12.492  19.992  0.00  0.00    +0.000 A 
ATOM     19  C   UNL     1      -1.727  11.499  19.044  0.00  0.00    +0.000 A 
ATOM     20  C   UNL     1      -3.027  11.339  18.571  0.00  0.00    +0.000 A 
ATOM     21  C   UNL     1      -4.079  12.101  19.113  0.00  0.00    +0.000 A 
BRANCH  16  23
ATOM     22  C   UNL     1      -5.201  15.119  20.348  0.00  0.00    +0.000 C 
ATOM     23  N   UNL     1      -4.953  13.728  20.725  0.00  0.00    +0.000 N 
ATOM     24  C   UNL     1      -5.208  13.414  22.136  0.00  0.00    +0.000 C 
ENDBRANCH  16  23
ENDBRANCH  14  19
BRANCH  15  25
ATOM     25  C   UNL     1      -0.215   9.580  20.716  0.00  0.00    +0.000 C 
ATOM     26  N   UNL     1      -0.460   9.417  21.838  0.00  0.00    +0.000 NA
ENDBRANCH  15  25
ENDBRANCH   1  15
BRANCH  11  27
ATOM     27  C   UNL     1       5.287   4.571  15.471  0.00  0.00    +0.000 C 
BRANCH  27  28
ATOM     28  C   UNL     1       5.848   4.314  14.084  0.00  0.00    +0.000 A 
ATOM     29  C   UNL     1       7.072   4.886  13.705  0.00  0.00    +0.000 A 
ATOM     30  C   UNL     1       7.630   4.620  12.452  0.00  0.00    +0.000 A 
ATOM     31  C   UNL     1       6.975   3.769  11.565  0.00  0.00    +0.000 A 
ATOM     32  C   UNL     1       5.759   3.190  11.927  0.00  0.00    +0.000 A 
ATOM     33  C   UNL     1       5.197   3.462  13.179  0.00  0.00    +0.000 A 
ENDBRANCH  27  28
ENDBRANCH  11  27
TORSDOF 6
ENDMDL
MODEL 7
REMARK VINA RESULT:      -7.8      1.525      2.069
REMARK  Name = 
REMARK  8 active torsions:
REMARK  status: ('A' for Active; 'I' for Inactive)
REMARK    1  A    between atoms: C_1  and  N_2
REMARK    2  A    between atoms: N_2  and  C_3
REMARK    3  A    between atoms: N_2  and  C_4
REMARK    4  A    between atoms: C_7  and  C_8
REMARK    5  A    between atoms: C_9  and  C_10
REMARK    6  A    between atoms: C_9  and  C_12
REMARK    7  A    between atoms: N_22  and  C_23
REMARK    8  A    between atoms: C_23  and  C_24
REMARK                            x       y       z     vdW  Elec       q    Type
REMARK                         _______ _______ _______ _____ _____    ______ ____
ROOT
ATOM      1  C   UNL     1       1.655   9.800  18.247  0.00  0.00    +0.000 C 
ATOM      2  O   UNL     1       2.396  10.048  17.298  0.00  0.00    +0.000 OA
ATOM      3  N   UNL     1       1.686   8.632  18.989  0.00  0.00    +0.000 N 
ATOM      4  C   UNL     1       2.612   7.643  18.736  0.00  0.00    +0.000 A 
ATOM      5  N   UNL     1       3.702   7.684  18.008  0.00  0.00    +0.000 NA
ATOM      6  C   UNL     1       4.305   6.437  18.000  0.00  0.00    +0.000 A 
ATOM      7  C   UNL     1       3.624   5.461  18.701  0.00  0.00    +0.000 A 
ATOM      8  S   UNL     1       2.267   6.132  19.483  0.00  0.00    +0.000 S 
ATOM      9  C   UNL     1       4.029   4.024  18.717  0.00  0.00    +0.000 C 
ATOM     10  C   UNL     1       5.475   3.896  18.173  0.00  0.00    +0.000 C 
ATOM     11  N   UNL     1       5.780   4.717  16.974  0.00  0.00    +0.000 NA
ATOM     12  C   UNL     1       5.603   6.168  17.285  0.00  0.00    +0.000 C 
ATOM     13  H   UNL     1       0.992   8.410  19.689  0.00  0.00    +0.000 HD
ENDROOT
BRANCH   1  15
ATOM     14  C   UNL     1      -0.632  10.346  18.954  0.00  0.00    +0.000 C 
ATOM     15  C   UNL     1       0.591  10.814  18.627  0.00  0.00    +0.000 C 
BRANCH  14  19
ATOM     16  C   UNL     1      -4.148  12.653  20.023  0.00  0.00    +0.000 A 
ATOM     17  C   UNL     1      -2.991  12.637  20.818  0.00  0.00    +0.000 A 
ATOM     18  C   UNL     1      -1.850  11.900  20.458  0.00  0.00    +0.000 A 
ATOM     19  C   UNL     1      -1.813  11.178  19.266  0.00  0.00    +0.000 A 
ATOM     20  C   UNL     1      -2.905  11.266  18.406  0.00  0.00    +0.000 A 
ATOM     21  C   UNL     1      -4.051  11.992  18.785  0.00  0.00    +0.000 A 
BRANCH  16  23
ATOM     22  C   UNL     1      -5.253  14.621  21.031  0.00  0.00    +0.000 C 
ATOM     23  N   UNL     1      -5.334  13.295  20.417  0.00  0.00    +0.000 N 
ATOM     24  C   UNL     1      -6.374  12.420  20.970  0.00  0.00    +0.000 C 
ENDBRANCH  16  23
ENDBRANCH  14  19
BRANCH  15  25
ATOM     25  C   UNL     1       0.883  12.207  18.602  0.00  0.00    +0.000 C 
ATOM     26  N   UNL     1       1.118  13.342  18.567  0.00  0.00    +0.000 NA
ENDBRANCH  15  25
ENDBRANCH   1  15
BRANCH  11  27
ATOM     27  C   UNL     1       4.995   4.354  15.779  0.00  0.00    +0.000 C 
BRANCH  27  28
ATOM     28  C   UNL     1       5.780   4.272  14.483  0.00  0.00    +0.000 A 
ATOM     29  C   UNL     1       5.282   3.521  13.407  0.00  0.00    +0.000 A 
ATOM     30  C   UNL     1       5.964   3.475  12.189  0.00  0.00    +0.000 A 
ATOM     31  C   UNL     1       7.149   4.188  12.027  0.00  0.00    +0.000 A 
ATOM     32  C   UNL     1       7.656   4.942  13.085  0.00  0.00    +0.000 A 
ATOM     33  C   UNL     1       6.976   4.983  14.308  0.00  0.00    +0.000 A 
ENDBRANCH  27  28
ENDBRANCH  11  27
TORSDOF 6
ENDMDL
MODEL 8
REMARK VINA RESULT:      -7.8      2.018      2.814
REMARK  Name = 
REMARK  8 active torsions:
REMARK  status: ('A' for Active; 'I' for Inactive)
REMARK    1  A    between atoms: C_1  and  N_2
REMARK    2  A    between atoms: N_2  and  C_3
REMARK    3  A    between atoms: N_2  and  C_4
REMARK    4  A    between atoms: C_7  and  C_8
REMARK    5  A    between atoms: C_9  and  C_10
REMARK    6  A    between atoms: C_9  and  C_12
REMARK    7  A    between atoms: N_22  and  C_23
REMARK    8  A    between atoms: C_23  and  C_24
REMARK                            x       y       z     vdW  Elec       q    Type
REMARK                         _______ _______ _______ _____ _____    ______ ____
ROOT
ATOM      1  C   UNL     1       1.332   9.088  18.243  0.00  0.00    +0.000 C 
ATOM      2  O   UNL     1       1.836   9.411  17.169  0.00  0.00    +0.000 OA
ATOM      3  N   UNL     1       1.791   8.066  19.055  0.00  0.00    +0.000 N 
ATOM      4  C   UNL     1       2.913   7.334  18.728  0.00  0.00    +0.000 A 
ATOM      5  N   UNL     1       3.837   7.577  17.828  0.00  0.00    +0.000 NA
ATOM      6  C   UNL     1       4.757   6.542  17.815  0.00  0.00    +0.000 A 
ATOM      7  C   UNL     1       4.480   5.511  18.690  0.00  0.00    +0.000 A 
ATOM      8  S   UNL     1       3.111   5.885  19.632  0.00  0.00    +0.000 S 
ATOM      9  C   UNL     1       5.269   4.244  18.746  0.00  0.00    +0.000 C 
ATOM     10  C   UNL     1       6.604   4.441  17.982  0.00  0.00    +0.000 C 
ATOM     11  N   UNL     1       6.498   5.167  16.691  0.00  0.00    +0.000 NA
ATOM     12  C   UNL     1       5.967   6.545  16.917  0.00  0.00    +0.000 C 
ATOM     13  H   UNL     1       1.290   7.751  19.875  0.00  0.00    +0.000 HD
ENDROOT
BRANCH   1  15
ATOM     14  C   UNL     1      -0.988   9.816  17.905  0.00  0.00    +0.000 C 
ATOM     15  C   UNL     1       0.091   9.822  18.717  0.00  0.00    +0.000 C 
BRANCH  14  19
ATOM     16  C   UNL     1      -4.711  11.983  18.423  0.00  0.00    +0.000 A 
ATOM     17  C   UNL     1      -4.667  10.683  17.896  0.00  0.00    +0.000 A 
ATOM     18  C   UNL     1      -3.460   9.980  17.746  0.00  0.00    +0.000 A 
ATOM     19  C   UNL     1      -2.251  10.544  18.152  0.00  0.00    +0.000 A 
ATOM     20  C   UNL     1      -2.279  11.787  18.779  0.00  0.00    +0.000 A 
ATOM     21  C   UNL     1      -3.492  12.490  18.908  0.00  0.00    +0.000 A 
BRANCH  16  23
ATOM     22  C   UNL     1      -6.423  13.326  17.250  0.00  0.00    +0.000 C 
ATOM     23  N   UNL     1      -5.892  12.742  18.482  0.00  0.00    +0.000 N 
ATOM     24  C   UNL     1      -6.050  13.576  19.680  0.00  0.00    +0.000 C 
ENDBRANCH  16  23
ENDBRANCH  14  19
BRANCH  15  25
ATOM     25  C   UNL     1       0.094  10.514  19.960  0.00  0.00    +0.000 C 
ATOM     26  N   UNL     1       0.111  11.074  20.976  0.00  0.00    +0.000 NA
ENDBRANCH  15  25
ENDBRANCH   1  15
BRANCH  11  27
ATOM     27  C   UNL     1       5.688   4.472  15.672  0.00  0.00    +0.000 C 
BRANCH  27  28
ATOM     28  C   UNL     1       6.305   4.399  14.288  0.00  0.00    +0.000 A 
ATOM     29  C   UNL     1       5.747   3.556  13.314  0.00  0.00    +0.000 A 
ATOM     30  C   UNL     1       6.268   3.515  12.019  0.00  0.00    +0.000 A 
ATOM     31  C   UNL     1       7.349   4.323  11.676  0.00  0.00    +0.000 A 
ATOM     32  C   UNL     1       7.913   5.169  12.631  0.00  0.00    +0.000 A 
ATOM     33  C   UNL     1       7.395   5.206  13.931  0.00  0.00    +0.000 A 
ENDBRANCH  27  28
ENDBRANCH  11  27
TORSDOF 6
ENDMDL
MODEL 9
REMARK VINA RESULT:      -7.8      7.149      9.819
REMARK  Name = 
REMARK  8 active torsions:
REMARK  status: ('A' for Active; 'I' for Inactive)
REMARK    1  A    between atoms: C_1  and  N_2
REMARK    2  A    between atoms: N_2  and  C_3
REMARK    3  A    between atoms: N_2  and  C_4
REMARK    4  A    between atoms: C_7  and  C_8
REMARK    5  A    between atoms: C_9  and  C_10
REMARK    6  A    between atoms: C_9  and  C_12
REMARK    7  A    between atoms: N_22  and  C_23
REMARK    8  A    between atoms: C_23  and  C_24
REMARK                            x       y       z     vdW  Elec       q    Type
REMARK                         _______ _______ _______ _____ _____    ______ ____
ROOT
ATOM      1  C   UNL     1       8.499  10.610  17.906  0.00  0.00    +0.000 C 
ATOM      2  O   UNL     1       7.509  10.941  17.258  0.00  0.00    +0.000 OA
ATOM      3  N   UNL     1       8.770   9.321  18.333  0.00  0.00    +0.000 N 
ATOM      4  C   UNL     1       7.939   8.268  18.016  0.00  0.00    +0.000 A 
ATOM      5  N   UNL     1       6.972   8.203  17.131  0.00  0.00    +0.000 NA
ATOM      6  C   UNL     1       6.373   6.955  17.187  0.00  0.00    +0.000 A 
ATOM      7  C   UNL     1       6.885   6.111  18.152  0.00  0.00    +0.000 A 
ATOM      8  S   UNL     1       8.214   6.838  18.930  0.00  0.00    +0.000 S 
ATOM      9  C   UNL     1       6.304   4.771  18.467  0.00  0.00    +0.000 C 
ATOM     10  C   UNL     1       5.339   4.354  17.328  0.00  0.00    +0.000 C 
ATOM     11  N   UNL     1       4.444   5.427  16.826  0.00  0.00    +0.000 NA
ATOM     12  C   UNL     1       5.253   6.551  16.264  0.00  0.00    +0.000 C 
ATOM     13  H   UNL     1       9.533   9.101  18.958  0.00  0.00    +0.000 HD
ENDROOT
BRANCH   1  15
ATOM     14  C   UNL     1       9.023  12.931  18.514  0.00  0.00    +0.000 C 
ATOM     15  C   UNL     1       9.494  11.681  18.317  0.00  0.00    +0.000 C 
BRANCH  14  19
ATOM     16  C   UNL     1      11.262  16.516  19.490  0.00  0.00    +0.000 A 
ATOM     17  C   UNL     1      10.681  15.703  20.476  0.00  0.00    +0.000 A 
ATOM     18  C   UNL     1       9.971  14.535  20.154  0.00  0.00    +0.000 A 
ATOM     19  C   UNL     1       9.846  14.117  18.830  0.00  0.00    +0.000 A 
ATOM     20  C   UNL     1      10.507  14.844  17.843  0.00  0.00    +0.000 A 
ATOM     21  C   UNL     1      11.201  16.023  18.174  0.00  0.00    +0.000 A 
BRANCH  16  23
ATOM     22  C   UNL     1      11.557  18.422  21.036  0.00  0.00    +0.000 C 
ATOM     23  N   UNL     1      11.884  17.742  19.783  0.00  0.00    +0.000 N 
ATOM     24  C   UNL     1      12.102  18.631  18.635  0.00  0.00    +0.000 C 
ENDBRANCH  16  23
ENDBRANCH  14  19
BRANCH  15  25
ATOM     25  C   UNL     1      10.875  11.367  18.451  0.00  0.00    +0.000 C 
ATOM     26  N   UNL     1      12.004  11.121  18.549  0.00  0.00    +0.000 NA
ENDBRANCH  15  25
ENDBRANCH   1  15
BRANCH  11  27
ATOM     27  C   UNL     1       3.492   5.938  17.830  0.00  0.00    +0.000 C 
BRANCH  27  28
ATOM     28  C   UNL     1       2.660   4.883  18.535  0.00  0.00    +0.000 A 
ATOM     29  C   UNL     1       2.639   4.827  19.938  0.00  0.00    +0.000 A 
ATOM     30  C   UNL     1       1.839   3.897  20.606  0.00  0.00    +0.000 A 
ATOM     31  C   UNL     1       1.041   3.016  19.880  0.00  0.00    +0.000 A 
ATOM     32  C   UNL     1       1.048   3.060  18.486  0.00  0.00    +0.000 A 
ATOM     33  C   UNL     1       1.855   3.988  17.816  0.00  0.00    +0.000 A 
ENDBRANCH  27  28
ENDBRANCH  11  27
TORSDOF 6
ENDMDL
