MODEL 1
REMARK VINA RESULT:      -7.5      0.000      0.000
REMARK  Name = 
REMARK  3 active torsions:
REMARK  status: ('A' for Active; 'I' for Inactive)
REMARK    1  A    between atoms: S_2  and  C_4
REMARK    2  A    between atoms: S_2  and  N_11
REMARK    3  A    between atoms: N_14  and  C_15
REMARK                            x       y       z     vdW  Elec       q    Type
REMARK                         _______ _______ _______ _____ _____    ______ ____
ROOT
ATOM      1  N   UNL     1       3.257   4.861  18.598  0.00  0.00    +0.000 NA
ATOM      2  C   UNL     1       2.244   4.698  19.701  0.00  0.00    +0.000 C 
ATOM      3  C   UNL     1       2.124   5.956  20.602  0.00  0.00    +0.000 C 
ATOM      4  N   UNL     1       1.842   7.121  19.739  0.00  0.00    +0.000 N 
ATOM      5  C   UNL     1       2.973   7.369  18.818  0.00  0.00    +0.000 C 
ATOM      6  C   UNL     1       3.094   6.163  17.868  0.00  0.00    +0.000 C 
ENDROOT
BRANCH   4   7
ATOM      7  C   UNL     1       1.395   8.281  20.390  0.00  0.00    +0.000 A 
ATOM      8  N   UNL     1       1.161   8.237  21.716  0.00  0.00    +0.000 NA
ATOM      9  C   UNL     1       0.738   9.376  22.286  0.00  0.00    +0.000 A 
ATOM     10 CL   UNL     1       0.443   9.324  23.967  0.00  0.00    +0.000 Cl
ATOM     11  N   UNL     1       0.511  10.552  21.687  0.00  0.00    +0.000 NA
ATOM     12  C   UNL     1       0.730  10.555  20.361  0.00  0.00    +0.000 A 
ATOM     13  C   UNL     1       1.170   9.453  19.658  0.00  0.00    +0.000 A 
ATOM     14 BR   UNL     1       1.347   9.578  17.776  0.00  0.00    +0.000 Br
ENDBRANCH   4   7
BRANCH   1  16
ATOM     15  O   UNL     1       4.819   3.042  19.437  0.00  0.00    +0.000 OA
ATOM     16  S   UNL     1       4.848   4.408  18.955  0.00  0.00    +0.000 S 
ATOM     17  O   UNL     1       5.468   5.463  19.729  0.00  0.00    +0.000 OA
BRANCH  16  18
ATOM     18  C   UNL     1       5.644   4.428  17.361  0.00  0.00    +0.000 A 
ATOM     19  C   UNL     1       4.946   3.939  16.248  0.00  0.00    +0.000 A 
ATOM     20  C   UNL     1       5.502   4.068  14.975  0.00  0.00    +0.000 A 
ATOM     21  C   UNL     1       6.742   4.681  14.825  0.00  0.00    +0.000 A 
ATOM     22  F   UNL     1       7.257   4.837  13.598  0.00  0.00    +0.000 F 
ATOM     23  C   UNL     1       7.449   5.151  15.929  0.00  0.00    +0.000 A 
ATOM     24  C   UNL     1       6.901   5.026  17.208  0.00  0.00    +0.000 A 
ENDBRANCH  16  18
ENDBRANCH   1  16
TORSDOF 3
ENDMDL
MODEL 2
REMARK VINA RESULT:      -7.4      3.610      5.101
REMARK  Name = 
REMARK  3 active torsions:
REMARK  status: ('A' for Active; 'I' for Inactive)
REMARK    1  A    between atoms: S_2  and  C_4
REMARK    2  A    between atoms: S_2  and  N_11
REMARK    3  A    between atoms: N_14  and  C_15
REMARK                            x       y       z     vdW  Elec       q    Type
REMARK                         _______ _______ _______ _____ _____    ______ ____
ROOT
ATOM      1  N   UNL     1       6.650   4.190  15.825  0.00  0.00    +0.000 NA
ATOM      2  C   UNL     1       7.089   4.814  17.124  0.00  0.00    +0.000 C 
ATOM      3  C   UNL     1       5.929   5.512  17.882  0.00  0.00    +0.000 C 
ATOM      4  N   UNL     1       4.837   4.534  18.063  0.00  0.00    +0.000 N 
ATOM      5  C   UNL     1       4.293   4.117  16.752  0.00  0.00    +0.000 C 
ATOM      6  C   UNL     1       5.401   3.371  15.985  0.00  0.00    +0.000 C 
ENDROOT
BRANCH   4   7
ATOM      7  C   UNL     1       3.842   4.880  18.990  0.00  0.00    +0.000 A 
ATOM      8  N   UNL     1       3.354   6.136  18.986  0.00  0.00    +0.000 NA
ATOM      9  C   UNL     1       2.402   6.410  19.892  0.00  0.00    +0.000 A 
ATOM     10 CL   UNL     1       1.781   8.000  19.887  0.00  0.00    +0.000 Cl
ATOM     11  N   UNL     1       1.886   5.581  20.808  0.00  0.00    +0.000 NA
ATOM     12  C   UNL     1       2.411   4.344  20.801  0.00  0.00    +0.000 A 
ATOM     13  C   UNL     1       3.391   3.935  19.919  0.00  0.00    +0.000 A 
ATOM     14 BR   UNL     1       4.104   2.188  20.087  0.00  0.00    +0.000 Br
ENDBRANCH   4   7
BRANCH   1  16
ATOM     15  O   UNL     1       8.077   5.660  14.324  0.00  0.00    +0.000 OA
ATOM     16  S   UNL     1       6.719   5.172  14.449  0.00  0.00    +0.000 S 
ATOM     17  O   UNL     1       5.593   6.083  14.473  0.00  0.00    +0.000 OA
BRANCH  16  18
ATOM     18  C   UNL     1       6.403   4.029  13.118  0.00  0.00    +0.000 A 
ATOM     19  C   UNL     1       7.490   3.415  12.481  0.00  0.00    +0.000 A 
ATOM     20  C   UNL     1       7.259   2.421  11.528  0.00  0.00    +0.000 A 
ATOM     21  C   UNL     1       5.952   2.053  11.223  0.00  0.00    +0.000 A 
ATOM     22  F   UNL     1       5.732   1.074  10.336  0.00  0.00    +0.000 F 
ATOM     23  C   UNL     1       4.868   2.674  11.840  0.00  0.00    +0.000 A 
ATOM     24  C   UNL     1       5.090   3.670  12.794  0.00  0.00    +0.000 A 
ENDBRANCH  16  18
ENDBRANCH   1  16
TORSDOF 3
ENDMDL
MODEL 3
REMARK VINA RESULT:      -7.4      2.561      3.423
REMARK  Name = 
REMARK  3 active torsions:
REMARK  status: ('A' for Active; 'I' for Inactive)
REMARK    1  A    between atoms: S_2  and  C_4
REMARK    2  A    between atoms: S_2  and  N_11
REMARK    3  A    between atoms: N_14  and  C_15
REMARK                            x       y       z     vdW  Elec       q    Type
REMARK                         _______ _______ _______ _____ _____    ______ ____
ROOT
ATOM      1  N   UNL     1       5.594   4.347  17.209  0.00  0.00    +0.000 NA
ATOM      2  C   UNL     1       5.477   4.192  18.703  0.00  0.00    +0.000 C 
ATOM      3  C   UNL     1       4.800   5.409  19.385  0.00  0.00    +0.000 C 
ATOM      4  N   UNL     1       3.494   5.642  18.734  0.00  0.00    +0.000 N 
ATOM      5  C   UNL     1       3.682   6.006  17.313  0.00  0.00    +0.000 C 
ATOM      6  C   UNL     1       4.306   4.802  16.584  0.00  0.00    +0.000 C 
ENDROOT
BRANCH   4   7
ATOM      7  C   UNL     1       2.606   6.492  19.410  0.00  0.00    +0.000 A 
ATOM      8  N   UNL     1       2.465   7.762  18.982  0.00  0.00    +0.000 NA
ATOM      9  C   UNL     1       1.600   8.530  19.664  0.00  0.00    +0.000 A 
ATOM     10 CL   UNL     1       1.417  10.138  19.122  0.00  0.00    +0.000 Cl
ATOM     11  N   UNL     1       0.867   8.182  20.730  0.00  0.00    +0.000 NA
ATOM     12  C   UNL     1       1.050   6.918  21.145  0.00  0.00    +0.000 A 
ATOM     13  C   UNL     1       1.905   6.028  20.529  0.00  0.00    +0.000 A 
ATOM     14 BR   UNL     1       2.132   4.304  21.283  0.00  0.00    +0.000 Br
ENDBRANCH   4   7
BRANCH   1  16
ATOM     15  O   UNL     1       8.134   4.377  17.177  0.00  0.00    +0.000 OA
ATOM     16  S   UNL     1       6.999   5.093  16.631  0.00  0.00    +0.000 S 
ATOM     17  O   UNL     1       6.866   6.525  16.797  0.00  0.00    +0.000 OA
BRANCH  16  18
ATOM     18  C   UNL     1       6.929   4.788  14.876  0.00  0.00    +0.000 A 
ATOM     19  C   UNL     1       7.780   5.510  14.028  0.00  0.00    +0.000 A 
ATOM     20  C   UNL     1       7.831   5.192  12.670  0.00  0.00    +0.000 A 
ATOM     21  C   UNL     1       7.036   4.162  12.175  0.00  0.00    +0.000 A 
ATOM     22  F   UNL     1       7.114   3.834  10.879  0.00  0.00    +0.000 F 
ATOM     23  C   UNL     1       6.174   3.455  13.010  0.00  0.00    +0.000 A 
ATOM     24  C   UNL     1       6.115   3.767  14.370  0.00  0.00    +0.000 A 
ENDBRANCH  16  18
ENDBRANCH   1  16
TORSDOF 3
ENDMDL
MODEL 4
REMARK VINA RESULT:      -7.3      4.758      6.967
REMARK  Name = 
REMARK  3 active torsions:
REMARK  status: ('A' for Active; 'I' for Inactive)
REMARK    1  A    between atoms: S_2  and  C_4
REMARK    2  A    between atoms: S_2  and  N_11
REMARK    3  A    between atoms: N_14  and  C_15
REMARK                            x       y       z     vdW  Elec       q    Type
REMARK                         _______ _______ _______ _____ _____    ______ ____
ROOT
ATOM      1  N   UNL     1       3.017   2.343  19.706  0.00  0.00    +0.000 NA
ATOM      2  C   UNL     1       3.273   1.669  18.383  0.00  0.00    +0.000 C 
ATOM      3  C   UNL     1       3.799   2.646  17.299  0.00  0.00    +0.000 C 
ATOM      4  N   UNL     1       4.997   3.328  17.830  0.00  0.00    +0.000 N 
ATOM      5  C   UNL     1       4.644   4.154  19.006  0.00  0.00    +0.000 C 
ATOM      6  C   UNL     1       4.164   3.215  20.128  0.00  0.00    +0.000 C 
ENDROOT
BRANCH   4   7
ATOM      7  C   UNL     1       5.789   4.010  16.893  0.00  0.00    +0.000 A 
ATOM      8  N   UNL     1       5.722   3.650  15.596  0.00  0.00    +0.000 NA
ATOM      9  C   UNL     1       6.499   4.337  14.745  0.00  0.00    +0.000 A 
ATOM     10 CL   UNL     1       6.414   3.886  13.101  0.00  0.00    +0.000 Cl
ATOM     11  N   UNL     1       7.343   5.335  15.037  0.00  0.00    +0.000 NA
ATOM     12  C   UNL     1       7.404   5.653  16.340  0.00  0.00    +0.000 A 
ATOM     13  C   UNL     1       6.654   5.026  17.315  0.00  0.00    +0.000 A 
ATOM     14 BR   UNL     1       6.914   5.514  19.127  0.00  0.00    +0.000 Br
ENDBRANCH   4   7
BRANCH   1  16
ATOM     15  O   UNL     1       1.168   2.903  21.355  0.00  0.00    +0.000 OA
ATOM     16  S   UNL     1       1.471   2.990  19.942  0.00  0.00    +0.000 S 
ATOM     17  O   UNL     1       0.578   2.432  18.948  0.00  0.00    +0.000 OA
BRANCH  16  18
ATOM     18  C   UNL     1       1.679   4.708  19.513  0.00  0.00    +0.000 A 
ATOM     19  C   UNL     1       1.824   5.650  20.540  0.00  0.00    +0.000 A 
ATOM     20  C   UNL     1       2.119   6.977  20.222  0.00  0.00    +0.000 A 
ATOM     21  C   UNL     1       2.265   7.347  18.888  0.00  0.00    +0.000 A 
ATOM     22  F   UNL     1       2.585   8.612  18.586  0.00  0.00    +0.000 F 
ATOM     23  C   UNL     1       2.103   6.418  17.863  0.00  0.00    +0.000 A 
ATOM     24  C   UNL     1       1.807   5.089  18.172  0.00  0.00    +0.000 A 
ENDBRANCH  16  18
ENDBRANCH   1  16
TORSDOF 3
ENDMDL
MODEL 5
REMARK VINA RESULT:      -7.2      3.185      3.788
REMARK  Name = 
REMARK  3 active torsions:
REMARK  status: ('A' for Active; 'I' for Inactive)
REMARK    1  A    between atoms: S_2  and  C_4
REMARK    2  A    between atoms: S_2  and  N_11
REMARK    3  A    between atoms: N_14  and  C_15
REMARK                            x       y       z     vdW  Elec       q    Type
REMARK                         _______ _______ _______ _____ _____    ______ ____
ROOT
ATOM      1  N   UNL     1       2.786   7.338  19.246  0.00  0.00    +0.000 NA
ATOM      2  C   UNL     1       2.875   8.256  18.055  0.00  0.00    +0.000 C 
ATOM      3  C   UNL     1       1.495   8.815  17.618  0.00  0.00    +0.000 C 
ATOM      4  N   UNL     1       0.864   9.461  18.787  0.00  0.00    +0.000 N 
ATOM      5  C   UNL     1       0.598   8.465  19.848  0.00  0.00    +0.000 C 
ATOM      6  C   UNL     1       1.949   7.921  20.349  0.00  0.00    +0.000 C 
ENDROOT
BRANCH   4   7
ATOM      7  C   UNL     1      -0.236  10.290  18.519  0.00  0.00    +0.000 A 
ATOM      8  N   UNL     1      -1.140   9.898  17.599  0.00  0.00    +0.000 NA
ATOM      9  C   UNL     1      -2.173  10.728  17.385  0.00  0.00    +0.000 A 
ATOM     10 CL   UNL     1      -3.321  10.234  16.222  0.00  0.00    +0.000 Cl
ATOM     11  N   UNL     1      -2.405  11.908  17.975  0.00  0.00    +0.000 NA
ATOM     12  C   UNL     1      -1.474  12.280  18.868  0.00  0.00    +0.000 A 
ATOM     13  C   UNL     1      -0.368  11.516  19.181  0.00  0.00    +0.000 A 
ATOM     14 BR   UNL     1       0.913  12.210  20.392  0.00  0.00    +0.000 Br
ENDBRANCH   4   7
BRANCH   1  16
ATOM     15  O   UNL     1       1.624   5.599  17.804  0.00  0.00    +0.000 OA
ATOM     16  S   UNL     1       2.540   5.695  18.922  0.00  0.00    +0.000 S 
ATOM     17  O   UNL     1       2.276   5.011  20.170  0.00  0.00    +0.000 OA
BRANCH  16  18
ATOM     18  C   UNL     1       4.147   5.143  18.384  0.00  0.00    +0.000 A 
ATOM     19  C   UNL     1       4.283   4.604  17.097  0.00  0.00    +0.000 A 
ATOM     20  C   UNL     1       5.554   4.288  16.613  0.00  0.00    +0.000 A 
ATOM     21  C   UNL     1       6.670   4.513  17.415  0.00  0.00    +0.000 A 
ATOM     22  F   UNL     1       7.891   4.245  16.934  0.00  0.00    +0.000 F 
ATOM     23  C   UNL     1       6.538   5.030  18.701  0.00  0.00    +0.000 A 
ATOM     24  C   UNL     1       5.271   5.348  19.195  0.00  0.00    +0.000 A 
ENDBRANCH  16  18
ENDBRANCH   1  16
TORSDOF 3
ENDMDL
MODEL 6
REMARK VINA RESULT:      -7.2      2.553      3.276
REMARK  Name = 
REMARK  3 active torsions:
REMARK  status: ('A' for Active; 'I' for Inactive)
REMARK    1  A    between atoms: S_2  and  C_4
REMARK    2  A    between atoms: S_2  and  N_11
REMARK    3  A    between atoms: N_14  and  C_15
REMARK                            x       y       z     vdW  Elec       q    Type
REMARK                         _______ _______ _______ _____ _____    ______ ____
ROOT
ATOM      1  N   UNL     1       5.543   4.391  17.122  0.00  0.00    +0.000 NA
ATOM      2  C   UNL     1       5.350   4.157  18.597  0.00  0.00    +0.000 C 
ATOM      3  C   UNL     1       4.723   5.375  19.326  0.00  0.00    +0.000 C 
ATOM      4  N   UNL     1       3.465   5.732  18.638  0.00  0.00    +0.000 N 
ATOM      5  C   UNL     1       3.739   6.166  17.250  0.00  0.00    +0.000 C 
ATOM      6  C   UNL     1       4.316   4.967  16.475  0.00  0.00    +0.000 C 
ENDROOT
BRANCH   4   7
ATOM      7  C   UNL     1       2.605   6.599  19.328  0.00  0.00    +0.000 A 
ATOM      8  N   UNL     1       2.466   7.866  18.891  0.00  0.00    +0.000 NA
ATOM      9  C   UNL     1       1.628   8.651  19.588  0.00  0.00    +0.000 A 
ATOM     10 CL   UNL     1       1.448  10.255  19.034  0.00  0.00    +0.000 Cl
ATOM     11  N   UNL     1       0.921   8.322  20.676  0.00  0.00    +0.000 NA
ATOM     12  C   UNL     1       1.101   7.060  21.100  0.00  0.00    +0.000 A 
ATOM     13  C   UNL     1       1.930   6.154  20.470  0.00  0.00    +0.000 A 
ATOM     14 BR   UNL     1       2.158   4.436  21.236  0.00  0.00    +0.000 Br
ENDBRANCH   4   7
BRANCH   1  16
ATOM     15  O   UNL     1       8.075   4.343  17.315  0.00  0.00    +0.000 OA
ATOM     16  S   UNL     1       7.017   5.074  16.648  0.00  0.00    +0.000 S 
ATOM     17  O   UNL     1       6.917   6.514  16.755  0.00  0.00    +0.000 OA
BRANCH  16  18
ATOM     18  C   UNL     1       7.091   4.710  14.905  0.00  0.00    +0.000 A 
ATOM     19  C   UNL     1       6.211   3.757  14.373  0.00  0.00    +0.000 A 
ATOM     20  C   UNL     1       6.166   3.556  12.993  0.00  0.00    +0.000 A 
ATOM     21  C   UNL     1       6.995   4.303  12.162  0.00  0.00    +0.000 A 
ATOM     22  F   UNL     1       6.923   4.135  10.834  0.00  0.00    +0.000 F 
ATOM     23  C   UNL     1       7.885   5.237  12.686  0.00  0.00    +0.000 A 
ATOM     24  C   UNL     1       7.938   5.445  14.067  0.00  0.00    +0.000 A 
ENDBRANCH  16  18
ENDBRANCH   1  16
TORSDOF 3
ENDMDL
MODEL 7
REMARK VINA RESULT:      -7.1      3.521      4.974
REMARK  Name = 
REMARK  3 active torsions:
REMARK  status: ('A' for Active; 'I' for Inactive)
REMARK    1  A    between atoms: S_2  and  C_4
REMARK    2  A    between atoms: S_2  and  N_11
REMARK    3  A    between atoms: N_14  and  C_15
REMARK                            x       y       z     vdW  Elec       q    Type
REMARK                         _______ _______ _______ _____ _____    ______ ____
ROOT
ATOM      1  N   UNL     1       6.701   4.161  15.878  0.00  0.00    +0.000 NA
ATOM      2  C   UNL     1       7.095   4.783  17.193  0.00  0.00    +0.000 C 
ATOM      3  C   UNL     1       5.890   5.390  17.958  0.00  0.00    +0.000 C 
ATOM      4  N   UNL     1       4.859   4.343  18.111  0.00  0.00    +0.000 N 
ATOM      5  C   UNL     1       4.349   3.922  16.788  0.00  0.00    +0.000 C 
ATOM      6  C   UNL     1       5.505   3.264  16.012  0.00  0.00    +0.000 C 
ENDROOT
BRANCH   4   7
ATOM      7  C   UNL     1       3.840   4.606  19.038  0.00  0.00    +0.000 A 
ATOM      8  N   UNL     1       3.488   3.642  19.913  0.00  0.00    +0.000 NA
ATOM      9  C   UNL     1       2.509   3.950  20.778  0.00  0.00    +0.000 A 
ATOM     10 CL   UNL     1       2.063   2.732  21.889  0.00  0.00    +0.000 Cl
ATOM     11  N   UNL     1       1.832   5.102  20.867  0.00  0.00    +0.000 NA
ATOM     12  C   UNL     1       2.190   6.032  19.966  0.00  0.00    +0.000 A 
ATOM     13  C   UNL     1       3.184   5.842  19.027  0.00  0.00    +0.000 A 
ATOM     14 BR   UNL     1       3.517   7.208  17.758  0.00  0.00    +0.000 Br
ENDBRANCH   4   7
BRANCH   1  16
ATOM     15  O   UNL     1       8.069   5.666  14.356  0.00  0.00    +0.000 OA
ATOM     16  S   UNL     1       6.717   5.176  14.524  0.00  0.00    +0.000 S 
ATOM     17  O   UNL     1       5.595   6.088  14.615  0.00  0.00    +0.000 OA
BRANCH  16  18
ATOM     18  C   UNL     1       6.345   4.066  13.180  0.00  0.00    +0.000 A 
ATOM     19  C   UNL     1       7.401   3.409  12.532  0.00  0.00    +0.000 A 
ATOM     20  C   UNL     1       7.121   2.440  11.568  0.00  0.00    +0.000 A 
ATOM     21  C   UNL     1       5.797   2.137  11.262  0.00  0.00    +0.000 A 
ATOM     22  F   UNL     1       5.530   1.180  10.363  0.00  0.00    +0.000 F 
ATOM     23  C   UNL     1       4.745   2.800  11.889  0.00  0.00    +0.000 A 
ATOM     24  C   UNL     1       5.015   3.773  12.855  0.00  0.00    +0.000 A 
ENDBRANCH  16  18
ENDBRANCH   1  16
TORSDOF 3
ENDMDL
MODEL 8
REMARK VINA RESULT:      -7.1      4.786      6.997
REMARK  Name = 
REMARK  3 active torsions:
REMARK  status: ('A' for Active; 'I' for Inactive)
REMARK    1  A    between atoms: S_2  and  C_4
REMARK    2  A    between atoms: S_2  and  N_11
REMARK    3  A    between atoms: N_14  and  C_15
REMARK                            x       y       z     vdW  Elec       q    Type
REMARK                         _______ _______ _______ _____ _____    ______ ____
ROOT
ATOM      1  N   UNL     1       2.978   2.301  19.538  0.00  0.00    +0.000 NA
ATOM      2  C   UNL     1       3.138   1.747  18.146  0.00  0.00    +0.000 C 
ATOM      3  C   UNL     1       3.713   2.784  17.146  0.00  0.00    +0.000 C 
ATOM      4  N   UNL     1       4.979   3.310  17.696  0.00  0.00    +0.000 N 
ATOM      5  C   UNL     1       4.731   4.037  18.961  0.00  0.00    +0.000 C 
ATOM      6  C   UNL     1       4.207   3.030  20.002  0.00  0.00    +0.000 C 
ENDROOT
BRANCH   4   7
ATOM      7  C   UNL     1       5.798   4.017  16.804  0.00  0.00    +0.000 A 
ATOM      8  N   UNL     1       5.778   3.688  15.497  0.00  0.00    +0.000 NA
ATOM      9  C   UNL     1       6.579   4.399  14.689  0.00  0.00    +0.000 A 
ATOM     10 CL   UNL     1       6.552   3.986  13.033  0.00  0.00    +0.000 Cl
ATOM     11  N   UNL     1       7.406   5.395  15.032  0.00  0.00    +0.000 NA
ATOM     12  C   UNL     1       7.421   5.682  16.345  0.00  0.00    +0.000 A 
ATOM     13  C   UNL     1       6.642   5.028  17.278  0.00  0.00    +0.000 A 
ATOM     14 BR   UNL     1       6.837   5.475  19.108  0.00  0.00    +0.000 Br
ENDBRANCH   4   7
BRANCH   1  16
ATOM     15  O   UNL     1       1.248   2.866  21.311  0.00  0.00    +0.000 OA
ATOM     16  S   UNL     1       1.500   3.044  19.895  0.00  0.00    +0.000 S 
ATOM     17  O   UNL     1       0.526   2.638  18.904  0.00  0.00    +0.000 OA
BRANCH  16  18
ATOM     18  C   UNL     1       1.828   4.769  19.591  0.00  0.00    +0.000 A 
ATOM     19  C   UNL     1       1.923   5.217  18.266  0.00  0.00    +0.000 A 
ATOM     20  C   UNL     1       2.048   6.583  18.008  0.00  0.00    +0.000 A 
ATOM     21  C   UNL     1       2.077   7.483  19.070  0.00  0.00    +0.000 A 
ATOM     22  F   UNL     1       2.160   8.796  18.819  0.00  0.00    +0.000 F 
ATOM     23  C   UNL     1       2.003   7.041  20.389  0.00  0.00    +0.000 A 
ATOM     24  C   UNL     1       1.878   5.676  20.656  0.00  0.00    +0.000 A 
ENDBRANCH  16  18
ENDBRANCH   1  16
TORSDOF 3
ENDMDL
MODEL 9
REMARK VINA RESULT:      -7.1      3.518      4.877
REMARK  Name = 
REMARK  3 active torsions:
REMARK  status: ('A' for Active; 'I' for Inactive)
REMARK    1  A    between atoms: S_2  and  C_4
REMARK    2  A    between atoms: S_2  and  N_11
REMARK    3  A    between atoms: N_14  and  C_15
REMARK                            x       y       z     vdW  Elec       q    Type
REMARK                         _______ _______ _______ _____ _____    ______ ____
ROOT
ATOM      1  N   UNL     1       6.733   4.404  16.074  0.00  0.00    +0.000 NA
ATOM      2  C   UNL     1       7.078   5.159  17.331  0.00  0.00    +0.000 C 
ATOM      3  C   UNL     1       5.839   5.798  18.011  0.00  0.00    +0.000 C 
ATOM      4  N   UNL     1       4.837   4.738  18.243  0.00  0.00    +0.000 N 
ATOM      5  C   UNL     1       4.369   4.177  16.956  0.00  0.00    +0.000 C 
ATOM      6  C   UNL     1       5.561   3.485  16.269  0.00  0.00    +0.000 C 
ENDROOT
BRANCH   4   7
ATOM      7  C   UNL     1       3.789   5.055  19.121  0.00  0.00    +0.000 A 
ATOM      8  N   UNL     1       3.292   6.307  19.118  0.00  0.00    +0.000 NA
ATOM      9  C   UNL     1       2.289   6.553  19.976  0.00  0.00    +0.000 A 
ATOM     10 CL   UNL     1       1.654   8.138  19.972  0.00  0.00    +0.000 Cl
ATOM     11  N   UNL     1       1.731   5.699  20.844  0.00  0.00    +0.000 NA
ATOM     12  C   UNL     1       2.267   4.467  20.839  0.00  0.00    +0.000 A 
ATOM     13  C   UNL     1       3.297   4.086  20.003  0.00  0.00    +0.000 A 
ATOM     14 BR   UNL     1       4.015   2.341  20.171  0.00  0.00    +0.000 Br
ENDBRANCH   4   7
BRANCH   1  16
ATOM     15  O   UNL     1       8.122   5.649  14.350  0.00  0.00    +0.000 OA
ATOM     16  S   UNL     1       6.749   5.286  14.629  0.00  0.00    +0.000 S 
ATOM     17  O   UNL     1       5.705   6.288  14.687  0.00  0.00    +0.000 OA
BRANCH  16  18
ATOM     18  C   UNL     1       6.221   4.090  13.418  0.00  0.00    +0.000 A 
ATOM     19  C   UNL     1       4.861   4.012  13.090  0.00  0.00    +0.000 A 
ATOM     20  C   UNL     1       4.449   3.174  12.052  0.00  0.00    +0.000 A 
ATOM     21  C   UNL     1       5.395   2.428  11.355  0.00  0.00    +0.000 A 
ATOM     22  F   UNL     1       5.002   1.654  10.334  0.00  0.00    +0.000 F 
ATOM     23  C   UNL     1       6.746   2.487  11.689  0.00  0.00    +0.000 A 
ATOM     24  C   UNL     1       7.167   3.322  12.728  0.00  0.00    +0.000 A 
ENDBRANCH  16  18
ENDBRANCH   1  16
TORSDOF 3
ENDMDL
