MODEL 1
REMARK VINA RESULT:      -8.3      0.000      0.000
REMARK  Name = 
REMARK  7 active torsions:
REMARK  status: ('A' for Active; 'I' for Inactive)
REMARK    1  A    between atoms: C_1  and  C_2
REMARK    2  A    between atoms: C_7  and  C_8
REMARK    3  A    between atoms: C_13  and  C_14
REMARK    4  A    between atoms: C_14  and  C_15
REMARK    5  A    between atoms: C_15  and  N_16
REMARK    6  A    between atoms: N_16  and  S_17
REMARK    7  A    between atoms: S_17  and  C_20
REMARK                            x       y       z     vdW  Elec       q    Type
REMARK                         _______ _______ _______ _____ _____    ______ ____
ROOT
ATOM      1  C   UNL     1       1.920   6.930  20.259  0.00  0.00    +0.000 A 
ATOM      2  N   UNL     1       1.166   6.004  20.969  0.00  0.00    +0.000 NA
ATOM      3  C   UNL     1       1.806   4.901  20.740  0.00  0.00    +0.000 A 
ATOM      4  S   UNL     1       1.570   3.247  21.175  0.00  0.00    +0.000 S 
ATOM      5  C   UNL     1       3.014   2.847  20.245  0.00  0.00    +0.000 A 
ATOM      6  C   UNL     1       3.607   3.917  19.672  0.00  0.00    +0.000 A 
ATOM      7  N   UNL     1       2.907   5.089  19.954  0.00  0.00    +0.000 N 
ATOM      8  N   UNL     1       3.004   6.399  19.641  0.00  0.00    +0.000 NA
ENDROOT
BRANCH   1  15
ATOM      9  C   UNL     1       1.788   8.620  17.689  0.00  0.00    +0.000 C 
ATOM     10  C   UNL     1       1.408   9.131  19.052  0.00  0.00    +0.000 A 
ATOM     11  C   UNL     1       0.938  10.460  19.146  0.00  0.00    +0.000 A 
ATOM     12  C   UNL     1       0.541  11.008  20.365  0.00  0.00    +0.000 A 
ATOM     13  C   UNL     1       0.615  10.240  21.518  0.00  0.00    +0.000 A 
ATOM     14  C   UNL     1       1.084   8.927  21.442  0.00  0.00    +0.000 A 
ATOM     15  C   UNL     1       1.485   8.340  20.219  0.00  0.00    +0.000 A 
ENDBRANCH   1  15
BRANCH   6  16
ATOM     16  C   UNL     1       4.870   3.836  18.867  0.00  0.00    +0.000 C 
BRANCH  16  17
ATOM     17  C   UNL     1       4.729   3.806  17.341  0.00  0.00    +0.000 C 
BRANCH  17  18
ATOM     18  N   UNL     1       6.065   3.969  16.733  0.00  0.00    +0.000 NA
ATOM     19  H   UNL     1       6.476   3.161  16.262  0.00  0.00    +0.000 HD
BRANCH  18  20
ATOM     20  S   UNL     1       6.332   5.353  15.802  0.00  0.00    +0.000 S 
ATOM     21  O   UNL     1       5.109   6.121  15.862  0.00  0.00    +0.000 OA
ATOM     22  O   UNL     1       7.597   5.912  16.225  0.00  0.00    +0.000 OA
BRANCH  20  23
ATOM     23  C   UNL     1       6.497   4.716  14.159  0.00  0.00    +0.000 A 
ATOM     24  C   UNL     1       7.522   5.193  13.335  0.00  0.00    +0.000 A 
ATOM     25  C   UNL     1       7.655   4.678  12.044  0.00  0.00    +0.000 A 
ATOM     26  C   UNL     1       6.779   3.694  11.588  0.00  0.00    +0.000 A 
ATOM     27  C   UNL     1       5.762   3.217  12.418  0.00  0.00    +0.000 A 
ATOM     28  C   UNL     1       5.616   3.726  13.708  0.00  0.00    +0.000 A 
ENDBRANCH  20  23
ENDBRANCH  18  20
ENDBRANCH  17  18
ENDBRANCH  16  17
ENDBRANCH   6  16
TORSDOF 6
ENDMDL
MODEL 2
REMARK VINA RESULT:      -8.3      2.272      3.024
REMARK  Name = 
REMARK  7 active torsions:
REMARK  status: ('A' for Active; 'I' for Inactive)
REMARK    1  A    between atoms: C_1  and  C_2
REMARK    2  A    between atoms: C_7  and  C_8
REMARK    3  A    between atoms: C_13  and  C_14
REMARK    4  A    between atoms: C_14  and  C_15
REMARK    5  A    between atoms: C_15  and  N_16
REMARK    6  A    between atoms: N_16  and  S_17
REMARK    7  A    between atoms: S_17  and  C_20
REMARK                            x       y       z     vdW  Elec       q    Type
REMARK                         _______ _______ _______ _____ _____    ______ ____
ROOT
ATOM      1  C   UNL     1       1.992   6.673  20.217  0.00  0.00    +0.000 A 
ATOM      2  N   UNL     1       1.254   5.815  21.023  0.00  0.00    +0.000 NA
ATOM      3  C   UNL     1       1.815   4.671  20.785  0.00  0.00    +0.000 A 
ATOM      4  S   UNL     1       1.532   3.049  21.302  0.00  0.00    +0.000 S 
ATOM      5  C   UNL     1       2.868   2.538  20.271  0.00  0.00    +0.000 A 
ATOM      6  C   UNL     1       3.465   3.554  19.609  0.00  0.00    +0.000 A 
ATOM      7  N   UNL     1       2.853   4.771  19.903  0.00  0.00    +0.000 N 
ATOM      8  N   UNL     1       2.990   6.062  19.531  0.00  0.00    +0.000 NA
ENDROOT
BRANCH   1  15
ATOM      9  C   UNL     1       1.959   8.338  17.626  0.00  0.00    +0.000 C 
ATOM     10  C   UNL     1       1.598   8.883  18.981  0.00  0.00    +0.000 A 
ATOM     11  C   UNL     1       1.195  10.234  19.058  0.00  0.00    +0.000 A 
ATOM     12  C   UNL     1       0.819  10.816  20.268  0.00  0.00    +0.000 A 
ATOM     13  C   UNL     1       0.848  10.059  21.430  0.00  0.00    +0.000 A 
ATOM     14  C   UNL     1       1.251   8.723  21.372  0.00  0.00    +0.000 A 
ATOM     15  C   UNL     1       1.628   8.102  20.158  0.00  0.00    +0.000 A 
ENDBRANCH   1  15
BRANCH   6  16
ATOM     16  C   UNL     1       4.648   3.376  18.705  0.00  0.00    +0.000 C 
BRANCH  16  17
ATOM     17  C   UNL     1       4.393   3.428  17.195  0.00  0.00    +0.000 C 
BRANCH  17  18
ATOM     18  N   UNL     1       4.459   4.833  16.746  0.00  0.00    +0.000 NA
ATOM     19  H   UNL     1       4.234   5.561  17.425  0.00  0.00    +0.000 HD
BRANCH  18  20
ATOM     20  S   UNL     1       5.814   5.301  15.853  0.00  0.00    +0.000 S 
ATOM     21  O   UNL     1       6.476   4.079  15.456  0.00  0.00    +0.000 OA
ATOM     22  O   UNL     1       5.366   6.270  14.876  0.00  0.00    +0.000 OA
BRANCH  20  23
ATOM     23  C   UNL     1       6.835   6.111  17.051  0.00  0.00    +0.000 A 
ATOM     24  C   UNL     1       7.128   7.471  16.900  0.00  0.00    +0.000 A 
ATOM     25  C   UNL     1       7.923   8.107  17.855  0.00  0.00    +0.000 A 
ATOM     26  C   UNL     1       8.411   7.394  18.949  0.00  0.00    +0.000 A 
ATOM     27  C   UNL     1       8.110   6.038  19.097  0.00  0.00    +0.000 A 
ATOM     28  C   UNL     1       7.319   5.390  18.149  0.00  0.00    +0.000 A 
ENDBRANCH  20  23
ENDBRANCH  18  20
ENDBRANCH  17  18
ENDBRANCH  16  17
ENDBRANCH   6  16
TORSDOF 6
ENDMDL
MODEL 3
REMARK VINA RESULT:      -8.3      0.745      1.237
REMARK  Name = 
REMARK  7 active torsions:
REMARK  status: ('A' for Active; 'I' for Inactive)
REMARK    1  A    between atoms: C_1  and  C_2
REMARK    2  A    between atoms: C_7  and  C_8
REMARK    3  A    between atoms: C_13  and  C_14
REMARK    4  A    between atoms: C_14  and  C_15
REMARK    5  A    between atoms: C_15  and  N_16
REMARK    6  A    between atoms: N_16  and  S_17
REMARK    7  A    between atoms: S_17  and  C_20
REMARK                            x       y       z     vdW  Elec       q    Type
REMARK                         _______ _______ _______ _____ _____    ______ ____
ROOT
ATOM      1  C   UNL     1       2.038   6.674  20.259  0.00  0.00    +0.000 A 
ATOM      2  N   UNL     1       1.307   5.808  21.064  0.00  0.00    +0.000 NA
ATOM      3  C   UNL     1       1.902   4.677  20.853  0.00  0.00    +0.000 A 
ATOM      4  S   UNL     1       1.652   3.055  21.389  0.00  0.00    +0.000 S 
ATOM      5  C   UNL     1       3.020   2.565  20.391  0.00  0.00    +0.000 A 
ATOM      6  C   UNL     1       3.603   3.586  19.725  0.00  0.00    +0.000 A 
ATOM      7  N   UNL     1       2.953   4.792  19.989  0.00  0.00    +0.000 N 
ATOM      8  N   UNL     1       3.064   6.080  19.601  0.00  0.00    +0.000 NA
ENDROOT
BRANCH   1  15
ATOM      9  C   UNL     1       2.136   8.337  17.669  0.00  0.00    +0.000 C 
ATOM     10  C   UNL     1       1.667   8.872  18.994  0.00  0.00    +0.000 A 
ATOM     11  C   UNL     1       1.220  10.211  19.040  0.00  0.00    +0.000 A 
ATOM     12  C   UNL     1       0.745  10.782  20.221  0.00  0.00    +0.000 A 
ATOM     13  C   UNL     1       0.715  10.026  21.383  0.00  0.00    +0.000 A 
ATOM     14  C   UNL     1       1.160   8.702  21.356  0.00  0.00    +0.000 A 
ATOM     15  C   UNL     1       1.638   8.092  20.172  0.00  0.00    +0.000 A 
ENDBRANCH   1  15
BRANCH   6  16
ATOM     16  C   UNL     1       4.807   3.427  18.846  0.00  0.00    +0.000 C 
BRANCH  16  17
ATOM     17  C   UNL     1       5.666   4.671  18.598  0.00  0.00    +0.000 C 
BRANCH  17  18
ATOM     18  N   UNL     1       5.634   4.998  17.159  0.00  0.00    +0.000 NA
ATOM     19  H   UNL     1       4.937   5.671  16.838  0.00  0.00    +0.000 HD
BRANCH  18  20
ATOM     20  S   UNL     1       7.110   5.318  16.401  0.00  0.00    +0.000 S 
ATOM     21  O   UNL     1       7.248   6.756  16.379  0.00  0.00    +0.000 OA
ATOM     22  O   UNL     1       8.102   4.472  17.030  0.00  0.00    +0.000 OA
BRANCH  20  23
ATOM     23  C   UNL     1       6.845   4.767  14.740  0.00  0.00    +0.000 A 
ATOM     24  C   UNL     1       5.733   3.970  14.447  0.00  0.00    +0.000 A 
ATOM     25  C   UNL     1       5.522   3.549  13.133  0.00  0.00    +0.000 A 
ATOM     26  C   UNL     1       6.408   3.929  12.125  0.00  0.00    +0.000 A 
ATOM     27  C   UNL     1       7.512   4.730  12.422  0.00  0.00    +0.000 A 
ATOM     28  C   UNL     1       7.736   5.155  13.732  0.00  0.00    +0.000 A 
ENDBRANCH  20  23
ENDBRANCH  18  20
ENDBRANCH  17  18
ENDBRANCH  16  17
ENDBRANCH   6  16
TORSDOF 6
ENDMDL
MODEL 4
REMARK VINA RESULT:      -8.3      2.181      3.085
REMARK  Name = 
REMARK  7 active torsions:
REMARK  status: ('A' for Active; 'I' for Inactive)
REMARK    1  A    between atoms: C_1  and  C_2
REMARK    2  A    between atoms: C_7  and  C_8
REMARK    3  A    between atoms: C_13  and  C_14
REMARK    4  A    between atoms: C_14  and  C_15
REMARK    5  A    between atoms: C_15  and  N_16
REMARK    6  A    between atoms: N_16  and  S_17
REMARK    7  A    between atoms: S_17  and  C_20
REMARK                            x       y       z     vdW  Elec       q    Type
REMARK                         _______ _______ _______ _____ _____    ______ ____
ROOT
ATOM      1  C   UNL     1       2.067   6.663  20.150  0.00  0.00    +0.000 A 
ATOM      2  N   UNL     1       1.411   5.814  21.032  0.00  0.00    +0.000 NA
ATOM      3  C   UNL     1       2.000   4.682  20.806  0.00  0.00    +0.000 A 
ATOM      4  S   UNL     1       1.810   3.073  21.402  0.00  0.00    +0.000 S 
ATOM      5  C   UNL     1       3.102   2.569  20.314  0.00  0.00    +0.000 A 
ATOM      6  C   UNL     1       3.620   3.577  19.578  0.00  0.00    +0.000 A 
ATOM      7  N   UNL     1       2.980   4.783  19.860  0.00  0.00    +0.000 N 
ATOM      8  N   UNL     1       3.046   6.062  19.431  0.00  0.00    +0.000 NA
ENDROOT
BRANCH   1  15
ATOM      9  C   UNL     1       2.255   8.353  17.583  0.00  0.00    +0.000 C 
ATOM     10  C   UNL     1       1.715   8.866  18.889  0.00  0.00    +0.000 A 
ATOM     11  C   UNL     1       1.243  10.197  18.926  0.00  0.00    +0.000 A 
ATOM     12  C   UNL     1       0.703  10.748  20.088  0.00  0.00    +0.000 A 
ATOM     13  C   UNL     1       0.633   9.980  21.241  0.00  0.00    +0.000 A 
ATOM     14  C   UNL     1       1.102   8.665  21.223  0.00  0.00    +0.000 A 
ATOM     15  C   UNL     1       1.646   8.075  20.058  0.00  0.00    +0.000 A 
ENDBRANCH   1  15
BRANCH   6  16
ATOM     16  C   UNL     1       4.754   3.404  18.612  0.00  0.00    +0.000 C 
BRANCH  16  17
ATOM     17  C   UNL     1       4.492   3.771  17.147  0.00  0.00    +0.000 C 
BRANCH  17  18
ATOM     18  N   UNL     1       5.747   3.628  16.385  0.00  0.00    +0.000 NA
ATOM     19  H   UNL     1       5.832   2.833  15.750  0.00  0.00    +0.000 HD
BRANCH  18  20
ATOM     20  S   UNL     1       6.362   5.011  15.633  0.00  0.00    +0.000 S 
ATOM     21  O   UNL     1       7.407   4.556  14.745  0.00  0.00    +0.000 OA
ATOM     22  O   UNL     1       5.229   5.766  15.143  0.00  0.00    +0.000 OA
BRANCH  20  23
ATOM     23  C   UNL     1       7.121   5.898  16.964  0.00  0.00    +0.000 A 
ATOM     24  C   UNL     1       7.531   5.205  18.108  0.00  0.00    +0.000 A 
ATOM     25  C   UNL     1       8.140   5.907  19.149  0.00  0.00    +0.000 A 
ATOM     26  C   UNL     1       8.344   7.283  19.042  0.00  0.00    +0.000 A 
ATOM     27  C   UNL     1       7.938   7.967  17.894  0.00  0.00    +0.000 A 
ATOM     28  C   UNL     1       7.325   7.278  16.848  0.00  0.00    +0.000 A 
ENDBRANCH  20  23
ENDBRANCH  18  20
ENDBRANCH  17  18
ENDBRANCH  16  17
ENDBRANCH   6  16
TORSDOF 6
ENDMDL
MODEL 5
REMARK VINA RESULT:      -8.3      2.309      3.296
REMARK  Name = 
REMARK  7 active torsions:
REMARK  status: ('A' for Active; 'I' for Inactive)
REMARK    1  A    between atoms: C_1  and  C_2
REMARK    2  A    between atoms: C_7  and  C_8
REMARK    3  A    between atoms: C_13  and  C_14
REMARK    4  A    between atoms: C_14  and  C_15
REMARK    5  A    between atoms: C_15  and  N_16
REMARK    6  A    between atoms: N_16  and  S_17
REMARK    7  A    between atoms: S_17  and  C_20
REMARK                            x       y       z     vdW  Elec       q    Type
REMARK                         _______ _______ _______ _____ _____    ______ ____
ROOT
ATOM      1  C   UNL     1       2.151   6.704  19.820  0.00  0.00    +0.000 A 
ATOM      2  N   UNL     1       1.530   6.018  20.857  0.00  0.00    +0.000 NA
ATOM      3  C   UNL     1       2.076   4.846  20.770  0.00  0.00    +0.000 A 
ATOM      4  S   UNL     1       1.883   3.352  21.612  0.00  0.00    +0.000 S 
ATOM      5  C   UNL     1       3.092   2.647  20.540  0.00  0.00    +0.000 A 
ATOM      6  C   UNL     1       3.587   3.516  19.631  0.00  0.00    +0.000 A 
ATOM      7  N   UNL     1       2.996   4.771  19.764  0.00  0.00    +0.000 N 
ATOM      8  N   UNL     1       3.068   5.969  19.144  0.00  0.00    +0.000 NA
ENDROOT
BRANCH   1  15
ATOM      9  C   UNL     1       0.927   8.604  21.912  0.00  0.00    +0.000 C 
ATOM     10  C   UNL     1       1.206   8.991  20.485  0.00  0.00    +0.000 A 
ATOM     11  C   UNL     1       0.910  10.316  20.096  0.00  0.00    +0.000 A 
ATOM     12  C   UNL     1       1.159  10.769  18.800  0.00  0.00    +0.000 A 
ATOM     13  C   UNL     1       1.701   9.901  17.865  0.00  0.00    +0.000 A 
ATOM     14  C   UNL     1       1.992   8.585  18.231  0.00  0.00    +0.000 A 
ATOM     15  C   UNL     1       1.760   8.100  19.540  0.00  0.00    +0.000 A 
ENDBRANCH   1  15
BRANCH   6  16
ATOM     16  C   UNL     1       4.654   3.162  18.638  0.00  0.00    +0.000 C 
BRANCH  16  17
ATOM     17  C   UNL     1       4.290   3.256  17.152  0.00  0.00    +0.000 C 
BRANCH  17  18
ATOM     18  N   UNL     1       4.436   4.657  16.710  0.00  0.00    +0.000 NA
ATOM     19  H   UNL     1       4.236   5.394  17.388  0.00  0.00    +0.000 HD
BRANCH  18  20
ATOM     20  S   UNL     1       5.830   5.058  15.844  0.00  0.00    +0.000 S 
ATOM     21  O   UNL     1       6.484   3.807  15.532  0.00  0.00    +0.000 OA
ATOM     22  O   UNL     1       5.434   5.984  14.806  0.00  0.00    +0.000 OA
BRANCH  20  23
ATOM     23  C   UNL     1       6.822   5.911  17.037  0.00  0.00    +0.000 A 
ATOM     24  C   UNL     1       7.067   7.279  16.878  0.00  0.00    +0.000 A 
ATOM     25  C   UNL     1       7.839   7.949  17.829  0.00  0.00    +0.000 A 
ATOM     26  C   UNL     1       8.353   7.260  18.926  0.00  0.00    +0.000 A 
ATOM     27  C   UNL     1       8.100   5.895  19.083  0.00  0.00    +0.000 A 
ATOM     28  C   UNL     1       7.333   5.214  18.139  0.00  0.00    +0.000 A 
ENDBRANCH  20  23
ENDBRANCH  18  20
ENDBRANCH  17  18
ENDBRANCH  16  17
ENDBRANCH   6  16
TORSDOF 6
ENDMDL
MODEL 6
REMARK VINA RESULT:      -8.1      2.211      3.378
REMARK  Name = 
REMARK  7 active torsions:
REMARK  status: ('A' for Active; 'I' for Inactive)
REMARK    1  A    between atoms: C_1  and  C_2
REMARK    2  A    between atoms: C_7  and  C_8
REMARK    3  A    between atoms: C_13  and  C_14
REMARK    4  A    between atoms: C_14  and  C_15
REMARK    5  A    between atoms: C_15  and  N_16
REMARK    6  A    between atoms: N_16  and  S_17
REMARK    7  A    between atoms: S_17  and  C_20
REMARK                            x       y       z     vdW  Elec       q    Type
REMARK                         _______ _______ _______ _____ _____    ______ ____
ROOT
ATOM      1  C   UNL     1       2.184   6.792  19.723  0.00  0.00    +0.000 A 
ATOM      2  N   UNL     1       1.602   6.091  20.772  0.00  0.00    +0.000 NA
ATOM      3  C   UNL     1       2.152   4.924  20.654  0.00  0.00    +0.000 A 
ATOM      4  S   UNL     1       1.997   3.419  21.485  0.00  0.00    +0.000 S 
ATOM      5  C   UNL     1       3.174   2.734  20.366  0.00  0.00    +0.000 A 
ATOM      6  C   UNL     1       3.635   3.616  19.451  0.00  0.00    +0.000 A 
ATOM      7  N   UNL     1       3.040   4.866  19.618  0.00  0.00    +0.000 N 
ATOM      8  N   UNL     1       3.083   6.071  19.009  0.00  0.00    +0.000 NA
ENDROOT
BRANCH   1  15
ATOM      9  C   UNL     1       0.753   8.569  21.791  0.00  0.00    +0.000 C 
ATOM     10  C   UNL     1       1.126   9.024  20.407  0.00  0.00    +0.000 A 
ATOM     11  C   UNL     1       0.822  10.356  20.051  0.00  0.00    +0.000 A 
ATOM     12  C   UNL     1       1.154  10.870  18.797  0.00  0.00    +0.000 A 
ATOM     13  C   UNL     1       1.789  10.057  17.871  0.00  0.00    +0.000 A 
ATOM     14  C   UNL     1       2.090   8.735  18.205  0.00  0.00    +0.000 A 
ATOM     15  C   UNL     1       1.775   8.188  19.471  0.00  0.00    +0.000 A 
ENDBRANCH   1  15
BRANCH   6  16
ATOM     16  C   UNL     1       4.671   3.281  18.421  0.00  0.00    +0.000 C 
BRANCH  16  17
ATOM     17  C   UNL     1       4.469   3.848  17.011  0.00  0.00    +0.000 C 
BRANCH  17  18
ATOM     18  N   UNL     1       5.719   3.682  16.244  0.00  0.00    +0.000 NA
ATOM     19  H   UNL     1       5.766   2.918  15.569  0.00  0.00    +0.000 HD
BRANCH  18  20
ATOM     20  S   UNL     1       6.404   5.070  15.566  0.00  0.00    +0.000 S 
ATOM     21  O   UNL     1       7.463   4.612  14.695  0.00  0.00    +0.000 OA
ATOM     22  O   UNL     1       5.314   5.882  15.069  0.00  0.00    +0.000 OA
BRANCH  20  23
ATOM     23  C   UNL     1       7.148   5.879  16.953  0.00  0.00    +0.000 A 
ATOM     24  C   UNL     1       7.546   5.122  18.061  0.00  0.00    +0.000 A 
ATOM     25  C   UNL     1       8.143   5.764  19.147  0.00  0.00    +0.000 A 
ATOM     26  C   UNL     1       8.346   7.144  19.121  0.00  0.00    +0.000 A 
ATOM     27  C   UNL     1       7.952   7.893  18.010  0.00  0.00    +0.000 A 
ATOM     28  C   UNL     1       7.351   7.264  16.920  0.00  0.00    +0.000 A 
ENDBRANCH  20  23
ENDBRANCH  18  20
ENDBRANCH  17  18
ENDBRANCH  16  17
ENDBRANCH   6  16
TORSDOF 6
ENDMDL
MODEL 7
REMARK VINA RESULT:      -8.1      0.615      1.714
REMARK  Name = 
REMARK  7 active torsions:
REMARK  status: ('A' for Active; 'I' for Inactive)
REMARK    1  A    between atoms: C_1  and  C_2
REMARK    2  A    between atoms: C_7  and  C_8
REMARK    3  A    between atoms: C_13  and  C_14
REMARK    4  A    between atoms: C_14  and  C_15
REMARK    5  A    between atoms: C_15  and  N_16
REMARK    6  A    between atoms: N_16  and  S_17
REMARK    7  A    between atoms: S_17  and  C_20
REMARK                            x       y       z     vdW  Elec       q    Type
REMARK                         _______ _______ _______ _____ _____    ______ ____
ROOT
ATOM      1  C   UNL     1       2.226   6.640  19.769  0.00  0.00    +0.000 A 
ATOM      2  N   UNL     1       1.634   5.987  20.843  0.00  0.00    +0.000 NA
ATOM      3  C   UNL     1       2.173   4.811  20.774  0.00  0.00    +0.000 A 
ATOM      4  S   UNL     1       2.002   3.342  21.665  0.00  0.00    +0.000 S 
ATOM      5  C   UNL     1       3.175   2.602  20.577  0.00  0.00    +0.000 A 
ATOM      6  C   UNL     1       3.646   3.442  19.629  0.00  0.00    +0.000 A 
ATOM      7  N   UNL     1       3.063   4.703  19.743  0.00  0.00    +0.000 N 
ATOM      8  N   UNL     1       3.119   5.882  19.087  0.00  0.00    +0.000 NA
ENDROOT
BRANCH   1  15
ATOM      9  C   UNL     1       0.837   8.523  21.771  0.00  0.00    +0.000 C 
ATOM     10  C   UNL     1       1.202   8.913  20.365  0.00  0.00    +0.000 A 
ATOM     11  C   UNL     1       0.910  10.232  19.953  0.00  0.00    +0.000 A 
ATOM     12  C   UNL     1       1.235  10.686  18.675  0.00  0.00    +0.000 A 
ATOM     13  C   UNL     1       1.851   9.826  17.779  0.00  0.00    +0.000 A 
ATOM     14  C   UNL     1       2.140   8.516  18.168  0.00  0.00    +0.000 A 
ATOM     15  C   UNL     1       1.831   8.029  19.460  0.00  0.00    +0.000 A 
ENDBRANCH   1  15
BRANCH   6  16
ATOM     16  C   UNL     1       4.681   3.056  18.615  0.00  0.00    +0.000 C 
BRANCH  16  17
ATOM     17  C   UNL     1       4.674   3.810  17.281  0.00  0.00    +0.000 C 
BRANCH  17  18
ATOM     18  N   UNL     1       6.065   4.117  16.896  0.00  0.00    +0.000 NA
ATOM     19  H   UNL     1       6.642   3.353  16.542  0.00  0.00    +0.000 HD
BRANCH  18  20
ATOM     20  S   UNL     1       6.324   5.495  15.953  0.00  0.00    +0.000 S 
ATOM     21  O   UNL     1       5.078   6.226  15.957  0.00  0.00    +0.000 OA
ATOM     22  O   UNL     1       7.557   6.098  16.413  0.00  0.00    +0.000 OA
BRANCH  20  23
ATOM     23  C   UNL     1       6.569   4.838  14.327  0.00  0.00    +0.000 A 
ATOM     24  C   UNL     1       5.734   3.816  13.865  0.00  0.00    +0.000 A 
ATOM     25  C   UNL     1       5.923   3.310  12.577  0.00  0.00    +0.000 A 
ATOM     26  C   UNL     1       6.929   3.827  11.762  0.00  0.00    +0.000 A 
ATOM     27  C   UNL     1       7.756   4.853  12.228  0.00  0.00    +0.000 A 
ATOM     28  C   UNL     1       7.579   5.364  13.513  0.00  0.00    +0.000 A 
ENDBRANCH  20  23
ENDBRANCH  18  20
ENDBRANCH  17  18
ENDBRANCH  16  17
ENDBRANCH   6  16
TORSDOF 6
ENDMDL
MODEL 8
REMARK VINA RESULT:      -8.0      3.057      6.633
REMARK  Name = 
REMARK  7 active torsions:
REMARK  status: ('A' for Active; 'I' for Inactive)
REMARK    1  A    between atoms: C_1  and  C_2
REMARK    2  A    between atoms: C_7  and  C_8
REMARK    3  A    between atoms: C_13  and  C_14
REMARK    4  A    between atoms: C_14  and  C_15
REMARK    5  A    between atoms: C_15  and  N_16
REMARK    6  A    between atoms: N_16  and  S_17
REMARK    7  A    between atoms: S_17  and  C_20
REMARK                            x       y       z     vdW  Elec       q    Type
REMARK                         _______ _______ _______ _____ _____    ______ ____
ROOT
ATOM      1  C   UNL     1       4.208   6.791  17.571  0.00  0.00    +0.000 A 
ATOM      2  N   UNL     1       3.768   7.969  16.980  0.00  0.00    +0.000 NA
ATOM      3  C   UNL     1       2.870   8.374  17.821  0.00  0.00    +0.000 A 
ATOM      4  S   UNL     1       1.779   9.712  17.884  0.00  0.00    +0.000 S 
ATOM      5  C   UNL     1       1.159   9.073  19.405  0.00  0.00    +0.000 A 
ATOM      6  C   UNL     1       1.766   7.934  19.807  0.00  0.00    +0.000 A 
ATOM      7  N   UNL     1       2.740   7.537  18.892  0.00  0.00    +0.000 N 
ATOM      8  N   UNL     1       3.607   6.510  18.754  0.00  0.00    +0.000 NA
ENDROOT
BRANCH   1  15
ATOM      9  C   UNL     1       6.550   5.392  18.999  0.00  0.00    +0.000 C 
ATOM     10  C   UNL     1       6.301   5.315  17.517  0.00  0.00    +0.000 A 
ATOM     11  C   UNL     1       7.185   4.529  16.745  0.00  0.00    +0.000 A 
ATOM     12  C   UNL     1       7.015   4.381  15.368  0.00  0.00    +0.000 A 
ATOM     13  C   UNL     1       5.963   5.024  14.735  0.00  0.00    +0.000 A 
ATOM     14  C   UNL     1       5.085   5.811  15.484  0.00  0.00    +0.000 A 
ATOM     15  C   UNL     1       5.224   5.972  16.882  0.00  0.00    +0.000 A 
ENDBRANCH   1  15
BRANCH   6  16
ATOM     16  C   UNL     1       1.440   7.225  21.087  0.00  0.00    +0.000 C 
BRANCH  16  17
ATOM     17  C   UNL     1       1.053   5.745  20.992  0.00  0.00    +0.000 C 
BRANCH  17  18
ATOM     18  N   UNL     1       2.229   4.919  21.330  0.00  0.00    +0.000 NA
ATOM     19  H   UNL     1       2.690   5.090  22.225  0.00  0.00    +0.000 HD
BRANCH  18  20
ATOM     20  S   UNL     1       2.108   3.253  21.073  0.00  0.00    +0.000 S 
ATOM     21  O   UNL     1       3.074   2.639  21.955  0.00  0.00    +0.000 OA
ATOM     22  O   UNL     1       0.703   2.915  21.137  0.00  0.00    +0.000 OA
BRANCH  20  23
ATOM     23  C   UNL     1       2.680   3.053  19.410  0.00  0.00    +0.000 A 
ATOM     24  C   UNL     1       1.915   3.557  18.353  0.00  0.00    +0.000 A 
ATOM     25  C   UNL     1       2.377   3.408  17.044  0.00  0.00    +0.000 A 
ATOM     26  C   UNL     1       3.592   2.769  16.798  0.00  0.00    +0.000 A 
ATOM     27  C   UNL     1       4.354   2.273  17.858  0.00  0.00    +0.000 A 
ATOM     28  C   UNL     1       3.902   2.414  19.170  0.00  0.00    +0.000 A 
ENDBRANCH  20  23
ENDBRANCH  18  20
ENDBRANCH  17  18
ENDBRANCH  16  17
ENDBRANCH   6  16
TORSDOF 6
ENDMDL
MODEL 9
REMARK VINA RESULT:      -7.9      3.319      8.162
REMARK  Name = 
REMARK  7 active torsions:
REMARK  status: ('A' for Active; 'I' for Inactive)
REMARK    1  A    between atoms: C_1  and  C_2
REMARK    2  A    between atoms: C_7  and  C_8
REMARK    3  A    between atoms: C_13  and  C_14
REMARK    4  A    between atoms: C_14  and  C_15
REMARK    5  A    between atoms: C_15  and  N_16
REMARK    6  A    between atoms: N_16  and  S_17
REMARK    7  A    between atoms: S_17  and  C_20
REMARK                            x       y       z     vdW  Elec       q    Type
REMARK                         _______ _______ _______ _____ _____    ______ ____
ROOT
ATOM      1  C   UNL     1       4.439   4.481  18.041  0.00  0.00    +0.000 A 
ATOM      2  N   UNL     1       4.514   3.323  18.805  0.00  0.00    +0.000 NA
ATOM      3  C   UNL     1       3.618   3.541  19.715  0.00  0.00    +0.000 A 
ATOM      4  S   UNL     1       3.059   2.677  21.101  0.00  0.00    +0.000 S 
ATOM      5  C   UNL     1       1.959   4.014  21.432  0.00  0.00    +0.000 A 
ATOM      6  C   UNL     1       2.033   5.018  20.530  0.00  0.00    +0.000 A 
ATOM      7  N   UNL     1       2.990   4.743  19.553  0.00  0.00    +0.000 N 
ATOM      8  N   UNL     1       3.500   5.362  18.467  0.00  0.00    +0.000 NA
ENDROOT
BRANCH   1  15
ATOM      9  C   UNL     1       7.250   5.716  18.271  0.00  0.00    +0.000 C 
ATOM     10  C   UNL     1       6.656   5.212  16.985  0.00  0.00    +0.000 A 
ATOM     11  C   UNL     1       7.452   5.289  15.820  0.00  0.00    +0.000 A 
ATOM     12  C   UNL     1       6.991   4.823  14.589  0.00  0.00    +0.000 A 
ATOM     13  C   UNL     1       5.719   4.278  14.496  0.00  0.00    +0.000 A 
ATOM     14  C   UNL     1       4.917   4.202  15.637  0.00  0.00    +0.000 A 
ATOM     15  C   UNL     1       5.360   4.656  16.901  0.00  0.00    +0.000 A 
ENDBRANCH   1  15
BRANCH   6  16
ATOM     16  C   UNL     1       1.170   6.243  20.575  0.00  0.00    +0.000 C 
BRANCH  16  17
ATOM     17  C   UNL     1       1.872   7.601  20.476  0.00  0.00    +0.000 C 
BRANCH  17  18
ATOM     18  N   UNL     1       1.750   8.301  21.770  0.00  0.00    +0.000 NA
ATOM     19  H   UNL     1       2.537   8.872  22.079  0.00  0.00    +0.000 HD
BRANCH  18  20
ATOM     20  S   UNL     1       0.307   9.126  22.074  0.00  0.00    +0.000 S 
ATOM     21  O   UNL     1      -0.756   8.171  21.857  0.00  0.00    +0.000 OA
ATOM     22  O   UNL     1       0.467   9.807  23.341  0.00  0.00    +0.000 OA
BRANCH  20  23
ATOM     23  C   UNL     1       0.239  10.325  20.773  0.00  0.00    +0.000 A 
ATOM     24  C   UNL     1       1.089  11.435  20.815  0.00  0.00    +0.000 A 
ATOM     25  C   UNL     1       1.040  12.371  19.780  0.00  0.00    +0.000 A 
ATOM     26  C   UNL     1       0.157  12.193  18.715  0.00  0.00    +0.000 A 
ATOM     27  C   UNL     1      -0.684  11.079  18.677  0.00  0.00    +0.000 A 
ATOM     28  C   UNL     1      -0.647  10.139  19.706  0.00  0.00    +0.000 A 
ENDBRANCH  20  23
ENDBRANCH  18  20
ENDBRANCH  17  18
ENDBRANCH  16  17
ENDBRANCH   6  16
TORSDOF 6
ENDMDL
