MODEL 1
REMARK VINA RESULT:      -7.5      0.000      0.000
REMARK  Name = 
REMARK  9 active torsions:
REMARK  status: ('A' for Active; 'I' for Inactive)
REMARK    1  A    between atoms: C_1  and  C_2
REMARK    2  A    between atoms: C_2  and  C_3
REMARK    3  A    between atoms: C_2  and  C_4
REMARK    4  A    between atoms: C_4  and  N_5
REMARK    5  A    between atoms: C_4  and  C_6
REMARK    6  A    between atoms: N_8  and  C_9
REMARK    7  A    between atoms: N_14  and  C_15
REMARK    8  A    between atoms: C_15  and  C_16
REMARK    9  A    between atoms: C_16  and  O_18
REMARK                            x       y       z     vdW  Elec       q    Type
REMARK                         _______ _______ _______ _____ _____    ______ ____
ROOT
ATOM      1  C   UNL     1       3.558   5.080  17.403  0.00  0.00    +0.000 C 
ATOM      2  C   UNL     1       3.848   6.383  18.168  0.00  0.00    +0.000 C 
ATOM      3  C   UNL     1       4.600   7.317  17.241  0.00  0.00    +0.000 C 
ATOM      4  C   UNL     1       5.901   6.661  16.869  0.00  0.00    +0.000 C 
ATOM      5  O   UNL     1       6.902   7.362  16.791  0.00  0.00    +0.000 OA
ATOM      6  N   UNL     1       5.955   5.314  16.592  0.00  0.00    +0.000 N 
ATOM      7  C   UNL     1       4.837   4.523  16.783  0.00  0.00    +0.000 C 
ATOM      8  O   UNL     1       4.846   3.350  16.430  0.00  0.00    +0.000 OA
ENDROOT
BRANCH   1  11
ATOM      9  C   UNL     1       1.634   3.710  18.178  0.00  0.00    +0.000 C 
ATOM     10  O   UNL     1       0.936   4.145  17.273  0.00  0.00    +0.000 OA
ATOM     11  N   UNL     1       2.933   4.120  18.310  0.00  0.00    +0.000 N 
ATOM     12  H   UNL     1       3.496   3.757  19.095  0.00  0.00    +0.000 HD
BRANCH   9  13
ATOM     13  C   UNL     1       1.024   2.709  19.150  0.00  0.00    +0.000 C 
BRANCH  13  15
ATOM     14  C   UNL     1       1.177   4.785  20.627  0.00  0.00    +0.000 C 
ATOM     15  C   UNL     1       1.015   3.255  20.607  0.00  0.00    +0.000 C 
ATOM     16  C   UNL     1       2.120   2.617  21.465  0.00  0.00    +0.000 C 
ENDBRANCH  13  15
BRANCH  13  17
ATOM     17  N   UNL     1       1.778   1.450  19.100  0.00  0.00    +0.000 NA
ATOM     18  H   UNL     1       2.483   1.478  18.326  0.00  0.00    +0.000 HD
ATOM     19  H   UNL     1       1.128   0.649  18.931  0.00  0.00    +0.000 HD
ENDBRANCH  13  17
ENDBRANCH   9  13
ENDBRANCH   1  11
BRANCH   6  20
ATOM     20  C   UNL     1       7.195   4.726  16.056  0.00  0.00    +0.000 C 
BRANCH  20  21
ATOM     21  C   UNL     1       7.182   4.661  14.549  0.00  0.00    +0.000 C 
ATOM     22  O   UNL     1       7.772   5.514  13.903  0.00  0.00    +0.000 OA
BRANCH  21  23
ATOM     23  O   UNL     1       6.550   3.661  13.901  0.00  0.00    +0.000 OA
ATOM     24  H   UNL     1       7.032   2.907  13.536  0.00  0.00    +0.000 HD
ENDBRANCH  21  23
ENDBRANCH  20  21
ENDBRANCH   6  20
TORSDOF 7
ENDMDL
MODEL 2
REMARK VINA RESULT:      -7.2      1.813      2.760
REMARK  Name = 
REMARK  9 active torsions:
REMARK  status: ('A' for Active; 'I' for Inactive)
REMARK    1  A    between atoms: C_1  and  C_2
REMARK    2  A    between atoms: C_2  and  C_3
REMARK    3  A    between atoms: C_2  and  C_4
REMARK    4  A    between atoms: C_4  and  N_5
REMARK    5  A    between atoms: C_4  and  C_6
REMARK    6  A    between atoms: N_8  and  C_9
REMARK    7  A    between atoms: N_14  and  C_15
REMARK    8  A    between atoms: C_15  and  C_16
REMARK    9  A    between atoms: C_16  and  O_18
REMARK                            x       y       z     vdW  Elec       q    Type
REMARK                         _______ _______ _______ _____ _____    ______ ____
ROOT
ATOM      1  C   UNL     1       4.522   3.684  17.250  0.00  0.00    +0.000 C 
ATOM      2  C   UNL     1       4.530   4.114  15.773  0.00  0.00    +0.000 C 
ATOM      3  C   UNL     1       5.935   3.930  15.236  0.00  0.00    +0.000 C 
ATOM      4  C   UNL     1       6.858   4.824  16.018  0.00  0.00    +0.000 C 
ATOM      5  O   UNL     1       7.755   5.399  15.416  0.00  0.00    +0.000 OA
ATOM      6  N   UNL     1       6.713   4.965  17.379  0.00  0.00    +0.000 N 
ATOM      7  C   UNL     1       5.633   4.388  18.024  0.00  0.00    +0.000 C 
ATOM      8  O   UNL     1       5.562   4.413  19.247  0.00  0.00    +0.000 OA
ENDROOT
BRANCH   1  11
ATOM      9  C   UNL     1       2.498   3.029  18.537  0.00  0.00    +0.000 C 
ATOM     10  O   UNL     1       2.956   1.910  18.724  0.00  0.00    +0.000 OA
ATOM     11  N   UNL     1       3.206   3.958  17.822  0.00  0.00    +0.000 N 
ATOM     12  H   UNL     1       2.790   4.887  17.658  0.00  0.00    +0.000 HD
BRANCH   9  13
ATOM     13  C   UNL     1       1.127   3.360  19.112  0.00  0.00    +0.000 C 
BRANCH  13  15
ATOM     14  C   UNL     1       2.307   4.862  20.805  0.00  0.00    +0.000 C 
ATOM     15  C   UNL     1       1.220   3.793  20.604  0.00  0.00    +0.000 C 
ATOM     16  C   UNL     1       1.506   2.600  21.531  0.00  0.00    +0.000 C 
ENDBRANCH  13  15
BRANCH  13  17
ATOM     17  N   UNL     1       0.246   2.192  18.992  0.00  0.00    +0.000 NA
ATOM     18  H   UNL     1       0.617   1.529  18.271  0.00  0.00    +0.000 HD
ATOM     19  H   UNL     1      -0.713   2.494  18.706  0.00  0.00    +0.000 HD
ENDBRANCH  13  17
ENDBRANCH   9  13
ENDBRANCH   1  11
BRANCH   6  20
ATOM     20  C   UNL     1       7.730   5.698  18.152  0.00  0.00    +0.000 C 
BRANCH  20  21
ATOM     21  C   UNL     1       7.632   7.188  17.943  0.00  0.00    +0.000 C 
ATOM     22  O   UNL     1       8.419   7.931  18.509  0.00  0.00    +0.000 OA
BRANCH  21  23
ATOM     23  O   UNL     1       6.702   7.716  17.119  0.00  0.00    +0.000 OA
ATOM     24  H   UNL     1       6.333   8.597  17.267  0.00  0.00    +0.000 HD
ENDBRANCH  21  23
ENDBRANCH  20  21
ENDBRANCH   6  20
TORSDOF 7
ENDMDL
MODEL 3
REMARK VINA RESULT:      -7.0      1.754      2.965
REMARK  Name = 
REMARK  9 active torsions:
REMARK  status: ('A' for Active; 'I' for Inactive)
REMARK    1  A    between atoms: C_1  and  C_2
REMARK    2  A    between atoms: C_2  and  C_3
REMARK    3  A    between atoms: C_2  and  C_4
REMARK    4  A    between atoms: C_4  and  N_5
REMARK    5  A    between atoms: C_4  and  C_6
REMARK    6  A    between atoms: N_8  and  C_9
REMARK    7  A    between atoms: N_14  and  C_15
REMARK    8  A    between atoms: C_15  and  C_16
REMARK    9  A    between atoms: C_16  and  O_18
REMARK                            x       y       z     vdW  Elec       q    Type
REMARK                         _______ _______ _______ _____ _____    ______ ____
ROOT
ATOM      1  C   UNL     1       4.807   3.986  17.411  0.00  0.00    +0.000 C 
ATOM      2  C   UNL     1       5.042   3.681  15.921  0.00  0.00    +0.000 C 
ATOM      3  C   UNL     1       6.522   3.833  15.635  0.00  0.00    +0.000 C 
ATOM      4  C   UNL     1       6.910   5.259  15.916  0.00  0.00    +0.000 C 
ATOM      5  O   UNL     1       7.707   5.802  15.163  0.00  0.00    +0.000 OA
ATOM      6  N   UNL     1       6.404   5.922  17.011  0.00  0.00    +0.000 N 
ATOM      7  C   UNL     1       5.429   5.327  17.791  0.00  0.00    +0.000 C 
ATOM      8  O   UNL     1       5.060   5.863  18.829  0.00  0.00    +0.000 OA
ENDROOT
BRANCH   1  11
ATOM      9  C   UNL     1       2.819   3.164  18.656  0.00  0.00    +0.000 C 
ATOM     10  O   UNL     1       3.525   2.436  19.341  0.00  0.00    +0.000 OA
ATOM     11  N   UNL     1       3.373   3.956  17.687  0.00  0.00    +0.000 N 
ATOM     12  H   UNL     1       2.755   4.545  17.107  0.00  0.00    +0.000 HD
BRANCH   9  13
ATOM     13  C   UNL     1       1.317   3.164  18.906  0.00  0.00    +0.000 C 
BRANCH  13  15
ATOM     14  C   UNL     1       1.692   5.085  20.544  0.00  0.00    +0.000 C 
ATOM     15  C   UNL     1       0.967   3.750  20.304  0.00  0.00    +0.000 C 
ATOM     16  C   UNL     1       1.318   2.773  21.439  0.00  0.00    +0.000 C 
ENDBRANCH  13  15
BRANCH  13  17
ATOM     17  N   UNL     1       0.799   1.795  18.802  0.00  0.00    +0.000 NA
ATOM     18  H   UNL     1       1.501   1.110  19.172  0.00  0.00    +0.000 HD
ATOM     19  H   UNL     1       0.600   1.561  17.803  0.00  0.00    +0.000 HD
ENDBRANCH  13  17
ENDBRANCH   9  13
ENDBRANCH   1  11
BRANCH   6  20
ATOM     20  C   UNL     1       6.931   7.250  17.371  0.00  0.00    +0.000 C 
BRANCH  20  21
ATOM     21  C   UNL     1       7.980   7.166  18.451  0.00  0.00    +0.000 C 
ATOM     22  O   UNL     1       8.671   8.142  18.699  0.00  0.00    +0.000 OA
BRANCH  21  23
ATOM     23  O   UNL     1       8.151   6.036  19.169  0.00  0.00    +0.000 OA
ATOM     24  H   UNL     1       8.893   5.929  19.779  0.00  0.00    +0.000 HD
ENDBRANCH  21  23
ENDBRANCH  20  21
ENDBRANCH   6  20
TORSDOF 7
ENDMDL
MODEL 4
REMARK VINA RESULT:      -6.9      2.130      2.962
REMARK  Name = 
REMARK  9 active torsions:
REMARK  status: ('A' for Active; 'I' for Inactive)
REMARK    1  A    between atoms: C_1  and  C_2
REMARK    2  A    between atoms: C_2  and  C_3
REMARK    3  A    between atoms: C_2  and  C_4
REMARK    4  A    between atoms: C_4  and  N_5
REMARK    5  A    between atoms: C_4  and  C_6
REMARK    6  A    between atoms: N_8  and  C_9
REMARK    7  A    between atoms: N_14  and  C_15
REMARK    8  A    between atoms: C_15  and  C_16
REMARK    9  A    between atoms: C_16  and  O_18
REMARK                            x       y       z     vdW  Elec       q    Type
REMARK                         _______ _______ _______ _____ _____    ______ ____
ROOT
ATOM      1  C   UNL     1       4.444   3.949  17.235  0.00  0.00    +0.000 C 
ATOM      2  C   UNL     1       4.518   4.453  15.782  0.00  0.00    +0.000 C 
ATOM      3  C   UNL     1       5.972   4.463  15.359  0.00  0.00    +0.000 C 
ATOM      4  C   UNL     1       6.715   5.418  16.253  0.00  0.00    +0.000 C 
ATOM      5  O   UNL     1       7.580   6.125  15.754  0.00  0.00    +0.000 OA
ATOM      6  N   UNL     1       6.446   5.471  17.602  0.00  0.00    +0.000 N 
ATOM      7  C   UNL     1       5.397   4.739  18.128  0.00  0.00    +0.000 C 
ATOM      8  O   UNL     1       5.226   4.692  19.341  0.00  0.00    +0.000 OA
ENDROOT
BRANCH   1  11
ATOM      9  C   UNL     1       2.406   2.982  18.278  0.00  0.00    +0.000 C 
ATOM     10  O   UNL     1       2.967   1.904  18.420  0.00  0.00    +0.000 OA
ATOM     11  N   UNL     1       3.064   4.036  17.704  0.00  0.00    +0.000 N 
ATOM     12  H   UNL     1       2.563   4.929  17.574  0.00  0.00    +0.000 HD
BRANCH   9  13
ATOM     13  C   UNL     1       0.964   3.119  18.750  0.00  0.00    +0.000 C 
BRANCH  13  15
ATOM     14  C   UNL     1       1.613   4.984  20.368  0.00  0.00    +0.000 C 
ATOM     15  C   UNL     1       0.887   3.637  20.215  0.00  0.00    +0.000 C 
ATOM     16  C   UNL     1       1.479   2.627  21.212  0.00  0.00    +0.000 C 
ENDBRANCH  13  15
BRANCH  13  17
ATOM     17  N   UNL     1       0.286   1.822  18.649  0.00  0.00    +0.000 NA
ATOM     18  H   UNL     1      -0.592   1.824  19.222  0.00  0.00    +0.000 HD
ATOM     19  H   UNL     1       0.911   1.061  18.999  0.00  0.00    +0.000 HD
ENDBRANCH  13  17
ENDBRANCH   9  13
ENDBRANCH   1  11
BRANCH   6  20
ATOM     20  C   UNL     1       7.302   6.278  18.488  0.00  0.00    +0.000 C 
BRANCH  20  21
ATOM     21  C   UNL     1       8.104   5.419  19.433  0.00  0.00    +0.000 C 
ATOM     22  O   UNL     1       8.877   4.587  18.984  0.00  0.00    +0.000 OA
BRANCH  21  23
ATOM     23  O   UNL     1       8.001   5.572  20.770  0.00  0.00    +0.000 OA
ATOM     24  H   UNL     1       7.925   4.813  21.364  0.00  0.00    +0.000 HD
ENDBRANCH  21  23
ENDBRANCH  20  21
ENDBRANCH   6  20
TORSDOF 7
ENDMDL
MODEL 5
REMARK VINA RESULT:      -6.9      1.802      2.637
REMARK  Name = 
REMARK  9 active torsions:
REMARK  status: ('A' for Active; 'I' for Inactive)
REMARK    1  A    between atoms: C_1  and  C_2
REMARK    2  A    between atoms: C_2  and  C_3
REMARK    3  A    between atoms: C_2  and  C_4
REMARK    4  A    between atoms: C_4  and  N_5
REMARK    5  A    between atoms: C_4  and  C_6
REMARK    6  A    between atoms: N_8  and  C_9
REMARK    7  A    between atoms: N_14  and  C_15
REMARK    8  A    between atoms: C_15  and  C_16
REMARK    9  A    between atoms: C_16  and  O_18
REMARK                            x       y       z     vdW  Elec       q    Type
REMARK                         _______ _______ _______ _____ _____    ______ ____
ROOT
ATOM      1  C   UNL     1       3.858   4.995  17.381  0.00  0.00    +0.000 C 
ATOM      2  C   UNL     1       3.877   6.471  16.942  0.00  0.00    +0.000 C 
ATOM      3  C   UNL     1       5.048   6.667  16.001  0.00  0.00    +0.000 C 
ATOM      4  C   UNL     1       6.313   6.358  16.753  0.00  0.00    +0.000 C 
ATOM      5  O   UNL     1       7.294   7.060  16.551  0.00  0.00    +0.000 OA
ATOM      6  N   UNL     1       6.370   5.292  17.622  0.00  0.00    +0.000 N 
ATOM      7  C   UNL     1       5.225   4.573  17.912  0.00  0.00    +0.000 C 
ATOM      8  O   UNL     1       5.293   3.556  18.593  0.00  0.00    +0.000 OA
ENDROOT
BRANCH   1  11
ATOM      9  C   UNL     1       1.932   3.751  18.343  0.00  0.00    +0.000 C 
ATOM     10  O   UNL     1       2.005   2.914  17.453  0.00  0.00    +0.000 OA
ATOM     11  N   UNL     1       2.806   4.805  18.377  0.00  0.00    +0.000 N 
ATOM     12  H   UNL     1       2.712   5.510  19.123  0.00  0.00    +0.000 HD
BRANCH   9  13
ATOM     13  C   UNL     1       0.850   3.595  19.402  0.00  0.00    +0.000 C 
BRANCH  13  15
ATOM     14  C   UNL     1       1.982   5.139  21.090  0.00  0.00    +0.000 C 
ATOM     15  C   UNL     1       1.430   3.725  20.840  0.00  0.00    +0.000 C 
ATOM     16  C   UNL     1       2.539   2.695  21.106  0.00  0.00    +0.000 C 
ENDBRANCH  13  15
BRANCH  13  17
ATOM     17  N   UNL     1       0.195   2.290  19.251  0.00  0.00    +0.000 NA
ATOM     18  H   UNL     1       0.666   1.575  19.856  0.00  0.00    +0.000 HD
ATOM     19  H   UNL     1       0.251   1.974  18.256  0.00  0.00    +0.000 HD
ENDBRANCH  13  17
ENDBRANCH   9  13
ENDBRANCH   1  11
BRANCH   6  20
ATOM     20  C   UNL     1       7.662   4.896  18.210  0.00  0.00    +0.000 C 
BRANCH  20  21
ATOM     21  C   UNL     1       8.020   5.743  19.405  0.00  0.00    +0.000 C 
ATOM     22  O   UNL     1       7.848   5.302  20.531  0.00  0.00    +0.000 OA
BRANCH  21  23
ATOM     23  O   UNL     1       8.555   6.972  19.252  0.00  0.00    +0.000 OA
ATOM     24  H   UNL     1       9.435   7.189  19.588  0.00  0.00    +0.000 HD
ENDBRANCH  21  23
ENDBRANCH  20  21
ENDBRANCH   6  20
TORSDOF 7
ENDMDL
MODEL 6
REMARK VINA RESULT:      -6.9      1.803      2.910
REMARK  Name = 
REMARK  9 active torsions:
REMARK  status: ('A' for Active; 'I' for Inactive)
REMARK    1  A    between atoms: C_1  and  C_2
REMARK    2  A    between atoms: C_2  and  C_3
REMARK    3  A    between atoms: C_2  and  C_4
REMARK    4  A    between atoms: C_4  and  N_5
REMARK    5  A    between atoms: C_4  and  C_6
REMARK    6  A    between atoms: N_8  and  C_9
REMARK    7  A    between atoms: N_14  and  C_15
REMARK    8  A    between atoms: C_15  and  C_16
REMARK    9  A    between atoms: C_16  and  O_18
REMARK                            x       y       z     vdW  Elec       q    Type
REMARK                         _______ _______ _______ _____ _____    ______ ____
ROOT
ATOM      1  C   UNL     1       4.449   3.779  16.946  0.00  0.00    +0.000 C 
ATOM      2  C   UNL     1       4.409   4.710  15.721  0.00  0.00    +0.000 C 
ATOM      3  C   UNL     1       5.677   4.491  14.921  0.00  0.00    +0.000 C 
ATOM      4  C   UNL     1       6.849   4.863  15.787  0.00  0.00    +0.000 C 
ATOM      5  O   UNL     1       7.790   5.451  15.270  0.00  0.00    +0.000 OA
ATOM      6  N   UNL     1       6.874   4.521  17.120  0.00  0.00    +0.000 N 
ATOM      7  C   UNL     1       5.761   3.947  17.708  0.00  0.00    +0.000 C 
ATOM      8  O   UNL     1       5.817   3.537  18.861  0.00  0.00    +0.000 OA
ENDROOT
BRANCH   1  11
ATOM      9  C   UNL     1       2.376   3.091  18.133  0.00  0.00    +0.000 C 
ATOM     10  O   UNL     1       2.502   1.944  17.726  0.00  0.00    +0.000 OA
ATOM     11  N   UNL     1       3.291   4.051  17.793  0.00  0.00    +0.000 N 
ATOM     12  H   UNL     1       3.152   5.017  18.129  0.00  0.00    +0.000 HD
BRANCH   9  13
ATOM     13  C   UNL     1       1.182   3.423  19.017  0.00  0.00    +0.000 C 
BRANCH  13  15
ATOM     14  C   UNL     1       1.140   2.920  21.519  0.00  0.00    +0.000 C 
ATOM     15  C   UNL     1       1.628   3.893  20.432  0.00  0.00    +0.000 C 
ATOM     16  C   UNL     1       1.118   5.307  20.753  0.00  0.00    +0.000 C 
ENDBRANCH  13  15
BRANCH  13  17
ATOM     17  N   UNL     1       0.315   2.245  19.139  0.00  0.00    +0.000 NA
ATOM     18  H   UNL     1      -0.233   2.287  20.032  0.00  0.00    +0.000 HD
ATOM     19  H   UNL     1       0.893   1.374  19.142  0.00  0.00    +0.000 HD
ENDBRANCH  13  17
ENDBRANCH   9  13
ENDBRANCH   1  11
BRANCH   6  20
ATOM     20  C   UNL     1       8.101   4.732  17.908  0.00  0.00    +0.000 C 
BRANCH  20  21
ATOM     21  C   UNL     1       7.935   5.832  18.926  0.00  0.00    +0.000 C 
ATOM     22  O   UNL     1       7.982   6.999  18.567  0.00  0.00    +0.000 OA
BRANCH  21  23
ATOM     23  O   UNL     1       7.709   5.549  20.225  0.00  0.00    +0.000 OA
ATOM     24  H   UNL     1       7.203   4.771  20.496  0.00  0.00    +0.000 HD
ENDBRANCH  21  23
ENDBRANCH  20  21
ENDBRANCH   6  20
TORSDOF 7
ENDMDL
MODEL 7
REMARK VINA RESULT:      -6.7      2.332      6.680
REMARK  Name = 
REMARK  9 active torsions:
REMARK  status: ('A' for Active; 'I' for Inactive)
REMARK    1  A    between atoms: C_1  and  C_2
REMARK    2  A    between atoms: C_2  and  C_3
REMARK    3  A    between atoms: C_2  and  C_4
REMARK    4  A    between atoms: C_4  and  N_5
REMARK    5  A    between atoms: C_4  and  C_6
REMARK    6  A    between atoms: N_8  and  C_9
REMARK    7  A    between atoms: N_14  and  C_15
REMARK    8  A    between atoms: C_15  and  C_16
REMARK    9  A    between atoms: C_16  and  O_18
REMARK                            x       y       z     vdW  Elec       q    Type
REMARK                         _______ _______ _______ _____ _____    ______ ____
ROOT
ATOM      1  C   UNL     1       3.630   4.853  17.511  0.00  0.00    +0.000 C 
ATOM      2  C   UNL     1       2.675   3.792  16.935  0.00  0.00    +0.000 C 
ATOM      3  C   UNL     1       1.299   4.027  17.524  0.00  0.00    +0.000 C 
ATOM      4  C   UNL     1       1.391   3.853  19.016  0.00  0.00    +0.000 C 
ATOM      5  O   UNL     1       0.468   3.292  19.592  0.00  0.00    +0.000 OA
ATOM      6  N   UNL     1       2.471   4.342  19.714  0.00  0.00    +0.000 N 
ATOM      7  C   UNL     1       3.548   4.881  19.035  0.00  0.00    +0.000 C 
ATOM      8  O   UNL     1       4.459   5.420  19.654  0.00  0.00    +0.000 OA
ENDROOT
BRANCH   1  11
ATOM      9  C   UNL     1       5.684   5.441  16.241  0.00  0.00    +0.000 C 
ATOM     10  O   UNL     1       5.180   6.494  15.876  0.00  0.00    +0.000 OA
ATOM     11  N   UNL     1       4.987   4.580  17.046  0.00  0.00    +0.000 N 
ATOM     12  H   UNL     1       5.424   3.688  17.322  0.00  0.00    +0.000 HD
BRANCH   9  13
ATOM     13  C   UNL     1       7.097   5.112  15.778  0.00  0.00    +0.000 C 
BRANCH  13  15
ATOM     14  C   UNL     1       7.742   5.301  13.316  0.00  0.00    +0.000 C 
ATOM     15  C   UNL     1       7.098   4.409  14.390  0.00  0.00    +0.000 C 
ATOM     16  C   UNL     1       5.679   4.021  13.944  0.00  0.00    +0.000 C 
ENDBRANCH  13  15
BRANCH  13  17
ATOM     17  N   UNL     1       7.754   4.250  16.768  0.00  0.00    +0.000 NA
ATOM     18  H   UNL     1       8.705   4.624  17.003  0.00  0.00    +0.000 HD
ATOM     19  H   UNL     1       7.860   3.283  16.387  0.00  0.00    +0.000 HD
ENDBRANCH  13  17
ENDBRANCH   9  13
ENDBRANCH   1  11
BRANCH   6  20
ATOM     20  C   UNL     1       2.460   4.323  21.187  0.00  0.00    +0.000 C 
BRANCH  20  21
ATOM     21  C   UNL     1       2.452   2.918  21.733  0.00  0.00    +0.000 C 
ATOM     22  O   UNL     1       3.460   2.232  21.652  0.00  0.00    +0.000 OA
BRANCH  21  23
ATOM     23  O   UNL     1       1.356   2.411  22.336  0.00  0.00    +0.000 OA
ATOM     24  H   UNL     1       1.233   1.460  22.451  0.00  0.00    +0.000 HD
ENDBRANCH  21  23
ENDBRANCH  20  21
ENDBRANCH   6  20
TORSDOF 7
ENDMDL
MODEL 8
REMARK VINA RESULT:      -6.7      1.903      2.423
REMARK  Name = 
REMARK  9 active torsions:
REMARK  status: ('A' for Active; 'I' for Inactive)
REMARK    1  A    between atoms: C_1  and  C_2
REMARK    2  A    between atoms: C_2  and  C_3
REMARK    3  A    between atoms: C_2  and  C_4
REMARK    4  A    between atoms: C_4  and  N_5
REMARK    5  A    between atoms: C_4  and  C_6
REMARK    6  A    between atoms: N_8  and  C_9
REMARK    7  A    between atoms: N_14  and  C_15
REMARK    8  A    between atoms: C_15  and  C_16
REMARK    9  A    between atoms: C_16  and  O_18
REMARK                            x       y       z     vdW  Elec       q    Type
REMARK                         _______ _______ _______ _____ _____    ______ ____
ROOT
ATOM      1  C   UNL     1       5.184   5.299  18.949  0.00  0.00    +0.000 C 
ATOM      2  C   UNL     1       6.698   5.318  19.221  0.00  0.00    +0.000 C 
ATOM      3  C   UNL     1       7.291   6.512  18.501  0.00  0.00    +0.000 C 
ATOM      4  C   UNL     1       7.055   6.336  17.026  0.00  0.00    +0.000 C 
ATOM      5  O   UNL     1       7.945   6.665  16.253  0.00  0.00    +0.000 OA
ATOM      6  N   UNL     1       5.857   5.846  16.560  0.00  0.00    +0.000 N 
ATOM      7  C   UNL     1       4.904   5.386  17.451  0.00  0.00    +0.000 C 
ATOM      8  O   UNL     1       3.794   5.057  17.049  0.00  0.00    +0.000 OA
ENDROOT
BRANCH   1  11
ATOM      9  C   UNL     1       3.411   4.093  20.208  0.00  0.00    +0.000 C 
ATOM     10  O   UNL     1       2.773   5.129  20.337  0.00  0.00    +0.000 OA
ATOM     11  N   UNL     1       4.606   4.094  19.539  0.00  0.00    +0.000 N 
ATOM     12  H   UNL     1       5.137   3.213  19.463  0.00  0.00    +0.000 HD
BRANCH   9  13
ATOM     13  C   UNL     1       2.849   2.812  20.810  0.00  0.00    +0.000 C 
BRANCH  13  15
ATOM     14  C   UNL     1       2.686   1.757  18.491  0.00  0.00    +0.000 C 
ATOM     15  C   UNL     1       1.937   2.056  19.801  0.00  0.00    +0.000 C 
ATOM     16  C   UNL     1       0.657   2.845  19.484  0.00  0.00    +0.000 C 
ENDBRANCH  13  15
BRANCH  13  17
ATOM     17  N   UNL     1       2.086   3.130  22.023  0.00  0.00    +0.000 NA
ATOM     18  H   UNL     1       1.269   3.743  21.789  0.00  0.00    +0.000 HD
ATOM     19  H   UNL     1       2.695   3.631  22.709  0.00  0.00    +0.000 HD
ENDBRANCH  13  17
ENDBRANCH   9  13
ENDBRANCH   1  11
BRANCH   6  20
ATOM     20  C   UNL     1       5.577   5.849  15.114  0.00  0.00    +0.000 C 
BRANCH  20  21
ATOM     21  C   UNL     1       6.438   4.860  14.371  0.00  0.00    +0.000 C 
ATOM     22  O   UNL     1       6.174   3.669  14.425  0.00  0.00    +0.000 OA
BRANCH  21  23
ATOM     23  O   UNL     1       7.484   5.271  13.623  0.00  0.00    +0.000 OA
ATOM     24  H   UNL     1       7.440   5.295  12.658  0.00  0.00    +0.000 HD
ENDBRANCH  21  23
ENDBRANCH  20  21
ENDBRANCH   6  20
TORSDOF 7
ENDMDL
MODEL 9
REMARK VINA RESULT:      -6.6      2.268      6.626
REMARK  Name = 
REMARK  9 active torsions:
REMARK  status: ('A' for Active; 'I' for Inactive)
REMARK    1  A    between atoms: C_1  and  C_2
REMARK    2  A    between atoms: C_2  and  C_3
REMARK    3  A    between atoms: C_2  and  C_4
REMARK    4  A    between atoms: C_4  and  N_5
REMARK    5  A    between atoms: C_4  and  C_6
REMARK    6  A    between atoms: N_8  and  C_9
REMARK    7  A    between atoms: N_14  and  C_15
REMARK    8  A    between atoms: C_15  and  C_16
REMARK    9  A    between atoms: C_16  and  O_18
REMARK                            x       y       z     vdW  Elec       q    Type
REMARK                         _______ _______ _______ _____ _____    ______ ____
ROOT
ATOM      1  C   UNL     1       4.915   4.450  17.237  0.00  0.00    +0.000 C 
ATOM      2  C   UNL     1       5.170   5.758  18.007  0.00  0.00    +0.000 C 
ATOM      3  C   UNL     1       4.810   5.527  19.460  0.00  0.00    +0.000 C 
ATOM      4  C   UNL     1       3.346   5.187  19.533  0.00  0.00    +0.000 C 
ATOM      5  O   UNL     1       2.690   5.645  20.459  0.00  0.00    +0.000 OA
ATOM      6  N   UNL     1       2.771   4.358  18.598  0.00  0.00    +0.000 N 
ATOM      7  C   UNL     1       3.504   3.933  17.504  0.00  0.00    +0.000 C 
ATOM      8  O   UNL     1       3.034   3.105  16.733  0.00  0.00    +0.000 OA
ENDROOT
BRANCH   1  11
ATOM      9  C   UNL     1       6.398   4.671  15.254  0.00  0.00    +0.000 C 
ATOM     10  O   UNL     1       7.386   4.469  15.947  0.00  0.00    +0.000 OA
ATOM     11  N   UNL     1       5.148   4.678  15.813  0.00  0.00    +0.000 N 
ATOM     12  H   UNL     1       4.332   4.873  15.213  0.00  0.00    +0.000 HD
BRANCH   9  13
ATOM     13  C   UNL     1       6.593   4.917  13.764  0.00  0.00    +0.000 C 
BRANCH  13  15
ATOM     14  C   UNL     1       7.302   3.514  11.753  0.00  0.00    +0.000 C 
ATOM     15  C   UNL     1       6.318   3.633  12.929  0.00  0.00    +0.000 C 
ATOM     16  C   UNL     1       4.878   3.597  12.391  0.00  0.00    +0.000 C 
ENDBRANCH  13  15
BRANCH  13  17
ATOM     17  N   UNL     1       7.962   5.383  13.515  0.00  0.00    +0.000 NA
ATOM     18  H   UNL     1       8.205   6.165  14.168  0.00  0.00    +0.000 HD
ATOM     19  H   UNL     1       8.050   5.729  12.532  0.00  0.00    +0.000 HD
ENDBRANCH  13  17
ENDBRANCH   9  13
ENDBRANCH   1  11
BRANCH   6  20
ATOM     20  C   UNL     1       1.386   3.893  18.785  0.00  0.00    +0.000 C 
BRANCH  20  21
ATOM     21  C   UNL     1       1.326   2.597  19.555  0.00  0.00    +0.000 C 
ATOM     22  O   UNL     1       1.051   2.614  20.746  0.00  0.00    +0.000 OA
BRANCH  21  23
ATOM     23  O   UNL     1       1.544   1.414  18.945  0.00  0.00    +0.000 OA
ATOM     24  H   UNL     1       1.892   1.362  18.045  0.00  0.00    +0.000 HD
ENDBRANCH  21  23
ENDBRANCH  20  21
ENDBRANCH   6  20
TORSDOF 7
ENDMDL
