MODEL 1
REMARK VINA RESULT:      -7.9      0.000      0.000
REMARK  Name = 
REMARK  7 active torsions:
REMARK  status: ('A' for Active; 'I' for Inactive)
REMARK    1  A    between atoms: C_1  and  C_2
REMARK    2  A    between atoms: C_7  and  N_8
REMARK    3  A    between atoms: N_11  and  C_12
REMARK    4  A    between atoms: C_12  and  C_13
REMARK    5  A    between atoms: C_13  and  C_14
REMARK    6  A    between atoms: C_17  and  N_18
REMARK    7  A    between atoms: C_19  and  C_21
REMARK                            x       y       z     vdW  Elec       q    Type
REMARK                         _______ _______ _______ _____ _____    ______ ____
ROOT
ATOM      1  C   UNL     1       8.675   8.440  18.704  0.00  0.00    +0.000 C 
ENDROOT
BRANCH   1   2
ATOM      2  C   UNL     1       8.700   9.974  18.812  0.00  0.00    +0.000 C 
ATOM      3  C   UNL     1      10.081  10.481  19.248  0.00  0.00    +0.000 C 
ATOM      4  C   UNL     1      10.130  11.999  19.309  0.00  0.00    +0.000 C 
ATOM      5  C   UNL     1       9.705  12.639  17.984  0.00  0.00    +0.000 C 
ATOM      6  C   UNL     1       8.327  12.129  17.540  0.00  0.00    +0.000 C 
ATOM      7  C   UNL     1       8.292  10.605  17.472  0.00  0.00    +0.000 C 
BRANCH   5   8
ATOM      8  N   UNL     1       9.697  14.081  18.131  0.00  0.00    +0.000 N 
ATOM      9  C   UNL     1      10.560  14.909  17.449  0.00  0.00    +0.000 C 
ATOM     10  O   UNL     1      11.427  14.476  16.698  0.00  0.00    +0.000 OA
ATOM     11  H   UNL     1       8.942  14.518  18.645  0.00  0.00    +0.000 HD
BRANCH   9  12
ATOM     12  C   UNL     1      10.360  16.333  17.693  0.00  0.00    +0.000 A 
ATOM     13  C   UNL     1      11.280  17.349  17.485  0.00  0.00    +0.000 A 
ATOM     14  C   UNL     1      10.766  18.631  17.837  0.00  0.00    +0.000 A 
ATOM     15  C   UNL     1       9.475  18.559  18.305  0.00  0.00    +0.000 A 
ATOM     16  S   UNL     1       8.885  16.956  18.316  0.00  0.00    +0.000 S 
ENDBRANCH   9  12
ENDBRANCH   5   8
ENDBRANCH   1   2
BRANCH   1  17
ATOM     17  C   UNL     1       7.723   7.900  17.625  0.00  0.00    +0.000 C 
BRANCH  17  21
ATOM     18  N   UNL     1       5.086   5.452  17.905  0.00  0.00    +0.000 N 
ATOM     19  C   UNL     1       5.973   5.739  19.039  0.00  0.00    +0.000 C 
ATOM     20  C   UNL     1       7.460   5.670  18.622  0.00  0.00    +0.000 C 
ATOM     21  N   UNL     1       7.817   6.447  17.413  0.00  0.00    +0.000 NA
ATOM     22  C   UNL     1       6.904   6.011  16.325  0.00  0.00    +0.000 C 
ATOM     23  C   UNL     1       5.401   6.163  16.655  0.00  0.00    +0.000 C 
BRANCH  18  30
ATOM     24  C   UNL     1       2.432   6.514  18.920  0.00  0.00    +0.000 C 
ATOM     25  C   UNL     1       2.719   5.085  18.536  0.00  0.00    +0.000 A 
ATOM     26  C   UNL     1       1.657   4.169  18.675  0.00  0.00    +0.000 A 
ATOM     27  C   UNL     1       1.780   2.844  18.269  0.00  0.00    +0.000 A 
ATOM     28  C   UNL     1       2.978   2.411  17.724  0.00  0.00    +0.000 A 
ATOM     29  C   UNL     1       4.046   3.301  17.611  0.00  0.00    +0.000 A 
ATOM     30  C   UNL     1       3.964   4.651  18.015  0.00  0.00    +0.000 A 
ENDBRANCH  18  30
ENDBRANCH  17  21
ENDBRANCH   1  17
TORSDOF 6
ENDMDL
MODEL 2
REMARK VINA RESULT:      -7.8      1.188      1.550
REMARK  Name = 
REMARK  7 active torsions:
REMARK  status: ('A' for Active; 'I' for Inactive)
REMARK    1  A    between atoms: C_1  and  C_2
REMARK    2  A    between atoms: C_7  and  N_8
REMARK    3  A    between atoms: N_11  and  C_12
REMARK    4  A    between atoms: C_12  and  C_13
REMARK    5  A    between atoms: C_13  and  C_14
REMARK    6  A    between atoms: C_17  and  N_18
REMARK    7  A    between atoms: C_19  and  C_21
REMARK                            x       y       z     vdW  Elec       q    Type
REMARK                         _______ _______ _______ _____ _____    ______ ____
ROOT
ATOM      1  C   UNL     1       8.389   8.439  18.585  0.00  0.00    +0.000 C 
ENDROOT
BRANCH   1   2
ATOM      2  C   UNL     1       9.086   9.797  18.407  0.00  0.00    +0.000 C 
ATOM      3  C   UNL     1       8.142  10.831  17.777  0.00  0.00    +0.000 C 
ATOM      4  C   UNL     1       8.807  12.192  17.644  0.00  0.00    +0.000 C 
ATOM      5  C   UNL     1       9.354  12.695  18.983  0.00  0.00    +0.000 C 
ATOM      6  C   UNL     1      10.292  11.661  19.621  0.00  0.00    +0.000 C 
ATOM      7  C   UNL     1       9.612  10.302  19.760  0.00  0.00    +0.000 C 
BRANCH   5   8
ATOM      8  N   UNL     1      10.041  13.954  18.776  0.00  0.00    +0.000 N 
ATOM      9  C   UNL     1       9.524  15.165  19.177  0.00  0.00    +0.000 C 
ATOM     10  O   UNL     1       8.421  15.265  19.702  0.00  0.00    +0.000 OA
ATOM     11  H   UNL     1      11.000  13.942  18.450  0.00  0.00    +0.000 HD
BRANCH   9  12
ATOM     12  C   UNL     1      10.391  16.312  18.926  0.00  0.00    +0.000 A 
ATOM     13  C   UNL     1      11.496  16.696  19.669  0.00  0.00    +0.000 A 
ATOM     14  C   UNL     1      12.114  17.874  19.156  0.00  0.00    +0.000 A 
ATOM     15  C   UNL     1      11.466  18.356  18.044  0.00  0.00    +0.000 A 
ATOM     16  S   UNL     1      10.122  17.392  17.617  0.00  0.00    +0.000 S 
ENDBRANCH   9  12
ENDBRANCH   5   8
ENDBRANCH   1   2
BRANCH   1  17
ATOM     17  C   UNL     1       7.456   8.053  17.426  0.00  0.00    +0.000 C 
BRANCH  17  21
ATOM     18  N   UNL     1       4.905   5.524  17.769  0.00  0.00    +0.000 N 
ATOM     19  C   UNL     1       5.934   5.703  18.800  0.00  0.00    +0.000 C 
ATOM     20  C   UNL     1       7.352   5.719  18.185  0.00  0.00    +0.000 C 
ATOM     21  N   UNL     1       7.535   6.636  17.036  0.00  0.00    +0.000 NA
ATOM     22  C   UNL     1       6.488   6.303  16.036  0.00  0.00    +0.000 C 
ATOM     23  C   UNL     1       5.041   6.379  16.579  0.00  0.00    +0.000 C 
BRANCH  18  30
ATOM     24  C   UNL     1       2.352   6.440  19.126  0.00  0.00    +0.000 C 
ATOM     25  C   UNL     1       2.624   5.050  18.610  0.00  0.00    +0.000 A 
ATOM     26  C   UNL     1       1.599   4.099  18.789  0.00  0.00    +0.000 A 
ATOM     27  C   UNL     1       1.705   2.810  18.275  0.00  0.00    +0.000 A 
ATOM     28  C   UNL     1       2.847   2.448  17.580  0.00  0.00    +0.000 A 
ATOM     29  C   UNL     1       3.881   3.373  17.425  0.00  0.00    +0.000 A 
ATOM     30  C   UNL     1       3.816   4.688  17.933  0.00  0.00    +0.000 A 
ENDBRANCH  18  30
ENDBRANCH  17  21
ENDBRANCH   1  17
TORSDOF 6
ENDMDL
MODEL 3
REMARK VINA RESULT:      -7.7      0.962      1.393
REMARK  Name = 
REMARK  7 active torsions:
REMARK  status: ('A' for Active; 'I' for Inactive)
REMARK    1  A    between atoms: C_1  and  C_2
REMARK    2  A    between atoms: C_7  and  N_8
REMARK    3  A    between atoms: N_11  and  C_12
REMARK    4  A    between atoms: C_12  and  C_13
REMARK    5  A    between atoms: C_13  and  C_14
REMARK    6  A    between atoms: C_17  and  N_18
REMARK    7  A    between atoms: C_19  and  C_21
REMARK                            x       y       z     vdW  Elec       q    Type
REMARK                         _______ _______ _______ _____ _____    ______ ____
ROOT
ATOM      1  C   UNL     1       8.593   8.418  18.733  0.00  0.00    +0.000 C 
ENDROOT
BRANCH   1   2
ATOM      2  C   UNL     1       9.152   9.842  18.576  0.00  0.00    +0.000 C 
ATOM      3  C   UNL     1       8.179  10.741  17.802  0.00  0.00    +0.000 C 
ATOM      4  C   UNL     1       8.700  12.165  17.686  0.00  0.00    +0.000 C 
ATOM      5  C   UNL     1       9.030  12.767  19.055  0.00  0.00    +0.000 C 
ATOM      6  C   UNL     1       9.996  11.867  19.837  0.00  0.00    +0.000 C 
ATOM      7  C   UNL     1       9.460  10.443  19.957  0.00  0.00    +0.000 C 
BRANCH   5   8
ATOM      8  N   UNL     1       9.593  14.090  18.872  0.00  0.00    +0.000 N 
ATOM      9  C   UNL     1      10.773  14.317  18.201  0.00  0.00    +0.000 C 
ATOM     10  O   UNL     1      11.454  13.404  17.747  0.00  0.00    +0.000 OA
ATOM     11  H   UNL     1       9.035  14.898  19.121  0.00  0.00    +0.000 HD
BRANCH   9  12
ATOM     12  C   UNL     1      11.144  15.722  18.077  0.00  0.00    +0.000 A 
ATOM     13  C   UNL     1      10.637  16.638  17.168  0.00  0.00    +0.000 A 
ATOM     14  C   UNL     1      11.226  17.929  17.310  0.00  0.00    +0.000 A 
ATOM     15  C   UNL     1      12.163  17.962  18.315  0.00  0.00    +0.000 A 
ATOM     16  S   UNL     1      12.329  16.448  19.087  0.00  0.00    +0.000 S 
ENDBRANCH   9  12
ENDBRANCH   5   8
ENDBRANCH   1   2
BRANCH   1  17
ATOM     17  C   UNL     1       7.697   7.962  17.570  0.00  0.00    +0.000 C 
BRANCH  17  21
ATOM     18  N   UNL     1       5.064   5.503  17.781  0.00  0.00    +0.000 N 
ATOM     19  C   UNL     1       5.981   5.725  18.906  0.00  0.00    +0.000 C 
ATOM     20  C   UNL     1       7.456   5.679  18.447  0.00  0.00    +0.000 C 
ATOM     21  N   UNL     1       7.783   6.522  17.274  0.00  0.00    +0.000 NA
ATOM     22  C   UNL     1       6.841   6.149  16.187  0.00  0.00    +0.000 C 
ATOM     23  C   UNL     1       5.347   6.283  16.565  0.00  0.00    +0.000 C 
BRANCH  18  30
ATOM     24  C   UNL     1       2.292   6.637  18.264  0.00  0.00    +0.000 C 
ATOM     25  C   UNL     1       2.638   5.173  18.156  0.00  0.00    +0.000 A 
ATOM     26  C   UNL     1       1.574   4.261  18.305  0.00  0.00    +0.000 A 
ATOM     27  C   UNL     1       1.760   2.892  18.137  0.00  0.00    +0.000 A 
ATOM     28  C   UNL     1       3.022   2.412  17.827  0.00  0.00    +0.000 A 
ATOM     29  C   UNL     1       4.088   3.304  17.709  0.00  0.00    +0.000 A 
ATOM     30  C   UNL     1       3.944   4.698  17.875  0.00  0.00    +0.000 A 
ENDBRANCH  18  30
ENDBRANCH  17  21
ENDBRANCH   1  17
TORSDOF 6
ENDMDL
MODEL 4
REMARK VINA RESULT:      -7.4      1.432      2.156
REMARK  Name = 
REMARK  7 active torsions:
REMARK  status: ('A' for Active; 'I' for Inactive)
REMARK    1  A    between atoms: C_1  and  C_2
REMARK    2  A    between atoms: C_7  and  N_8
REMARK    3  A    between atoms: N_11  and  C_12
REMARK    4  A    between atoms: C_12  and  C_13
REMARK    5  A    between atoms: C_13  and  C_14
REMARK    6  A    between atoms: C_17  and  N_18
REMARK    7  A    between atoms: C_19  and  C_21
REMARK                            x       y       z     vdW  Elec       q    Type
REMARK                         _______ _______ _______ _____ _____    ______ ____
ROOT
ATOM      1  C   UNL     1       8.253   8.193  18.420  0.00  0.00    +0.000 C 
ENDROOT
BRANCH   1   2
ATOM      2  C   UNL     1       8.898   9.577  18.235  0.00  0.00    +0.000 C 
ATOM      3  C   UNL     1       7.874  10.607  17.738  0.00  0.00    +0.000 C 
ATOM      4  C   UNL     1       8.490  11.990  17.600  0.00  0.00    +0.000 C 
ATOM      5  C   UNL     1       9.148  12.456  18.902  0.00  0.00    +0.000 C 
ATOM      6  C   UNL     1      10.166  11.425  19.408  0.00  0.00    +0.000 C 
ATOM      7  C   UNL     1       9.536  10.043  19.552  0.00  0.00    +0.000 C 
BRANCH   5   8
ATOM      8  N   UNL     1       9.781  13.741  18.684  0.00  0.00    +0.000 N 
ATOM      9  C   UNL     1       9.663  14.795  19.562  0.00  0.00    +0.000 C 
ATOM     10  O   UNL     1       8.974  14.729  20.575  0.00  0.00    +0.000 OA
ATOM     11  H   UNL     1      10.452  13.836  17.931  0.00  0.00    +0.000 HD
BRANCH   9  12
ATOM     12  C   UNL     1      10.418  15.986  19.192  0.00  0.00    +0.000 A 
ATOM     13  C   UNL     1      11.501  16.048  18.327  0.00  0.00    +0.000 A 
ATOM     14  C   UNL     1      12.016  17.371  18.194  0.00  0.00    +0.000 A 
ATOM     15  C   UNL     1      11.318  18.277  18.957  0.00  0.00    +0.000 A 
ATOM     16  S   UNL     1      10.048  17.538  19.826  0.00  0.00    +0.000 S 
ENDBRANCH   9  12
ENDBRANCH   5   8
ENDBRANCH   1   2
BRANCH   1  17
ATOM     17  C   UNL     1       6.924   8.012  17.670  0.00  0.00    +0.000 C 
BRANCH  17  21
ATOM     18  N   UNL     1       4.351   5.655  18.590  0.00  0.00    +0.000 N 
ATOM     19  C   UNL     1       5.670   5.621  19.233  0.00  0.00    +0.000 C 
ATOM     20  C   UNL     1       6.807   5.612  18.186  0.00  0.00    +0.000 C 
ATOM     21  N   UNL     1       6.713   6.655  17.139  0.00  0.00    +0.000 NA
ATOM     22  C   UNL     1       5.370   6.534  16.516  0.00  0.00    +0.000 C 
ATOM     23  C   UNL     1       4.193   6.645  17.513  0.00  0.00    +0.000 C 
BRANCH  18  30
ATOM     24  C   UNL     1       3.757   2.912  17.439  0.00  0.00    +0.000 C 
ATOM     25  C   UNL     1       2.933   3.627  18.480  0.00  0.00    +0.000 A 
ATOM     26  C   UNL     1       1.782   2.957  18.942  0.00  0.00    +0.000 A 
ATOM     27  C   UNL     1       0.996   3.482  19.963  0.00  0.00    +0.000 A 
ATOM     28  C   UNL     1       1.345   4.696  20.532  0.00  0.00    +0.000 A 
ATOM     29  C   UNL     1       2.464   5.382  20.060  0.00  0.00    +0.000 A 
ATOM     30  C   UNL     1       3.285   4.888  19.024  0.00  0.00    +0.000 A 
ENDBRANCH  18  30
ENDBRANCH  17  21
ENDBRANCH   1  17
TORSDOF 6
ENDMDL
MODEL 5
REMARK VINA RESULT:      -7.2      6.369     10.973
REMARK  Name = 
REMARK  7 active torsions:
REMARK  status: ('A' for Active; 'I' for Inactive)
REMARK    1  A    between atoms: C_1  and  C_2
REMARK    2  A    between atoms: C_7  and  N_8
REMARK    3  A    between atoms: N_11  and  C_12
REMARK    4  A    between atoms: C_12  and  C_13
REMARK    5  A    between atoms: C_13  and  C_14
REMARK    6  A    between atoms: C_17  and  N_18
REMARK    7  A    between atoms: C_19  and  C_21
REMARK                            x       y       z     vdW  Elec       q    Type
REMARK                         _______ _______ _______ _____ _____    ______ ____
ROOT
ATOM      1  C   UNL     1      -0.081   9.644  20.935  0.00  0.00    +0.000 C 
ENDROOT
BRANCH   1   2
ATOM      2  C   UNL     1       1.172   9.065  20.257  0.00  0.00    +0.000 C 
ATOM      3  C   UNL     1       1.331   7.569  20.563  0.00  0.00    +0.000 C 
ATOM      4  C   UNL     1       2.539   6.976  19.856  0.00  0.00    +0.000 C 
ATOM      5  C   UNL     1       2.496   7.223  18.345  0.00  0.00    +0.000 C 
ATOM      6  C   UNL     1       2.328   8.716  18.033  0.00  0.00    +0.000 C 
ATOM      7  C   UNL     1       1.108   9.300  18.739  0.00  0.00    +0.000 C 
BRANCH   5   8
ATOM      8  N   UNL     1       3.707   6.703  17.742  0.00  0.00    +0.000 N 
ATOM      9  C   UNL     1       3.904   5.365  17.486  0.00  0.00    +0.000 C 
ATOM     10  O   UNL     1       3.079   4.512  17.793  0.00  0.00    +0.000 OA
ATOM     11  H   UNL     1       4.384   7.354  17.361  0.00  0.00    +0.000 HD
BRANCH   9  12
ATOM     12  C   UNL     1       5.166   5.049  16.826  0.00  0.00    +0.000 A 
ATOM     13  C   UNL     1       6.307   4.534  17.421  0.00  0.00    +0.000 A 
ATOM     14  C   UNL     1       7.372   4.352  16.490  0.00  0.00    +0.000 A 
ATOM     15  C   UNL     1       7.016   4.734  15.218  0.00  0.00    +0.000 A 
ATOM     16  S   UNL     1       5.408   5.304  15.145  0.00  0.00    +0.000 S 
ENDBRANCH   9  12
ENDBRANCH   5   8
ENDBRANCH   1   2
BRANCH   1  17
ATOM     17  C   UNL     1      -0.940  10.530  20.019  0.00  0.00    +0.000 C 
BRANCH  17  21
ATOM     18  N   UNL     1       0.807  13.563  19.141  0.00  0.00    +0.000 N 
ATOM     19  C   UNL     1       1.218  12.765  20.301  0.00  0.00    +0.000 C 
ATOM     20  C   UNL     1       0.017  12.447  21.221  0.00  0.00    +0.000 C 
ATOM     21  N   UNL     1      -1.173  11.887  20.540  0.00  0.00    +0.000 NA
ATOM     22  C   UNL     1      -1.532  12.821  19.442  0.00  0.00    +0.000 C 
ATOM     23  C   UNL     1      -0.392  13.086  18.432  0.00  0.00    +0.000 C 
BRANCH  18  30
ATOM     24  C   UNL     1      -0.115  16.434  19.473  0.00  0.00    +0.000 C 
ATOM     25  C   UNL     1       1.129  15.988  18.748  0.00  0.00    +0.000 A 
ATOM     26  C   UNL     1       1.919  17.001  18.169  0.00  0.00    +0.000 A 
ATOM     27  C   UNL     1       3.133  16.714  17.552  0.00  0.00    +0.000 A 
ATOM     28  C   UNL     1       3.572  15.402  17.496  0.00  0.00    +0.000 A 
ATOM     29  C   UNL     1       2.782  14.387  18.038  0.00  0.00    +0.000 A 
ATOM     30  C   UNL     1       1.543  14.634  18.668  0.00  0.00    +0.000 A 
ENDBRANCH  18  30
ENDBRANCH  17  21
ENDBRANCH   1  17
TORSDOF 6
ENDMDL
MODEL 6
REMARK VINA RESULT:      -7.2      1.070      1.723
REMARK  Name = 
REMARK  7 active torsions:
REMARK  status: ('A' for Active; 'I' for Inactive)
REMARK    1  A    between atoms: C_1  and  C_2
REMARK    2  A    between atoms: C_7  and  N_8
REMARK    3  A    between atoms: N_11  and  C_12
REMARK    4  A    between atoms: C_12  and  C_13
REMARK    5  A    between atoms: C_13  and  C_14
REMARK    6  A    between atoms: C_17  and  N_18
REMARK    7  A    between atoms: C_19  and  C_21
REMARK                            x       y       z     vdW  Elec       q    Type
REMARK                         _______ _______ _______ _____ _____    ______ ____
ROOT
ATOM      1  C   UNL     1       8.231   8.120  18.253  0.00  0.00    +0.000 C 
ENDROOT
BRANCH   1   2
ATOM      2  C   UNL     1       8.355   9.625  18.546  0.00  0.00    +0.000 C 
ATOM      3  C   UNL     1       9.779   9.993  18.984  0.00  0.00    +0.000 C 
ATOM      4  C   UNL     1       9.924  11.487  19.227  0.00  0.00    +0.000 C 
ATOM      5  C   UNL     1       9.497  12.309  18.008  0.00  0.00    +0.000 C 
ATOM      6  C   UNL     1       8.077  11.939  17.561  0.00  0.00    +0.000 C 
ATOM      7  C   UNL     1       7.944  10.439  17.309  0.00  0.00    +0.000 C 
BRANCH   5   8
ATOM      8  N   UNL     1       9.585  13.720  18.329  0.00  0.00    +0.000 N 
ATOM      9  C   UNL     1      10.588  14.536  17.858  0.00  0.00    +0.000 C 
ATOM     10  O   UNL     1      11.506  14.111  17.165  0.00  0.00    +0.000 OA
ATOM     11  H   UNL     1       8.807  14.164  18.803  0.00  0.00    +0.000 HD
BRANCH   9  12
ATOM     12  C   UNL     1      10.471  15.936  18.250  0.00  0.00    +0.000 A 
ATOM     13  C   UNL     1       9.312  16.602  18.616  0.00  0.00    +0.000 A 
ATOM     14  C   UNL     1       9.547  17.972  18.930  0.00  0.00    +0.000 A 
ATOM     15  C   UNL     1      10.871  18.314  18.793  0.00  0.00    +0.000 A 
ATOM     16  S   UNL     1      11.827  16.990  18.294  0.00  0.00    +0.000 S 
ENDBRANCH   9  12
ENDBRANCH   5   8
ENDBRANCH   1   2
BRANCH   1  17
ATOM     17  C   UNL     1       6.986   7.738  17.437  0.00  0.00    +0.000 C 
BRANCH  17  21
ATOM     18  N   UNL     1       4.415   5.470  18.562  0.00  0.00    +0.000 N 
ATOM     19  C   UNL     1       5.668   5.621  19.311  0.00  0.00    +0.000 C 
ATOM     20  C   UNL     1       6.898   5.473  18.387  0.00  0.00    +0.000 C 
ATOM     21  N   UNL     1       6.870   6.297  17.157  0.00  0.00    +0.000 NA
ATOM     22  C   UNL     1       5.596   5.996  16.454  0.00  0.00    +0.000 C 
ATOM     23  C   UNL     1       4.327   6.233  17.307  0.00  0.00    +0.000 C 
BRANCH  18  30
ATOM     24  C   UNL     1       3.809   2.654  17.610  0.00  0.00    +0.000 C 
ATOM     25  C   UNL     1       2.981   3.450  18.586  0.00  0.00    +0.000 A 
ATOM     26  C   UNL     1       1.820   2.825  19.085  0.00  0.00    +0.000 A 
ATOM     27  C   UNL     1       1.027   3.430  20.056  0.00  0.00    +0.000 A 
ATOM     28  C   UNL     1       1.381   4.680  20.538  0.00  0.00    +0.000 A 
ATOM     29  C   UNL     1       2.511   5.321  20.028  0.00  0.00    +0.000 A 
ATOM     30  C   UNL     1       3.339   4.745  19.040  0.00  0.00    +0.000 A 
ENDBRANCH  18  30
ENDBRANCH  17  21
ENDBRANCH   1  17
TORSDOF 6
ENDMDL
MODEL 7
REMARK VINA RESULT:      -7.0      1.163      1.709
REMARK  Name = 
REMARK  7 active torsions:
REMARK  status: ('A' for Active; 'I' for Inactive)
REMARK    1  A    between atoms: C_1  and  C_2
REMARK    2  A    between atoms: C_7  and  N_8
REMARK    3  A    between atoms: N_11  and  C_12
REMARK    4  A    between atoms: C_12  and  C_13
REMARK    5  A    between atoms: C_13  and  C_14
REMARK    6  A    between atoms: C_17  and  N_18
REMARK    7  A    between atoms: C_19  and  C_21
REMARK                            x       y       z     vdW  Elec       q    Type
REMARK                         _______ _______ _______ _____ _____    ______ ____
ROOT
ATOM      1  C   UNL     1       8.783   8.788  18.612  0.00  0.00    +0.000 C 
ENDROOT
BRANCH   1   2
ATOM      2  C   UNL     1       8.985  10.306  18.752  0.00  0.00    +0.000 C 
ATOM      3  C   UNL     1       9.536  10.669  20.138  0.00  0.00    +0.000 C 
ATOM      4  C   UNL     1       9.787  12.163  20.269  0.00  0.00    +0.000 C 
ATOM      5  C   UNL     1      10.704  12.688  19.161  0.00  0.00    +0.000 C 
ATOM      6  C   UNL     1      10.163  12.320  17.773  0.00  0.00    +0.000 C 
ATOM      7  C   UNL     1       9.924  10.818  17.648  0.00  0.00    +0.000 C 
BRANCH   5   8
ATOM      8  N   UNL     1      10.841  14.125  19.295  0.00  0.00    +0.000 N 
ATOM      9  C   UNL     1      11.616  14.887  18.451  0.00  0.00    +0.000 C 
ATOM     10  O   UNL     1      12.282  14.392  17.548  0.00  0.00    +0.000 OA
ATOM     11  H   UNL     1      10.239  14.617  19.945  0.00  0.00    +0.000 HD
BRANCH   9  12
ATOM     12  C   UNL     1      11.583  16.321  18.718  0.00  0.00    +0.000 A 
ATOM     13  C   UNL     1      11.915  17.338  17.837  0.00  0.00    +0.000 A 
ATOM     14  C   UNL     1      11.783  18.631  18.422  0.00  0.00    +0.000 A 
ATOM     15  C   UNL     1      11.359  18.566  19.728  0.00  0.00    +0.000 A 
ATOM     16  S   UNL     1      11.117  16.956  20.244  0.00  0.00    +0.000 S 
ENDBRANCH   9  12
ENDBRANCH   5   8
ENDBRANCH   1   2
BRANCH   1  17
ATOM     17  C   UNL     1       7.620   8.390  17.690  0.00  0.00    +0.000 C 
BRANCH  17  21
ATOM     18  N   UNL     1       5.072   5.845  17.914  0.00  0.00    +0.000 N 
ATOM     19  C   UNL     1       6.124   5.951  18.932  0.00  0.00    +0.000 C 
ATOM     20  C   UNL     1       7.527   6.008  18.288  0.00  0.00    +0.000 C 
ATOM     21  N   UNL     1       7.687   7.002  17.202  0.00  0.00    +0.000 NA
ATOM     22  C   UNL     1       6.617   6.741  16.205  0.00  0.00    +0.000 C 
ATOM     23  C   UNL     1       5.184   6.780  16.783  0.00  0.00    +0.000 C 
BRANCH  18  30
ATOM     24  C   UNL     1       4.814   3.279  16.316  0.00  0.00    +0.000 C 
ATOM     25  C   UNL     1       3.791   3.821  17.281  0.00  0.00    +0.000 A 
ATOM     26  C   UNL     1       2.610   3.067  17.438  0.00  0.00    +0.000 A 
ATOM     27  C   UNL     1       1.636   3.425  18.365  0.00  0.00    +0.000 A 
ATOM     28  C   UNL     1       1.825   4.553  19.146  0.00  0.00    +0.000 A 
ATOM     29  C   UNL     1       2.975   5.324  18.976  0.00  0.00    +0.000 A 
ATOM     30  C   UNL     1       3.985   5.000  18.045  0.00  0.00    +0.000 A 
ENDBRANCH  18  30
ENDBRANCH  17  21
ENDBRANCH   1  17
TORSDOF 6
ENDMDL
MODEL 8
REMARK VINA RESULT:      -7.0      1.430      1.472
REMARK  Name = 
REMARK  7 active torsions:
REMARK  status: ('A' for Active; 'I' for Inactive)
REMARK    1  A    between atoms: C_1  and  C_2
REMARK    2  A    between atoms: C_7  and  N_8
REMARK    3  A    between atoms: N_11  and  C_12
REMARK    4  A    between atoms: C_12  and  C_13
REMARK    5  A    between atoms: C_13  and  C_14
REMARK    6  A    between atoms: C_17  and  N_18
REMARK    7  A    between atoms: C_19  and  C_21
REMARK                            x       y       z     vdW  Elec       q    Type
REMARK                         _______ _______ _______ _____ _____    ______ ____
ROOT
ATOM      1  C   UNL     1       8.698   8.542  18.444  0.00  0.00    +0.000 C 
ENDROOT
BRANCH   1   2
ATOM      2  C   UNL     1       8.745  10.058  18.696  0.00  0.00    +0.000 C 
ATOM      3  C   UNL     1       9.197  10.372  20.129  0.00  0.00    +0.000 C 
ATOM      4  C   UNL     1       9.295  11.870  20.371  0.00  0.00    +0.000 C 
ATOM      5  C   UNL     1      10.204  12.557  19.349  0.00  0.00    +0.000 C 
ATOM      6  C   UNL     1       9.762  12.239  17.914  0.00  0.00    +0.000 C 
ATOM      7  C   UNL     1       9.676  10.734  17.677  0.00  0.00    +0.000 C 
BRANCH   5   8
ATOM      8  N   UNL     1      10.195  13.987  19.586  0.00  0.00    +0.000 N 
ATOM      9  C   UNL     1       9.095  14.780  19.347  0.00  0.00    +0.000 C 
ATOM     10  O   UNL     1       8.056  14.333  18.873  0.00  0.00    +0.000 OA
ATOM     11  H   UNL     1      10.974  14.408  20.078  0.00  0.00    +0.000 HD
BRANCH   9  12
ATOM     12  C   UNL     1       9.268  16.185  19.699  0.00  0.00    +0.000 A 
ATOM     13  C   UNL     1      10.408  16.776  20.222  0.00  0.00    +0.000 A 
ATOM     14  C   UNL     1      10.235  18.170  20.465  0.00  0.00    +0.000 A 
ATOM     15  C   UNL     1       8.976  18.602  20.124  0.00  0.00    +0.000 A 
ATOM     16  S   UNL     1       8.007  17.336  19.512  0.00  0.00    +0.000 S 
ENDBRANCH   9  12
ENDBRANCH   5   8
ENDBRANCH   1   2
BRANCH   1  17
ATOM     17  C   UNL     1       7.507   8.082  17.589  0.00  0.00    +0.000 C 
BRANCH  17  21
ATOM     18  N   UNL     1       4.976   5.516  17.758  0.00  0.00    +0.000 N 
ATOM     19  C   UNL     1       5.991   5.646  18.811  0.00  0.00    +0.000 C 
ATOM     20  C   UNL     1       7.415   5.708  18.215  0.00  0.00    +0.000 C 
ATOM     21  N   UNL     1       7.604   6.689  17.122  0.00  0.00    +0.000 NA
ATOM     22  C   UNL     1       6.572   6.404  16.092  0.00  0.00    +0.000 C 
ATOM     23  C   UNL     1       5.119   6.437  16.619  0.00  0.00    +0.000 C 
BRANCH  18  30
ATOM     24  C   UNL     1       2.188   6.512  18.418  0.00  0.00    +0.000 C 
ATOM     25  C   UNL     1       2.584   5.071  18.223  0.00  0.00    +0.000 A 
ATOM     26  C   UNL     1       1.563   4.110  18.374  0.00  0.00    +0.000 A 
ATOM     27  C   UNL     1       1.794   2.759  18.132  0.00  0.00    +0.000 A 
ATOM     28  C   UNL     1       3.057   2.346  17.743  0.00  0.00    +0.000 A 
ATOM     29  C   UNL     1       4.082   3.285  17.621  0.00  0.00    +0.000 A 
ATOM     30  C   UNL     1       3.893   4.663  17.862  0.00  0.00    +0.000 A 
ENDBRANCH  18  30
ENDBRANCH  17  21
ENDBRANCH   1  17
TORSDOF 6
ENDMDL
MODEL 9
REMARK VINA RESULT:      -7.0      1.957      2.190
REMARK  Name = 
REMARK  7 active torsions:
REMARK  status: ('A' for Active; 'I' for Inactive)
REMARK    1  A    between atoms: C_1  and  C_2
REMARK    2  A    between atoms: C_7  and  N_8
REMARK    3  A    between atoms: N_11  and  C_12
REMARK    4  A    between atoms: C_12  and  C_13
REMARK    5  A    between atoms: C_13  and  C_14
REMARK    6  A    between atoms: C_17  and  N_18
REMARK    7  A    between atoms: C_19  and  C_21
REMARK                            x       y       z     vdW  Elec       q    Type
REMARK                         _______ _______ _______ _____ _____    ______ ____
ROOT
ATOM      1  C   UNL     1       8.121   8.931  17.544  0.00  0.00    +0.000 C 
ENDROOT
BRANCH   1   2
ATOM      2  C   UNL     1       8.888  10.168  18.040  0.00  0.00    +0.000 C 
ATOM      3  C   UNL     1       8.186  11.466  17.619  0.00  0.00    +0.000 C 
ATOM      4  C   UNL     1       8.909  12.694  18.148  0.00  0.00    +0.000 C 
ATOM      5  C   UNL     1       9.092  12.639  19.668  0.00  0.00    +0.000 C 
ATOM      6  C   UNL     1       9.786  11.339  20.095  0.00  0.00    +0.000 C 
ATOM      7  C   UNL     1       9.048  10.112  19.568  0.00  0.00    +0.000 C 
BRANCH   5   8
ATOM      8  N   UNL     1       9.853  13.795  20.099  0.00  0.00    +0.000 N 
ATOM      9  C   UNL     1       9.296  15.044  20.257  0.00  0.00    +0.000 C 
ATOM     10  O   UNL     1       8.119  15.273  20.000  0.00  0.00    +0.000 OA
ATOM     11  H   UNL     1      10.800  13.662  20.434  0.00  0.00    +0.000 HD
BRANCH   9  12
ATOM     12  C   UNL     1      10.214  16.065  20.749  0.00  0.00    +0.000 A 
ATOM     13  C   UNL     1      11.218  15.894  21.690  0.00  0.00    +0.000 A 
ATOM     14  C   UNL     1      11.927  17.102  21.955  0.00  0.00    +0.000 A 
ATOM     15  C   UNL     1      11.446  18.157  21.215  0.00  0.00    +0.000 A 
ATOM     16  S   UNL     1      10.150  17.692  20.205  0.00  0.00    +0.000 S 
ENDBRANCH   9  12
ENDBRANCH   5   8
ENDBRANCH   1   2
BRANCH   1  17
ATOM     17  C   UNL     1       8.082   7.769  18.549  0.00  0.00    +0.000 C 
BRANCH  17  21
ATOM     18  N   UNL     1       5.215   5.600  18.238  0.00  0.00    +0.000 N 
ATOM     19  C   UNL     1       6.146   5.463  19.365  0.00  0.00    +0.000 C 
ATOM     20  C   UNL     1       7.610   5.380  18.879  0.00  0.00    +0.000 C 
ATOM     21  N   UNL     1       8.024   6.436  17.926  0.00  0.00    +0.000 NA
ATOM     22  C   UNL     1       7.053   6.420  16.802  0.00  0.00    +0.000 C 
ATOM     23  C   UNL     1       5.579   6.608  17.230  0.00  0.00    +0.000 C 
BRANCH  18  30
ATOM     24  C   UNL     1       2.643   6.686  19.423  0.00  0.00    +0.000 C 
ATOM     25  C   UNL     1       2.805   5.346  18.752  0.00  0.00    +0.000 A 
ATOM     26  C   UNL     1       1.657   4.531  18.685  0.00  0.00    +0.000 A 
ATOM     27  C   UNL     1       1.667   3.313  18.012  0.00  0.00    +0.000 A 
ATOM     28  C   UNL     1       2.835   2.886  17.401  0.00  0.00    +0.000 A 
ATOM     29  C   UNL     1       3.985   3.670  17.489  0.00  0.00    +0.000 A 
ATOM     30  C   UNL     1       4.019   4.909  18.165  0.00  0.00    +0.000 A 
ENDBRANCH  18  30
ENDBRANCH  17  21
ENDBRANCH   1  17
TORSDOF 6
ENDMDL
