MODEL 1
REMARK VINA RESULT:      -7.8      0.000      0.000
REMARK  Name = 
REMARK  12 active torsions:
REMARK  status: ('A' for Active; 'I' for Inactive)
REMARK    1  A    between atoms: C_1  and  C_2
REMARK    2  A    between atoms: C_2  and  C_3
REMARK    3  A    between atoms: C_2  and  O_4
REMARK    4  A    between atoms: C_2  and  C_29
REMARK    5  A    between atoms: O_4  and  C_5
REMARK    6  A    between atoms: C_8  and  C_9
REMARK    7  A    between atoms: C_9  and  C_10
REMARK    8  A    between atoms: C_10  and  O_11
REMARK    9  A    between atoms: O_11  and  C_12
REMARK   10  A    between atoms: C_15  and  N_16
REMARK   11  A    between atoms: N_17  and  C_18
REMARK   12  A    between atoms: C_29  and  O_31
REMARK                            x       y       z     vdW  Elec       q    Type
REMARK                         _______ _______ _______ _____ _____    ______ ____
ROOT
ATOM      1  C   UNL     1       7.001   7.649  17.273  0.00  0.00    +0.000 C 
ENDROOT
BRANCH   1   2
ATOM      2  C   UNL     1       8.185   7.862  18.216  0.00  0.00    +0.000 C 
BRANCH   2   6
ATOM      3  C   UNL     1       9.324  11.995  18.755  0.00  0.00    +0.000 A 
ATOM      4  C   UNL     1       9.636  11.036  19.725  0.00  0.00    +0.000 A 
ATOM      5  C   UNL     1       9.250   9.705  19.560  0.00  0.00    +0.000 A 
ATOM      6  C   UNL     1       8.546   9.311  18.421  0.00  0.00    +0.000 A 
ATOM      7  C   UNL     1       8.186  10.283  17.479  0.00  0.00    +0.000 A 
ATOM      8  C   UNL     1       8.556  11.620  17.659  0.00  0.00    +0.000 A 
BRANCH   3   9
ATOM      9  O   UNL     1       9.810  13.239  19.017  0.00  0.00    +0.000 OA
BRANCH   9  11
ATOM     10  C   UNL     1      11.912  14.568  19.455  0.00  0.00    +0.000 C 
ATOM     11  C   UNL     1      11.069  13.719  18.493  0.00  0.00    +0.000 C 
ATOM     12  C   UNL     1      11.848  12.563  17.864  0.00  0.00    +0.000 C 
BRANCH  11  13
ATOM     13  C   UNL     1      10.664  14.662  17.335  0.00  0.00    +0.000 C 
ATOM     14  O   UNL     1      10.018  15.692  17.471  0.00  0.00    +0.000 OA
BRANCH  13  15
ATOM     15  O   UNL     1      11.085  14.238  16.116  0.00  0.00    +0.000 OA
ATOM     16  H   UNL     1      12.065  14.167  16.126  0.00  0.00    +0.000 HD
ENDBRANCH  13  15
ENDBRANCH  11  13
ENDBRANCH   9  11
ENDBRANCH   3   9
ENDBRANCH   2   6
ENDBRANCH   1   2
BRANCH   1  17
ATOM     17  O   UNL     1       5.757   7.669  17.961  0.00  0.00    +0.000 OA
BRANCH  17  18
ATOM     18  C   UNL     1       4.873   6.633  17.771  0.00  0.00    +0.000 A 
ATOM     19  C   UNL     1       5.516   5.471  17.308  0.00  0.00    +0.000 A 
ATOM     20  C   UNL     1       4.799   4.308  17.016  0.00  0.00    +0.000 A 
ATOM     21  C   UNL     1       3.407   4.289  17.109  0.00  0.00    +0.000 A 
ATOM     22  C   UNL     1       2.771   5.420  17.628  0.00  0.00    +0.000 A 
ATOM     23  C   UNL     1       3.482   6.587  17.953  0.00  0.00    +0.000 A 
ATOM     24 CL   UNL     1       2.478   7.872  18.537  0.00  0.00    +0.000 Cl
BRANCH  21  25
ATOM     25  N   UNL     1       2.613   3.182  16.770  0.00  0.00    +0.000 NA
ATOM     26  N   UNL     1       2.177   2.358  17.611  0.00  0.00    +0.000 NA
BRANCH  26  27
ATOM     27  C   UNL     1       2.207   2.541  19.008  0.00  0.00    +0.000 A 
ATOM     28  C   UNL     1       1.006   2.913  19.632  0.00  0.00    +0.000 A 
ATOM     29  C   UNL     1       0.923   3.066  21.019  0.00  0.00    +0.000 A 
ATOM     30  C   UNL     1       2.051   2.862  21.807  0.00  0.00    +0.000 A 
ATOM     31  C   UNL     1       3.249   2.474  21.210  0.00  0.00    +0.000 A 
ATOM     32  C   UNL     1       3.314   2.277  19.826  0.00  0.00    +0.000 A 
ENDBRANCH  26  27
ENDBRANCH  21  25
ENDBRANCH  17  18
ENDBRANCH   1  17
TORSDOF 10
ENDMDL
MODEL 2
REMARK VINA RESULT:      -7.7      6.246      8.950
REMARK  Name = 
REMARK  12 active torsions:
REMARK  status: ('A' for Active; 'I' for Inactive)
REMARK    1  A    between atoms: C_1  and  C_2
REMARK    2  A    between atoms: C_2  and  C_3
REMARK    3  A    between atoms: C_2  and  O_4
REMARK    4  A    between atoms: C_2  and  C_29
REMARK    5  A    between atoms: O_4  and  C_5
REMARK    6  A    between atoms: C_8  and  C_9
REMARK    7  A    between atoms: C_9  and  C_10
REMARK    8  A    between atoms: C_10  and  O_11
REMARK    9  A    between atoms: O_11  and  C_12
REMARK   10  A    between atoms: C_15  and  N_16
REMARK   11  A    between atoms: N_17  and  C_18
REMARK   12  A    between atoms: C_29  and  O_31
REMARK                            x       y       z     vdW  Elec       q    Type
REMARK                         _______ _______ _______ _____ _____    ______ ____
ROOT
ATOM      1  C   UNL     1       1.627   6.603  20.971  0.00  0.00    +0.000 C 
ENDROOT
BRANCH   1   2
ATOM      2  C   UNL     1       1.560   5.140  20.528  0.00  0.00    +0.000 C 
BRANCH   2   6
ATOM      3  C   UNL     1       4.357   4.035  17.427  0.00  0.00    +0.000 A 
ATOM      4  C   UNL     1       4.808   4.587  18.631  0.00  0.00    +0.000 A 
ATOM      5  C   UNL     1       3.902   4.962  19.625  0.00  0.00    +0.000 A 
ATOM      6  C   UNL     1       2.531   4.791  19.430  0.00  0.00    +0.000 A 
ATOM      7  C   UNL     1       2.080   4.292  18.202  0.00  0.00    +0.000 A 
ATOM      8  C   UNL     1       2.989   3.937  17.201  0.00  0.00    +0.000 A 
BRANCH   3   9
ATOM      9  O   UNL     1       5.349   3.661  16.573  0.00  0.00    +0.000 OA
BRANCH   9  11
ATOM     10  C   UNL     1       6.264   3.955  14.238  0.00  0.00    +0.000 C 
ATOM     11  C   UNL     1       5.940   4.564  15.610  0.00  0.00    +0.000 C 
ATOM     12  C   UNL     1       5.114   5.848  15.523  0.00  0.00    +0.000 C 
BRANCH  11  13
ATOM     13  C   UNL     1       7.300   4.951  16.237  0.00  0.00    +0.000 C 
ATOM     14  O   UNL     1       8.071   4.164  16.767  0.00  0.00    +0.000 OA
BRANCH  13  15
ATOM     15  O   UNL     1       7.575   6.279  16.160  0.00  0.00    +0.000 OA
ATOM     16  H   UNL     1       8.547   6.398  16.087  0.00  0.00    +0.000 HD
ENDBRANCH  13  15
ENDBRANCH  11  13
ENDBRANCH   9  11
ENDBRANCH   3   9
ENDBRANCH   2   6
ENDBRANCH   1   2
BRANCH   1  17
ATOM     17  O   UNL     1       2.052   7.462  19.921  0.00  0.00    +0.000 OA
BRANCH  17  18
ATOM     18  C   UNL     1       1.433   8.680  19.765  0.00  0.00    +0.000 A 
ATOM     19  C   UNL     1       1.837   9.328  18.583  0.00  0.00    +0.000 A 
ATOM     20  C   UNL     1       1.357  10.595  18.245  0.00  0.00    +0.000 A 
ATOM     21  C   UNL     1       0.512  11.290  19.113  0.00  0.00    +0.000 A 
ATOM     22  C   UNL     1       0.060  10.625  20.256  0.00  0.00    +0.000 A 
ATOM     23  C   UNL     1       0.511   9.338  20.594  0.00  0.00    +0.000 A 
ATOM     24 CL   UNL     1      -0.153   8.735  22.075  0.00  0.00    +0.000 Cl
BRANCH  21  25
ATOM     25  N   UNL     1       0.042  12.591  18.876  0.00  0.00    +0.000 NA
ATOM     26  N   UNL     1      -1.016  12.842  18.249  0.00  0.00    +0.000 NA
BRANCH  26  27
ATOM     27  C   UNL     1      -1.996  11.887  17.907  0.00  0.00    +0.000 A 
ATOM     28  C   UNL     1      -3.155  11.848  18.698  0.00  0.00    +0.000 A 
ATOM     29  C   UNL     1      -4.206  10.973  18.406  0.00  0.00    +0.000 A 
ATOM     30  C   UNL     1      -4.106  10.109  17.320  0.00  0.00    +0.000 A 
ATOM     31  C   UNL     1      -2.972  10.145  16.511  0.00  0.00    +0.000 A 
ATOM     32  C   UNL     1      -1.944  11.056  16.781  0.00  0.00    +0.000 A 
ENDBRANCH  26  27
ENDBRANCH  21  25
ENDBRANCH  17  18
ENDBRANCH   1  17
TORSDOF 10
ENDMDL
MODEL 3
REMARK VINA RESULT:      -7.7      7.663     11.187
REMARK  Name = 
REMARK  12 active torsions:
REMARK  status: ('A' for Active; 'I' for Inactive)
REMARK    1  A    between atoms: C_1  and  C_2
REMARK    2  A    between atoms: C_2  and  C_3
REMARK    3  A    between atoms: C_2  and  O_4
REMARK    4  A    between atoms: C_2  and  C_29
REMARK    5  A    between atoms: O_4  and  C_5
REMARK    6  A    between atoms: C_8  and  C_9
REMARK    7  A    between atoms: C_9  and  C_10
REMARK    8  A    between atoms: C_10  and  O_11
REMARK    9  A    between atoms: O_11  and  C_12
REMARK   10  A    between atoms: C_15  and  N_16
REMARK   11  A    between atoms: N_17  and  C_18
REMARK   12  A    between atoms: C_29  and  O_31
REMARK                            x       y       z     vdW  Elec       q    Type
REMARK                         _______ _______ _______ _____ _____    ______ ____
ROOT
ATOM      1  C   UNL     1      -0.030  10.013  18.170  0.00  0.00    +0.000 C 
ENDROOT
BRANCH   1   2
ATOM      2  C   UNL     1       1.420   9.962  18.651  0.00  0.00    +0.000 C 
BRANCH   2   6
ATOM      3  C   UNL     1       2.774   5.920  19.348  0.00  0.00    +0.000 A 
ATOM      4  C   UNL     1       2.080   6.621  20.340  0.00  0.00    +0.000 A 
ATOM      5  C   UNL     1       1.660   7.934  20.121  0.00  0.00    +0.000 A 
ATOM      6  C   UNL     1       1.928   8.567  18.907  0.00  0.00    +0.000 A 
ATOM      7  C   UNL     1       2.673   7.883  17.938  0.00  0.00    +0.000 A 
ATOM      8  C   UNL     1       3.110   6.575  18.169  0.00  0.00    +0.000 A 
BRANCH   3   9
ATOM      9  O   UNL     1       3.071   4.631  19.673  0.00  0.00    +0.000 OA
BRANCH   9  11
ATOM     10  C   UNL     1       1.239   3.154  20.587  0.00  0.00    +0.000 C 
ATOM     11  C   UNL     1       2.170   3.528  19.425  0.00  0.00    +0.000 C 
ATOM     12  C   UNL     1       1.432   3.744  18.103  0.00  0.00    +0.000 C 
BRANCH  11  13
ATOM     13  C   UNL     1       3.105   2.313  19.219  0.00  0.00    +0.000 C 
ATOM     14  O   UNL     1       4.146   2.125  19.832  0.00  0.00    +0.000 OA
BRANCH  13  15
ATOM     15  O   UNL     1       2.671   1.450  18.265  0.00  0.00    +0.000 OA
ATOM     16  H   UNL     1       1.847   1.806  17.866  0.00  0.00    +0.000 HD
ENDBRANCH  13  15
ENDBRANCH  11  13
ENDBRANCH   9  11
ENDBRANCH   3   9
ENDBRANCH   2   6
ENDBRANCH   1   2
BRANCH   1  17
ATOM     17  O   UNL     1      -0.953  10.064  19.249  0.00  0.00    +0.000 OA
BRANCH  17  18
ATOM     18  C   UNL     1      -0.832  11.066  20.183  0.00  0.00    +0.000 A 
ATOM     19  C   UNL     1      -0.832  10.564  21.497  0.00  0.00    +0.000 A 
ATOM     20  C   UNL     1      -0.754  11.414  22.603  0.00  0.00    +0.000 A 
ATOM     21  C   UNL     1      -0.745  12.800  22.436  0.00  0.00    +0.000 A 
ATOM     22  C   UNL     1      -0.682  13.300  21.132  0.00  0.00    +0.000 A 
ATOM     23  C   UNL     1      -0.730  12.455  20.010  0.00  0.00    +0.000 A 
ATOM     24 CL   UNL     1      -0.681  13.302  18.500  0.00  0.00    +0.000 Cl
BRANCH  21  25
ATOM     25  N   UNL     1      -0.736  13.718  23.496  0.00  0.00    +0.000 NA
ATOM     26  N   UNL     1      -1.772  14.256  23.957  0.00  0.00    +0.000 NA
BRANCH  26  27
ATOM     27  C   UNL     1      -3.090  13.851  23.660  0.00  0.00    +0.000 A 
ATOM     28  C   UNL     1      -3.697  12.945  24.544  0.00  0.00    +0.000 A 
ATOM     29  C   UNL     1      -5.019  12.527  24.364  0.00  0.00    +0.000 A 
ATOM     30  C   UNL     1      -5.753  13.000  23.280  0.00  0.00    +0.000 A 
ATOM     31  C   UNL     1      -5.175  13.914  22.401  0.00  0.00    +0.000 A 
ATOM     32  C   UNL     1      -3.868  14.365  22.615  0.00  0.00    +0.000 A 
ENDBRANCH  26  27
ENDBRANCH  21  25
ENDBRANCH  17  18
ENDBRANCH   1  17
TORSDOF 10
ENDMDL
MODEL 4
REMARK VINA RESULT:      -7.7      6.016      8.833
REMARK  Name = 
REMARK  12 active torsions:
REMARK  status: ('A' for Active; 'I' for Inactive)
REMARK    1  A    between atoms: C_1  and  C_2
REMARK    2  A    between atoms: C_2  and  C_3
REMARK    3  A    between atoms: C_2  and  O_4
REMARK    4  A    between atoms: C_2  and  C_29
REMARK    5  A    between atoms: O_4  and  C_5
REMARK    6  A    between atoms: C_8  and  C_9
REMARK    7  A    between atoms: C_9  and  C_10
REMARK    8  A    between atoms: C_10  and  O_11
REMARK    9  A    between atoms: O_11  and  C_12
REMARK   10  A    between atoms: C_15  and  N_16
REMARK   11  A    between atoms: N_17  and  C_18
REMARK   12  A    between atoms: C_29  and  O_31
REMARK                            x       y       z     vdW  Elec       q    Type
REMARK                         _______ _______ _______ _____ _____    ______ ____
ROOT
ATOM      1  C   UNL     1       0.683   5.786  20.310  0.00  0.00    +0.000 C 
ENDROOT
BRANCH   1   2
ATOM      2  C   UNL     1       1.311   4.395  20.407  0.00  0.00    +0.000 C 
BRANCH   2   6
ATOM      3  C   UNL     1       4.484   3.826  17.532  0.00  0.00    +0.000 A 
ATOM      4  C   UNL     1       3.149   3.611  17.173  0.00  0.00    +0.000 A 
ATOM      5  C   UNL     1       2.126   3.776  18.108  0.00  0.00    +0.000 A 
ATOM      6  C   UNL     1       2.421   4.158  19.417  0.00  0.00    +0.000 A 
ATOM      7  C   UNL     1       3.762   4.317  19.788  0.00  0.00    +0.000 A 
ATOM      8  C   UNL     1       4.786   4.130  18.854  0.00  0.00    +0.000 A 
BRANCH   3   9
ATOM      9  O   UNL     1       5.371   3.687  16.509  0.00  0.00    +0.000 OA
BRANCH   9  11
ATOM     10  C   UNL     1       6.174   4.557  14.279  0.00  0.00    +0.000 C 
ATOM     11  C   UNL     1       5.903   4.809  15.768  0.00  0.00    +0.000 C 
ATOM     12  C   UNL     1       5.054   6.054  16.027  0.00  0.00    +0.000 C 
BRANCH  11  13
ATOM     13  C   UNL     1       7.284   5.070  16.415  0.00  0.00    +0.000 C 
ATOM     14  O   UNL     1       7.983   4.210  16.933  0.00  0.00    +0.000 OA
BRANCH  13  15
ATOM     15  O   UNL     1       7.667   6.372  16.371  0.00  0.00    +0.000 OA
ATOM     16  H   UNL     1       6.984   6.919  16.819  0.00  0.00    +0.000 HD
ENDBRANCH  13  15
ENDBRANCH  11  13
ENDBRANCH   9  11
ENDBRANCH   3   9
ENDBRANCH   2   6
ENDBRANCH   1   2
BRANCH   1  17
ATOM     17  O   UNL     1       1.529   6.795  20.845  0.00  0.00    +0.000 OA
BRANCH  17  18
ATOM     18  C   UNL     1       1.460   8.067  20.326  0.00  0.00    +0.000 A 
ATOM     19  C   UNL     1       0.883   8.975  21.233  0.00  0.00    +0.000 A 
ATOM     20  C   UNL     1       0.685  10.316  20.897  0.00  0.00    +0.000 A 
ATOM     21  C   UNL     1       0.991  10.780  19.616  0.00  0.00    +0.000 A 
ATOM     22  C   UNL     1       1.621   9.897  18.734  0.00  0.00    +0.000 A 
ATOM     23  C   UNL     1       1.853   8.553  19.069  0.00  0.00    +0.000 A 
ATOM     24 CL   UNL     1       2.606   7.641  17.804  0.00  0.00    +0.000 Cl
BRANCH  21  25
ATOM     25  N   UNL     1       0.759  12.094  19.182  0.00  0.00    +0.000 NA
ATOM     26  N   UNL     1      -0.226  12.427  18.478  0.00  0.00    +0.000 NA
BRANCH  26  27
ATOM     27  C   UNL     1      -1.349  11.613  18.226  0.00  0.00    +0.000 A 
ATOM     28  C   UNL     1      -1.185  10.559  17.315  0.00  0.00    +0.000 A 
ATOM     29  C   UNL     1      -2.224   9.665  17.040  0.00  0.00    +0.000 A 
ATOM     30  C   UNL     1      -3.457   9.823  17.667  0.00  0.00    +0.000 A 
ATOM     31  C   UNL     1      -3.635  10.852  18.590  0.00  0.00    +0.000 A 
ATOM     32  C   UNL     1      -2.575  11.714  18.895  0.00  0.00    +0.000 A 
ENDBRANCH  26  27
ENDBRANCH  21  25
ENDBRANCH  17  18
ENDBRANCH   1  17
TORSDOF 10
ENDMDL
MODEL 5
REMARK VINA RESULT:      -7.7      1.948      2.810
REMARK  Name = 
REMARK  12 active torsions:
REMARK  status: ('A' for Active; 'I' for Inactive)
REMARK    1  A    between atoms: C_1  and  C_2
REMARK    2  A    between atoms: C_2  and  C_3
REMARK    3  A    between atoms: C_2  and  O_4
REMARK    4  A    between atoms: C_2  and  C_29
REMARK    5  A    between atoms: O_4  and  C_5
REMARK    6  A    between atoms: C_8  and  C_9
REMARK    7  A    between atoms: C_9  and  C_10
REMARK    8  A    between atoms: C_10  and  O_11
REMARK    9  A    between atoms: O_11  and  C_12
REMARK   10  A    between atoms: C_15  and  N_16
REMARK   11  A    between atoms: N_17  and  C_18
REMARK   12  A    between atoms: C_29  and  O_31
REMARK                            x       y       z     vdW  Elec       q    Type
REMARK                         _______ _______ _______ _____ _____    ______ ____
ROOT
ATOM      1  C   UNL     1       7.645   8.869  17.805  0.00  0.00    +0.000 C 
ENDROOT
BRANCH   1   2
ATOM      2  C   UNL     1       8.819   9.276  18.697  0.00  0.00    +0.000 C 
BRANCH   2   6
ATOM      3  C   UNL     1      10.198  13.310  17.995  0.00  0.00    +0.000 A 
ATOM      4  C   UNL     1      10.976  12.407  18.727  0.00  0.00    +0.000 A 
ATOM      5  C   UNL     1      10.521  11.110  18.971  0.00  0.00    +0.000 A 
ATOM      6  C   UNL     1       9.280  10.695  18.486  0.00  0.00    +0.000 A 
ATOM      7  C   UNL     1       8.479  11.619  17.802  0.00  0.00    +0.000 A 
ATOM      8  C   UNL     1       8.929  12.924  17.579  0.00  0.00    +0.000 A 
BRANCH   3   9
ATOM      9  O   UNL     1      10.788  14.518  17.784  0.00  0.00    +0.000 OA
BRANCH   9  11
ATOM     10  C   UNL     1       9.581  15.543  19.751  0.00  0.00    +0.000 C 
ATOM     11  C   UNL     1      10.740  15.597  18.746  0.00  0.00    +0.000 C 
ATOM     12  C   UNL     1      12.108  15.767  19.408  0.00  0.00    +0.000 C 
BRANCH  11  13
ATOM     13  C   UNL     1      10.502  16.862  17.888  0.00  0.00    +0.000 C 
ATOM     14  O   UNL     1      11.375  17.460  17.275  0.00  0.00    +0.000 OA
BRANCH  13  15
ATOM     15  O   UNL     1       9.209  17.274  17.876  0.00  0.00    +0.000 OA
ATOM     16  H   UNL     1       8.672  16.651  18.412  0.00  0.00    +0.000 HD
ENDBRANCH  13  15
ENDBRANCH  11  13
ENDBRANCH   9  11
ENDBRANCH   3   9
ENDBRANCH   2   6
ENDBRANCH   1   2
BRANCH   1  17
ATOM     17  O   UNL     1       7.923   7.695  17.055  0.00  0.00    +0.000 OA
BRANCH  17  18
ATOM     18  C   UNL     1       7.091   6.607  17.186  0.00  0.00    +0.000 A 
ATOM     19  C   UNL     1       6.234   6.465  16.080  0.00  0.00    +0.000 A 
ATOM     20  C   UNL     1       5.281   5.445  16.021  0.00  0.00    +0.000 A 
ATOM     21  C   UNL     1       5.104   4.575  17.098  0.00  0.00    +0.000 A 
ATOM     22  C   UNL     1       5.996   4.674  18.170  0.00  0.00    +0.000 A 
ATOM     23  C   UNL     1       6.978   5.676  18.230  0.00  0.00    +0.000 A 
ATOM     24 CL   UNL     1       7.935   5.627  19.672  0.00  0.00    +0.000 Cl
BRANCH  21  25
ATOM     25  N   UNL     1       4.127   3.570  17.142  0.00  0.00    +0.000 NA
ATOM     26  N   UNL     1       3.118   3.617  17.889  0.00  0.00    +0.000 NA
BRANCH  26  27
ATOM     27  C   UNL     1       2.692   4.760  18.596  0.00  0.00    +0.000 A 
ATOM     28  C   UNL     1       2.415   4.601  19.963  0.00  0.00    +0.000 A 
ATOM     29  C   UNL     1       2.038   5.685  20.760  0.00  0.00    +0.000 A 
ATOM     30  C   UNL     1       1.917   6.951  20.195  0.00  0.00    +0.000 A 
ATOM     31  C   UNL     1       2.205   7.134  18.844  0.00  0.00    +0.000 A 
ATOM     32  C   UNL     1       2.628   6.053  18.062  0.00  0.00    +0.000 A 
ENDBRANCH  26  27
ENDBRANCH  21  25
ENDBRANCH  17  18
ENDBRANCH   1  17
TORSDOF 10
ENDMDL
MODEL 6
REMARK VINA RESULT:      -7.7      6.029      8.800
REMARK  Name = 
REMARK  12 active torsions:
REMARK  status: ('A' for Active; 'I' for Inactive)
REMARK    1  A    between atoms: C_1  and  C_2
REMARK    2  A    between atoms: C_2  and  C_3
REMARK    3  A    between atoms: C_2  and  O_4
REMARK    4  A    between atoms: C_2  and  C_29
REMARK    5  A    between atoms: O_4  and  C_5
REMARK    6  A    between atoms: C_8  and  C_9
REMARK    7  A    between atoms: C_9  and  C_10
REMARK    8  A    between atoms: C_10  and  O_11
REMARK    9  A    between atoms: O_11  and  C_12
REMARK   10  A    between atoms: C_15  and  N_16
REMARK   11  A    between atoms: N_17  and  C_18
REMARK   12  A    between atoms: C_29  and  O_31
REMARK                            x       y       z     vdW  Elec       q    Type
REMARK                         _______ _______ _______ _____ _____    ______ ____
ROOT
ATOM      1  C   UNL     1       1.080   6.072  20.630  0.00  0.00    +0.000 C 
ENDROOT
BRANCH   1   2
ATOM      2  C   UNL     1       1.660   4.657  20.672  0.00  0.00    +0.000 C 
BRANCH   2   6
ATOM      3  C   UNL     1       4.537   3.972  17.523  0.00  0.00    +0.000 A 
ATOM      4  C   UNL     1       3.166   3.856  17.274  0.00  0.00    +0.000 A 
ATOM      5  C   UNL     1       2.237   4.058  18.297  0.00  0.00    +0.000 A 
ATOM      6  C   UNL     1       2.666   4.380  19.585  0.00  0.00    +0.000 A 
ATOM      7  C   UNL     1       4.041   4.439  19.845  0.00  0.00    +0.000 A 
ATOM      8  C   UNL     1       4.969   4.215  18.822  0.00  0.00    +0.000 A 
BRANCH   3   9
ATOM      9  O   UNL     1       5.324   3.807  16.425  0.00  0.00    +0.000 OA
BRANCH   9  11
ATOM     10  C   UNL     1       6.242   4.611  14.214  0.00  0.00    +0.000 C 
ATOM     11  C   UNL     1       5.869   4.915  15.672  0.00  0.00    +0.000 C 
ATOM     12  C   UNL     1       4.970   6.142  15.825  0.00  0.00    +0.000 C 
BRANCH  11  13
ATOM     13  C   UNL     1       7.198   5.246  16.392  0.00  0.00    +0.000 C 
ATOM     14  O   UNL     1       7.646   6.374  16.540  0.00  0.00    +0.000 OA
BRANCH  13  15
ATOM     15  O   UNL     1       7.855   4.149  16.850  0.00  0.00    +0.000 OA
ATOM     16  H   UNL     1       7.446   3.865  17.697  0.00  0.00    +0.000 HD
ENDBRANCH  13  15
ENDBRANCH  11  13
ENDBRANCH   9  11
ENDBRANCH   3   9
ENDBRANCH   2   6
ENDBRANCH   1   2
BRANCH   1  17
ATOM     17  O   UNL     1       2.020   7.023  20.148  0.00  0.00    +0.000 OA
BRANCH  17  18
ATOM     18  C   UNL     1       1.599   8.308  19.896  0.00  0.00    +0.000 A 
ATOM     19  C   UNL     1       1.810   8.677  18.555  0.00  0.00    +0.000 A 
ATOM     20  C   UNL     1       1.486   9.954  18.091  0.00  0.00    +0.000 A 
ATOM     21  C   UNL     1       1.007  10.929  18.967  0.00  0.00    +0.000 A 
ATOM     22  C   UNL     1       0.737  10.547  20.284  0.00  0.00    +0.000 A 
ATOM     23  C   UNL     1       1.030   9.258  20.759  0.00  0.00    +0.000 A 
ATOM     24 CL   UNL     1       0.650   9.030  22.433  0.00  0.00    +0.000 Cl
BRANCH  21  25
ATOM     25  N   UNL     1       0.723  12.251  18.591  0.00  0.00    +0.000 NA
ATOM     26  N   UNL     1      -0.364  12.605  18.071  0.00  0.00    +0.000 NA
BRANCH  26  27
ATOM     27  C   UNL     1      -1.525  11.807  18.009  0.00  0.00    +0.000 A 
ATOM     28  C   UNL     1      -1.522  10.740  17.098  0.00  0.00    +0.000 A 
ATOM     29  C   UNL     1      -2.605   9.861  17.001  0.00  0.00    +0.000 A 
ATOM     30  C   UNL     1      -3.721  10.048  17.810  0.00  0.00    +0.000 A 
ATOM     31  C   UNL     1      -3.738  11.091  18.734  0.00  0.00    +0.000 A 
ATOM     32  C   UNL     1      -2.631  11.938  18.858  0.00  0.00    +0.000 A 
ENDBRANCH  26  27
ENDBRANCH  21  25
ENDBRANCH  17  18
ENDBRANCH   1  17
TORSDOF 10
ENDMDL
MODEL 7
REMARK VINA RESULT:      -7.7      4.738     10.449
REMARK  Name = 
REMARK  12 active torsions:
REMARK  status: ('A' for Active; 'I' for Inactive)
REMARK    1  A    between atoms: C_1  and  C_2
REMARK    2  A    between atoms: C_2  and  C_3
REMARK    3  A    between atoms: C_2  and  O_4
REMARK    4  A    between atoms: C_2  and  C_29
REMARK    5  A    between atoms: O_4  and  C_5
REMARK    6  A    between atoms: C_8  and  C_9
REMARK    7  A    between atoms: C_9  and  C_10
REMARK    8  A    between atoms: C_10  and  O_11
REMARK    9  A    between atoms: O_11  and  C_12
REMARK   10  A    between atoms: C_15  and  N_16
REMARK   11  A    between atoms: N_17  and  C_18
REMARK   12  A    between atoms: C_29  and  O_31
REMARK                            x       y       z     vdW  Elec       q    Type
REMARK                         _______ _______ _______ _____ _____    ______ ____
ROOT
ATOM      1  C   UNL     1       8.132   8.094  18.067  0.00  0.00    +0.000 C 
ENDROOT
BRANCH   1   2
ATOM      2  C   UNL     1       7.540   7.075  17.093  0.00  0.00    +0.000 C 
BRANCH   2   6
ATOM      3  C   UNL     1       4.010   5.139  18.659  0.00  0.00    +0.000 A 
ATOM      4  C   UNL     1       5.184   5.206  19.418  0.00  0.00    +0.000 A 
ATOM      5  C   UNL     1       6.330   5.814  18.904  0.00  0.00    +0.000 A 
ATOM      6  C   UNL     1       6.321   6.365  17.622  0.00  0.00    +0.000 A 
ATOM      7  C   UNL     1       5.163   6.246  16.843  0.00  0.00    +0.000 A 
ATOM      8  C   UNL     1       4.023   5.617  17.354  0.00  0.00    +0.000 A 
BRANCH   3   9
ATOM      9  O   UNL     1       2.955   4.572  19.305  0.00  0.00    +0.000 OA
BRANCH   9  11
ATOM     10  C   UNL     1       3.939   2.282  18.899  0.00  0.00    +0.000 C 
ATOM     11  C   UNL     1       2.778   3.141  19.419  0.00  0.00    +0.000 C 
ATOM     12  C   UNL     1       2.346   2.780  20.841  0.00  0.00    +0.000 C 
BRANCH  11  13
ATOM     13  C   UNL     1       1.573   2.833  18.497  0.00  0.00    +0.000 C 
ATOM     14  O   UNL     1       0.999   3.661  17.804  0.00  0.00    +0.000 OA
BRANCH  13  15
ATOM     15  O   UNL     1       1.186   1.532  18.528  0.00  0.00    +0.000 OA
ATOM     16  H   UNL     1       1.985   0.963  18.566  0.00  0.00    +0.000 HD
ENDBRANCH  13  15
ENDBRANCH  11  13
ENDBRANCH   9  11
ENDBRANCH   3   9
ENDBRANCH   2   6
ENDBRANCH   1   2
BRANCH   1  17
ATOM     17  O   UNL     1       7.920   9.433  17.638  0.00  0.00    +0.000 OA
BRANCH  17  18
ATOM     18  C   UNL     1       8.520  10.458  18.331  0.00  0.00    +0.000 A 
ATOM     19  C   UNL     1       9.300   9.985  19.401  0.00  0.00    +0.000 A 
ATOM     20  C   UNL     1       9.971  10.860  20.258  0.00  0.00    +0.000 A 
ATOM     21  C   UNL     1       9.826  12.241  20.120  0.00  0.00    +0.000 A 
ATOM     22  C   UNL     1       9.102  12.715  19.021  0.00  0.00    +0.000 A 
ATOM     23  C   UNL     1       8.447  11.846  18.133  0.00  0.00    +0.000 A 
ATOM     24 CL   UNL     1       7.579  12.662  16.876  0.00  0.00    +0.000 Cl
BRANCH  21  25
ATOM     25  N   UNL     1      10.411  13.182  20.980  0.00  0.00    +0.000 NA
ATOM     26  N   UNL     1       9.805  13.712  21.943  0.00  0.00    +0.000 NA
BRANCH  26  27
ATOM     27  C   UNL     1       8.562  13.279  22.449  0.00  0.00    +0.000 A 
ATOM     28  C   UNL     1       8.579  12.222  23.372  0.00  0.00    +0.000 A 
ATOM     29  C   UNL     1       7.403  11.758  23.970  0.00  0.00    +0.000 A 
ATOM     30  C   UNL     1       6.183  12.340  23.640  0.00  0.00    +0.000 A 
ATOM     31  C   UNL     1       6.146  13.403  22.740  0.00  0.00    +0.000 A 
ATOM     32  C   UNL     1       7.332  13.893  22.182  0.00  0.00    +0.000 A 
ENDBRANCH  26  27
ENDBRANCH  21  25
ENDBRANCH  17  18
ENDBRANCH   1  17
TORSDOF 10
ENDMDL
MODEL 8
REMARK VINA RESULT:      -7.7      5.728      9.142
REMARK  Name = 
REMARK  12 active torsions:
REMARK  status: ('A' for Active; 'I' for Inactive)
REMARK    1  A    between atoms: C_1  and  C_2
REMARK    2  A    between atoms: C_2  and  C_3
REMARK    3  A    between atoms: C_2  and  O_4
REMARK    4  A    between atoms: C_2  and  C_29
REMARK    5  A    between atoms: O_4  and  C_5
REMARK    6  A    between atoms: C_8  and  C_9
REMARK    7  A    between atoms: C_9  and  C_10
REMARK    8  A    between atoms: C_10  and  O_11
REMARK    9  A    between atoms: O_11  and  C_12
REMARK   10  A    between atoms: C_15  and  N_16
REMARK   11  A    between atoms: N_17  and  C_18
REMARK   12  A    between atoms: C_29  and  O_31
REMARK                            x       y       z     vdW  Elec       q    Type
REMARK                         _______ _______ _______ _____ _____    ______ ____
ROOT
ATOM      1  C   UNL     1       1.658   6.699  21.106  0.00  0.00    +0.000 C 
ENDROOT
BRANCH   1   2
ATOM      2  C   UNL     1       1.453   5.305  20.511  0.00  0.00    +0.000 C 
BRANCH   2   6
ATOM      3  C   UNL     1       4.311   4.175  17.475  0.00  0.00    +0.000 A 
ATOM      4  C   UNL     1       4.741   4.615  18.732  0.00  0.00    +0.000 A 
ATOM      5  C   UNL     1       3.818   4.998  19.705  0.00  0.00    +0.000 A 
ATOM      6  C   UNL     1       2.449   4.949  19.438  0.00  0.00    +0.000 A 
ATOM      7  C   UNL     1       2.024   4.563  18.160  0.00  0.00    +0.000 A 
ATOM      8  C   UNL     1       2.954   4.200  17.180  0.00  0.00    +0.000 A 
BRANCH   3   9
ATOM      9  O   UNL     1       5.314   3.778  16.645  0.00  0.00    +0.000 OA
BRANCH   9  11
ATOM     10  C   UNL     1       6.353   4.069  14.362  0.00  0.00    +0.000 C 
ATOM     11  C   UNL     1       5.973   4.674  15.720  0.00  0.00    +0.000 C 
ATOM     12  C   UNL     1       5.181   5.977  15.603  0.00  0.00    +0.000 C 
BRANCH  11  13
ATOM     13  C   UNL     1       7.308   5.026  16.419  0.00  0.00    +0.000 C 
ATOM     14  O   UNL     1       8.040   4.215  16.969  0.00  0.00    +0.000 OA
BRANCH  13  15
ATOM     15  O   UNL     1       7.607   6.350  16.382  0.00  0.00    +0.000 OA
ATOM     16  H   UNL     1       7.547   6.663  15.453  0.00  0.00    +0.000 HD
ENDBRANCH  13  15
ENDBRANCH  11  13
ENDBRANCH   9  11
ENDBRANCH   3   9
ENDBRANCH   2   6
ENDBRANCH   1   2
BRANCH   1  17
ATOM     17  O   UNL     1       2.081   7.642  20.130  0.00  0.00    +0.000 OA
BRANCH  17  18
ATOM     18  C   UNL     1       1.248   8.687  19.808  0.00  0.00    +0.000 A 
ATOM     19  C   UNL     1       1.385   9.074  18.462  0.00  0.00    +0.000 A 
ATOM     20  C   UNL     1       0.656  10.141  17.932  0.00  0.00    +0.000 A 
ATOM     21  C   UNL     1      -0.181  10.905  18.747  0.00  0.00    +0.000 A 
ATOM     22  C   UNL     1      -0.368  10.485  20.068  0.00  0.00    +0.000 A 
ATOM     23  C   UNL     1       0.336   9.395  20.607  0.00  0.00    +0.000 A 
ATOM     24 CL   UNL     1      -0.026   9.089  22.272  0.00  0.00    +0.000 Cl
BRANCH  21  25
ATOM     25  N   UNL     1      -0.894  12.030  18.306  0.00  0.00    +0.000 NA
ATOM     26  N   UNL     1      -0.499  13.210  18.474  0.00  0.00    +0.000 NA
BRANCH  26  27
ATOM     27  C   UNL     1       0.796  13.573  18.899  0.00  0.00    +0.000 A 
ATOM     28  C   UNL     1       0.961  13.882  20.258  0.00  0.00    +0.000 A 
ATOM     29  C   UNL     1       2.216  14.202  20.785  0.00  0.00    +0.000 A 
ATOM     30  C   UNL     1       3.329  14.232  19.951  0.00  0.00    +0.000 A 
ATOM     31  C   UNL     1       3.190  13.910  18.602  0.00  0.00    +0.000 A 
ATOM     32  C   UNL     1       1.939  13.545  18.091  0.00  0.00    +0.000 A 
ENDBRANCH  26  27
ENDBRANCH  21  25
ENDBRANCH  17  18
ENDBRANCH   1  17
TORSDOF 10
ENDMDL
MODEL 9
REMARK VINA RESULT:      -7.6      4.929     10.548
REMARK  Name = 
REMARK  12 active torsions:
REMARK  status: ('A' for Active; 'I' for Inactive)
REMARK    1  A    between atoms: C_1  and  C_2
REMARK    2  A    between atoms: C_2  and  C_3
REMARK    3  A    between atoms: C_2  and  O_4
REMARK    4  A    between atoms: C_2  and  C_29
REMARK    5  A    between atoms: O_4  and  C_5
REMARK    6  A    between atoms: C_8  and  C_9
REMARK    7  A    between atoms: C_9  and  C_10
REMARK    8  A    between atoms: C_10  and  O_11
REMARK    9  A    between atoms: O_11  and  C_12
REMARK   10  A    between atoms: C_15  and  N_16
REMARK   11  A    between atoms: N_17  and  C_18
REMARK   12  A    between atoms: C_29  and  O_31
REMARK                            x       y       z     vdW  Elec       q    Type
REMARK                         _______ _______ _______ _____ _____    ______ ____
ROOT
ATOM      1  C   UNL     1       8.249   8.908  18.357  0.00  0.00    +0.000 C 
ENDROOT
BRANCH   1   2
ATOM      2  C   UNL     1       7.821   7.877  17.312  0.00  0.00    +0.000 C 
BRANCH   2   6
ATOM      3  C   UNL     1       4.853   5.029  18.632  0.00  0.00    +0.000 A 
ATOM      4  C   UNL     1       4.489   6.127  17.845  0.00  0.00    +0.000 A 
ATOM      5  C   UNL     1       5.445   7.057  17.435  0.00  0.00    +0.000 A 
ATOM      6  C   UNL     1       6.782   6.905  17.806  0.00  0.00    +0.000 A 
ATOM      7  C   UNL     1       7.134   5.837  18.641  0.00  0.00    +0.000 A 
ATOM      8  C   UNL     1       6.168   4.918  19.067  0.00  0.00    +0.000 A 
BRANCH   3   9
ATOM      9  O   UNL     1       3.833   4.172  18.910  0.00  0.00    +0.000 OA
BRANCH   9  11
ATOM     10  C   UNL     1       1.660   4.033  17.631  0.00  0.00    +0.000 C 
ATOM     11  C   UNL     1       3.074   3.492  17.884  0.00  0.00    +0.000 C 
ATOM     12  C   UNL     1       3.912   3.367  16.611  0.00  0.00    +0.000 C 
BRANCH  11  13
ATOM     13  C   UNL     1       2.889   2.058  18.436  0.00  0.00    +0.000 C 
ATOM     14  O   UNL     1       3.795   1.254  18.598  0.00  0.00    +0.000 OA
BRANCH  13  15
ATOM     15  O   UNL     1       1.598   1.750  18.725  0.00  0.00    +0.000 OA
ATOM     16  H   UNL     1       1.327   0.978  18.182  0.00  0.00    +0.000 HD
ENDBRANCH  13  15
ENDBRANCH  11  13
ENDBRANCH   9  11
ENDBRANCH   3   9
ENDBRANCH   2   6
ENDBRANCH   1   2
BRANCH   1  17
ATOM     17  O   UNL     1       8.999   9.971  17.785  0.00  0.00    +0.000 OA
BRANCH  17  18
ATOM     18  C   UNL     1       9.242  11.097  18.538  0.00  0.00    +0.000 A 
ATOM     19  C   UNL     1      10.120  10.836  19.606  0.00  0.00    +0.000 A 
ATOM     20  C   UNL     1      10.475  11.833  20.518  0.00  0.00    +0.000 A 
ATOM     21  C   UNL     1       9.908  13.105  20.437  0.00  0.00    +0.000 A 
ATOM     22  C   UNL     1       9.084  13.385  19.342  0.00  0.00    +0.000 A 
ATOM     23  C   UNL     1       8.742  12.401  18.400  0.00  0.00    +0.000 A 
ATOM     24 CL   UNL     1       7.677  12.968  17.159  0.00  0.00    +0.000 Cl
BRANCH  21  25
ATOM     25  N   UNL     1      10.162  14.138  21.353  0.00  0.00    +0.000 NA
ATOM     26  N   UNL     1       9.414  14.398  22.327  0.00  0.00    +0.000 NA
BRANCH  26  27
ATOM     27  C   UNL     1       8.369  13.570  22.786  0.00  0.00    +0.000 A 
ATOM     28  C   UNL     1       8.713  12.537  23.671  0.00  0.00    +0.000 A 
ATOM     29  C   UNL     1       7.741  11.697  24.222  0.00  0.00    +0.000 A 
ATOM     30  C   UNL     1       6.402  11.871  23.882  0.00  0.00    +0.000 A 
ATOM     31  C   UNL     1       6.038  12.903  23.020  0.00  0.00    +0.000 A 
ATOM     32  C   UNL     1       7.011  13.769  22.509  0.00  0.00    +0.000 A 
ENDBRANCH  26  27
ENDBRANCH  21  25
ENDBRANCH  17  18
ENDBRANCH   1  17
TORSDOF 10
ENDMDL
