MODEL 1
REMARK VINA RESULT:      -7.2      0.000      0.000
REMARK  Name = 
REMARK  4 active torsions:
REMARK  status: ('A' for Active; 'I' for Inactive)
REMARK    1  A    between atoms: C_1  and  C_2
REMARK    2  A    between atoms: C_2  and  N_3
REMARK    3  A    between atoms: N_13  and  C_14
REMARK    4  A    between atoms: C_14  and  C_15
REMARK                            x       y       z     vdW  Elec       q    Type
REMARK                         _______ _______ _______ _____ _____    ______ ____
ROOT
ATOM      1  N   UNL     1      -1.661  13.233  19.980  0.00  0.00    +0.000 NA
ATOM      2  C   UNL     1      -0.855  12.768  18.824  0.00  0.00    +0.000 C 
ATOM      3  C   UNL     1       0.499  12.084  19.141  0.00  0.00    +0.000 C 
ATOM      4  N   UNL     1       0.354  11.114  20.222  0.00  0.00    +0.000 N 
ATOM      5  C   UNL     1       0.865   9.848  20.126  0.00  0.00    +0.000 A 
ATOM      6  N   UNL     1       0.710   9.000  21.162  0.00  0.00    +0.000 NA
ATOM      7  C   UNL     1       1.252   7.765  21.065  0.00  0.00    +0.000 A 
ATOM      8  C   UNL     1       1.948   7.350  19.968  0.00  0.00    +0.000 A 
ATOM      9  C   UNL     1       2.597   6.037  19.865  0.00  0.00    +0.000 A 
ATOM     10  O   UNL     1       2.469   5.227  20.777  0.00  0.00    +0.000 OA
ATOM     11  N   UNL     1       3.341   5.812  18.701  0.00  0.00    +0.000 N 
ATOM     12  C   UNL     1       3.433   6.756  17.685  0.00  0.00    +0.000 A 
ATOM     13  C   UNL     1       2.810   7.934  17.753  0.00  0.00    +0.000 A 
ATOM     14  C   UNL     1       2.050   8.263  18.949  0.00  0.00    +0.000 A 
ATOM     15  N   UNL     1       1.514   9.499  19.003  0.00  0.00    +0.000 NA
ATOM     16  C   UNL     1      -0.392  11.535  21.400  0.00  0.00    +0.000 C 
ATOM     17  C   UNL     1      -1.757  12.113  20.953  0.00  0.00    +0.000 C 
ENDROOT
BRANCH   1  19
ATOM     18  C   UNL     1      -0.686  15.543  19.707  0.00  0.00    +0.000 C 
ATOM     19  C   UNL     1      -1.138  14.434  20.647  0.00  0.00    +0.000 C 
ENDBRANCH   1  19
BRANCH  11  20
ATOM     20  C   UNL     1       4.060   4.545  18.577  0.00  0.00    +0.000 C 
BRANCH  20  21
ATOM     21  C   UNL     1       5.519   4.798  18.427  0.00  0.00    +0.000 A 
ATOM     22  C   UNL     1       6.455   5.427  19.222  0.00  0.00    +0.000 A 
ATOM     23  C   UNL     1       7.687   5.350  18.530  0.00  0.00    +0.000 A 
ATOM     24  C   UNL     1       7.429   4.666  17.366  0.00  0.00    +0.000 A 
ATOM     25  O   UNL     1       6.117   4.323  17.294  0.00  0.00    +0.000 OA
ENDBRANCH  20  21
ENDBRANCH  11  20
TORSDOF 3
ENDMDL
MODEL 2
REMARK VINA RESULT:      -7.1      3.402      9.242
REMARK  Name = 
REMARK  4 active torsions:
REMARK  status: ('A' for Active; 'I' for Inactive)
REMARK    1  A    between atoms: C_1  and  C_2
REMARK    2  A    between atoms: C_2  and  N_3
REMARK    3  A    between atoms: N_13  and  C_14
REMARK    4  A    between atoms: C_14  and  C_15
REMARK                            x       y       z     vdW  Elec       q    Type
REMARK                         _______ _______ _______ _____ _____    ______ ____
ROOT
ATOM      1  N   UNL     1       2.453   3.782  18.765  0.00  0.00    +0.000 NA
ATOM      2  C   UNL     1       1.772   4.087  20.047  0.00  0.00    +0.000 C 
ATOM      3  C   UNL     1       2.178   5.401  20.764  0.00  0.00    +0.000 C 
ATOM      4  N   UNL     1       2.242   6.512  19.819  0.00  0.00    +0.000 N 
ATOM      5  C   UNL     1       1.646   7.716  20.082  0.00  0.00    +0.000 A 
ATOM      6  N   UNL     1       1.749   8.708  19.177  0.00  0.00    +0.000 NA
ATOM      7  C   UNL     1       1.186   9.902  19.469  0.00  0.00    +0.000 A 
ATOM      8  C   UNL     1       0.524  10.139  20.638  0.00  0.00    +0.000 A 
ATOM      9  C   UNL     1      -0.043  11.443  21.003  0.00  0.00    +0.000 A 
ATOM     10  O   UNL     1       0.014  12.371  20.203  0.00  0.00    +0.000 OA
ATOM     11  N   UNL     1      -0.612  11.527  22.279  0.00  0.00    +0.000 N 
ATOM     12  C   UNL     1      -0.674  10.436  23.138  0.00  0.00    +0.000 A 
ATOM     13  C   UNL     1      -0.199   9.236  22.795  0.00  0.00    +0.000 A 
ATOM     14  C   UNL     1       0.447   9.076  21.502  0.00  0.00    +0.000 A 
ATOM     15  N   UNL     1       0.987   7.867  21.243  0.00  0.00    +0.000 NA
ATOM     16  C   UNL     1       2.937   6.278  18.561  0.00  0.00    +0.000 C 
ATOM     17  C   UNL     1       2.378   4.993  17.906  0.00  0.00    +0.000 C 
ENDROOT
BRANCH   1  19
ATOM     18  C   UNL     1       4.102   2.336  20.010  0.00  0.00    +0.000 C 
ATOM     19  C   UNL     1       3.851   3.350  18.902  0.00  0.00    +0.000 C 
ENDBRANCH   1  19
BRANCH  11  20
ATOM     20  C   UNL     1      -1.134  12.821  22.717  0.00  0.00    +0.000 C 
BRANCH  20  21
ATOM     21  C   UNL     1      -2.621  12.817  22.654  0.00  0.00    +0.000 A 
ATOM     22  C   UNL     1      -3.524  12.820  21.609  0.00  0.00    +0.000 A 
ATOM     23  C   UNL     1      -4.813  12.818  22.193  0.00  0.00    +0.000 A 
ATOM     24  C   UNL     1      -4.618  12.798  23.553  0.00  0.00    +0.000 A 
ATOM     25  O   UNL     1      -3.291  12.793  23.845  0.00  0.00    +0.000 OA
ENDBRANCH  20  21
ENDBRANCH  11  20
TORSDOF 3
ENDMDL
MODEL 3
REMARK VINA RESULT:      -7.1      1.860      2.777
REMARK  Name = 
REMARK  4 active torsions:
REMARK  status: ('A' for Active; 'I' for Inactive)
REMARK    1  A    between atoms: C_1  and  C_2
REMARK    2  A    between atoms: C_2  and  N_3
REMARK    3  A    between atoms: N_13  and  C_14
REMARK    4  A    between atoms: C_14  and  C_15
REMARK                            x       y       z     vdW  Elec       q    Type
REMARK                         _______ _______ _______ _____ _____    ______ ____
ROOT
ATOM      1  N   UNL     1      -0.561  11.669  22.761  0.00  0.00    +0.000 NA
ATOM      2  C   UNL     1      -0.286  10.273  23.182  0.00  0.00    +0.000 C 
ATOM      3  C   UNL     1      -0.456   9.168  22.109  0.00  0.00    +0.000 C 
ATOM      4  N   UNL     1       0.163   9.565  20.848  0.00  0.00    +0.000 N 
ATOM      5  C   UNL     1       0.995   8.724  20.158  0.00  0.00    +0.000 A 
ATOM      6  N   UNL     1       1.528   9.143  18.994  0.00  0.00    +0.000 NA
ATOM      7  C   UNL     1       2.318   8.287  18.307  0.00  0.00    +0.000 A 
ATOM      8  C   UNL     1       2.591   7.024  18.744  0.00  0.00    +0.000 A 
ATOM      9  C   UNL     1       3.395   6.056  17.988  0.00  0.00    +0.000 A 
ATOM     10  O   UNL     1       3.913   6.399  16.930  0.00  0.00    +0.000 OA
ATOM     11  N   UNL     1       3.501   4.778  18.548  0.00  0.00    +0.000 N 
ATOM     12  C   UNL     1       2.914   4.450  19.764  0.00  0.00    +0.000 A 
ATOM     13  C   UNL     1       2.218   5.337  20.478  0.00  0.00    +0.000 A 
ATOM     14  C   UNL     1       2.025   6.676  19.945  0.00  0.00    +0.000 A 
ATOM     15  N   UNL     1       1.241   7.505  20.664  0.00  0.00    +0.000 NA
ATOM     16  C   UNL     1      -0.109  10.912  20.367  0.00  0.00    +0.000 C 
ATOM     17  C   UNL     1       0.187  11.923  21.501  0.00  0.00    +0.000 C 
ENDROOT
BRANCH   1  19
ATOM     18  C   UNL     1      -2.578  12.917  23.618  0.00  0.00    +0.000 C 
ATOM     19  C   UNL     1      -1.984  11.982  22.572  0.00  0.00    +0.000 C 
ENDBRANCH   1  19
BRANCH  11  20
ATOM     20  C   UNL     1       4.238   3.758  17.803  0.00  0.00    +0.000 C 
BRANCH  20  21
ATOM     21  C   UNL     1       5.649   4.191  17.607  0.00  0.00    +0.000 A 
ATOM     22  C   UNL     1       6.452   4.322  16.492  0.00  0.00    +0.000 A 
ATOM     23  C   UNL     1       7.709   4.776  16.953  0.00  0.00    +0.000 A 
ATOM     24  C   UNL     1       7.592   4.909  18.316  0.00  0.00    +0.000 A 
ATOM     25  O   UNL     1       6.344   4.561  18.724  0.00  0.00    +0.000 OA
ENDBRANCH  20  21
ENDBRANCH  11  20
TORSDOF 3
ENDMDL
MODEL 4
REMARK VINA RESULT:      -7.0      2.269      3.577
REMARK  Name = 
REMARK  4 active torsions:
REMARK  status: ('A' for Active; 'I' for Inactive)
REMARK    1  A    between atoms: C_1  and  C_2
REMARK    2  A    between atoms: C_2  and  N_3
REMARK    3  A    between atoms: N_13  and  C_14
REMARK    4  A    between atoms: C_14  and  C_15
REMARK                            x       y       z     vdW  Elec       q    Type
REMARK                         _______ _______ _______ _____ _____    ______ ____
ROOT
ATOM      1  N   UNL     1      -0.719  10.293  20.523  0.00  0.00    +0.000 NA
ATOM      2  C   UNL     1       0.053  10.399  19.261  0.00  0.00    +0.000 C 
ATOM      3  C   UNL     1       1.522   9.908  19.291  0.00  0.00    +0.000 C 
ATOM      4  N   UNL     1       1.629   8.621  19.973  0.00  0.00    +0.000 N 
ATOM      5  C   UNL     1       2.330   7.577  19.434  0.00  0.00    +0.000 A 
ATOM      6  N   UNL     1       2.402   6.416  20.116  0.00  0.00    +0.000 NA
ATOM      7  C   UNL     1       3.129   5.407  19.587  0.00  0.00    +0.000 A 
ATOM      8  C   UNL     1       3.791   5.519  18.399  0.00  0.00    +0.000 A 
ATOM      9  C   UNL     1       4.635   4.460  17.834  0.00  0.00    +0.000 A 
ATOM     10  O   UNL     1       4.718   3.381  18.412  0.00  0.00    +0.000 OA
ATOM     11  N   UNL     1       5.307   4.779  16.648  0.00  0.00    +0.000 N 
ATOM     12  C   UNL     1       5.158   6.010  16.019  0.00  0.00    +0.000 A 
ATOM     13  C   UNL     1       4.358   6.962  16.505  0.00  0.00    +0.000 A 
ATOM     14  C   UNL     1       3.657   6.724  17.757  0.00  0.00    +0.000 A 
ATOM     15  N   UNL     1       2.932   7.751  18.247  0.00  0.00    +0.000 NA
ATOM     16  C   UNL     1       0.924   8.477  21.240  0.00  0.00    +0.000 C 
ATOM     17  C   UNL     1      -0.550   8.913  21.050  0.00  0.00    +0.000 C 
ENDROOT
BRANCH   1  19
ATOM     18  C   UNL     1      -1.041  11.086  22.896  0.00  0.00    +0.000 C 
ATOM     19  C   UNL     1      -0.346  11.273  21.553  0.00  0.00    +0.000 C 
ENDBRANCH   1  19
BRANCH  11  20
ATOM     20  C   UNL     1       6.210   3.781  16.078  0.00  0.00    +0.000 C 
BRANCH  20  21
ATOM     21  C   UNL     1       6.573   4.159  14.684  0.00  0.00    +0.000 A 
ATOM     22  C   UNL     1       6.082   3.791  13.448  0.00  0.00    +0.000 A 
ATOM     23  C   UNL     1       6.848   4.492  12.487  0.00  0.00    +0.000 A 
ATOM     24  C   UNL     1       7.746   5.254  13.196  0.00  0.00    +0.000 A 
ATOM     25  O   UNL     1       7.585   5.063  14.531  0.00  0.00    +0.000 OA
ENDBRANCH  20  21
ENDBRANCH  11  20
TORSDOF 3
ENDMDL
MODEL 5
REMARK VINA RESULT:      -6.9      3.409      9.176
REMARK  Name = 
REMARK  4 active torsions:
REMARK  status: ('A' for Active; 'I' for Inactive)
REMARK    1  A    between atoms: C_1  and  C_2
REMARK    2  A    between atoms: C_2  and  N_3
REMARK    3  A    between atoms: N_13  and  C_14
REMARK    4  A    between atoms: C_14  and  C_15
REMARK                            x       y       z     vdW  Elec       q    Type
REMARK                         _______ _______ _______ _____ _____    ______ ____
ROOT
ATOM      1  N   UNL     1       1.942   3.109  19.107  0.00  0.00    +0.000 NA
ATOM      2  C   UNL     1       1.234   3.582  20.322  0.00  0.00    +0.000 C 
ATOM      3  C   UNL     1       1.769   4.874  20.989  0.00  0.00    +0.000 C 
ATOM      4  N   UNL     1       2.037   5.905  19.991  0.00  0.00    +0.000 N 
ATOM      5  C   UNL     1       1.593   7.191  20.146  0.00  0.00    +0.000 A 
ATOM      6  N   UNL     1       1.881   8.102  19.196  0.00  0.00    +0.000 NA
ATOM      7  C   UNL     1       1.466   9.375  19.382  0.00  0.00    +0.000 A 
ATOM      8  C   UNL     1       0.775   9.769  20.490  0.00  0.00    +0.000 A 
ATOM      9  C   UNL     1       0.367  11.157  20.743  0.00  0.00    +0.000 A 
ATOM     10  O   UNL     1       0.595  12.017  19.899  0.00  0.00    +0.000 OA
ATOM     11  N   UNL     1      -0.260  11.396  21.972  0.00  0.00    +0.000 N 
ATOM     12  C   UNL     1      -0.517  10.379  22.884  0.00  0.00    +0.000 A 
ATOM     13  C   UNL     1      -0.188   9.108  22.641  0.00  0.00    +0.000 A 
ATOM     14  C   UNL     1       0.506   8.783  21.405  0.00  0.00    +0.000 A 
ATOM     15  N   UNL     1       0.893   7.500  21.250  0.00  0.00    +0.000 NA
ATOM     16  C   UNL     1       2.767   5.503  18.797  0.00  0.00    +0.000 C 
ATOM     17  C   UNL     1       2.080   4.262  18.178  0.00  0.00    +0.000 C 
ENDROOT
BRANCH   1  19
ATOM     18  C   UNL     1       3.763   1.582  18.262  0.00  0.00    +0.000 C 
ATOM     19  C   UNL     1       3.259   2.509  19.361  0.00  0.00    +0.000 C 
ENDBRANCH   1  19
BRANCH  11  20
ATOM     20  C   UNL     1      -0.629  12.772  22.301  0.00  0.00    +0.000 C 
BRANCH  20  21
ATOM     21  C   UNL     1      -2.098  12.867  22.522  0.00  0.00    +0.000 A 
ATOM     22  C   UNL     1      -2.870  13.179  23.622  0.00  0.00    +0.000 A 
ATOM     23  C   UNL     1      -4.219  13.096  23.203  0.00  0.00    +0.000 A 
ATOM     24  C   UNL     1      -4.186  12.755  21.872  0.00  0.00    +0.000 A 
ATOM     25  O   UNL     1      -2.903  12.617  21.446  0.00  0.00    +0.000 OA
ENDBRANCH  20  21
ENDBRANCH  11  20
TORSDOF 3
ENDMDL
MODEL 6
REMARK VINA RESULT:      -6.8      2.213      3.793
REMARK  Name = 
REMARK  4 active torsions:
REMARK  status: ('A' for Active; 'I' for Inactive)
REMARK    1  A    between atoms: C_1  and  C_2
REMARK    2  A    between atoms: C_2  and  N_3
REMARK    3  A    between atoms: N_13  and  C_14
REMARK    4  A    between atoms: C_14  and  C_15
REMARK                            x       y       z     vdW  Elec       q    Type
REMARK                         _______ _______ _______ _____ _____    ______ ____
ROOT
ATOM      1  N   UNL     1      -2.409  14.314  22.748  0.00  0.00    +0.000 NA
ATOM      2  C   UNL     1      -1.852  13.066  23.324  0.00  0.00    +0.000 C 
ATOM      3  C   UNL     1      -1.934  11.789  22.450  0.00  0.00    +0.000 C 
ATOM      4  N   UNL     1      -1.527  12.070  21.076  0.00  0.00    +0.000 N 
ATOM      5  C   UNL     1      -0.636  11.271  20.412  0.00  0.00    +0.000 A 
ATOM      6  N   UNL     1      -0.307  11.574  19.141  0.00  0.00    +0.000 NA
ATOM      7  C   UNL     1       0.546  10.754  18.487  0.00  0.00    +0.000 A 
ATOM      8  C   UNL     1       1.080   9.637  19.061  0.00  0.00    +0.000 A 
ATOM      9  C   UNL     1       1.960   8.699  18.353  0.00  0.00    +0.000 A 
ATOM     10  O   UNL     1       2.298   8.943  17.200  0.00  0.00    +0.000 OA
ATOM     11  N   UNL     1       2.345   7.561  19.071  0.00  0.00    +0.000 N 
ATOM     12  C   UNL     1       1.954   7.346  20.387  0.00  0.00    +0.000 A 
ATOM     13  C   UNL     1       1.189   8.216  21.051  0.00  0.00    +0.000 A 
ATOM     14  C   UNL     1       0.710   9.404  20.362  0.00  0.00    +0.000 A 
ATOM     15  N   UNL     1      -0.129  10.204  21.051  0.00  0.00    +0.000 NA
ATOM     16  C   UNL     1      -2.080  13.262  20.447  0.00  0.00    +0.000 C 
ATOM     17  C   UNL     1      -1.851  14.477  21.379  0.00  0.00    +0.000 C 
ENDROOT
BRANCH   1  19
ATOM     18  C   UNL     1      -4.575  13.849  23.952  0.00  0.00    +0.000 C 
ATOM     19  C   UNL     1      -3.877  14.365  22.701  0.00  0.00    +0.000 C 
ENDBRANCH   1  19
BRANCH  11  20
ATOM     20  C   UNL     1       3.170   6.564  18.390  0.00  0.00    +0.000 C 
BRANCH  20  21
ATOM     21  C   UNL     1       2.543   5.219  18.506  0.00  0.00    +0.000 A 
ATOM     22  C   UNL     1       1.522   4.590  17.823  0.00  0.00    +0.000 A 
ATOM     23  C   UNL     1       1.382   3.307  18.403  0.00  0.00    +0.000 A 
ATOM     24  C   UNL     1       2.334   3.227  19.391  0.00  0.00    +0.000 A 
ATOM     25  O   UNL     1       3.048   4.381  19.460  0.00  0.00    +0.000 OA
ENDBRANCH  20  21
ENDBRANCH  11  20
TORSDOF 3
ENDMDL
MODEL 7
REMARK VINA RESULT:      -6.8      1.299      1.409
REMARK  Name = 
REMARK  4 active torsions:
REMARK  status: ('A' for Active; 'I' for Inactive)
REMARK    1  A    between atoms: C_1  and  C_2
REMARK    2  A    between atoms: C_2  and  N_3
REMARK    3  A    between atoms: N_13  and  C_14
REMARK    4  A    between atoms: C_14  and  C_15
REMARK                            x       y       z     vdW  Elec       q    Type
REMARK                         _______ _______ _______ _____ _____    ______ ____
ROOT
ATOM      1  N   UNL     1      -2.268  13.053  21.920  0.00  0.00    +0.000 NA
ATOM      2  C   UNL     1      -1.649  12.934  20.577  0.00  0.00    +0.000 C 
ATOM      3  C   UNL     1      -0.205  12.373  20.515  0.00  0.00    +0.000 C 
ATOM      4  N   UNL     1      -0.066  11.195  21.366  0.00  0.00    +0.000 N 
ATOM      5  C   UNL     1       0.528  10.047  20.914  0.00  0.00    +0.000 A 
ATOM      6  N   UNL     1       0.638   8.995  21.749  0.00  0.00    +0.000 NA
ATOM      7  C   UNL     1       1.259   7.883  21.298  0.00  0.00    +0.000 A 
ATOM      8  C   UNL     1       1.777   7.786  20.040  0.00  0.00    +0.000 A 
ATOM      9  C   UNL     1       2.509   6.612  19.548  0.00  0.00    +0.000 A 
ATOM     10  O   UNL     1       2.620   5.625  20.269  0.00  0.00    +0.000 OA
ATOM     11  N   UNL     1       3.045   6.721  18.260  0.00  0.00    +0.000 N 
ATOM     12  C   UNL     1       2.867   7.853  17.475  0.00  0.00    +0.000 A 
ATOM     13  C   UNL     1       2.167   8.907  17.899  0.00  0.00    +0.000 A 
ATOM     14  C   UNL     1       1.612   8.891  19.244  0.00  0.00    +0.000 A 
ATOM     15  N   UNL     1       0.989  10.016  19.653  0.00  0.00    +0.000 NA
ATOM     16  C   UNL     1      -0.619  11.274  22.711  0.00  0.00    +0.000 C 
ATOM     17  C   UNL     1      -2.087  11.756  22.626  0.00  0.00    +0.000 C 
ENDROOT
BRANCH   1  19
ATOM     18  C   UNL     1      -1.736  15.514  22.065  0.00  0.00    +0.000 C 
ATOM     19  C   UNL     1      -1.739  14.150  22.743  0.00  0.00    +0.000 C 
ENDBRANCH   1  19
BRANCH  11  20
ATOM     20  C   UNL     1       3.837   5.603  17.747  0.00  0.00    +0.000 C 
BRANCH  20  21
ATOM     21  C   UNL     1       5.280   5.825  18.037  0.00  0.00    +0.000 A 
ATOM     22  C   UNL     1       6.129   5.360  19.021  0.00  0.00    +0.000 A 
ATOM     23  C   UNL     1       7.395   5.935  18.763  0.00  0.00    +0.000 A 
ATOM     24  C   UNL     1       7.245   6.701  17.632  0.00  0.00    +0.000 A 
ATOM     25  O   UNL     1       5.966   6.639  17.180  0.00  0.00    +0.000 OA
ENDBRANCH  20  21
ENDBRANCH  11  20
TORSDOF 3
ENDMDL
MODEL 8
REMARK VINA RESULT:      -6.7      1.286      2.177
REMARK  Name = 
REMARK  4 active torsions:
REMARK  status: ('A' for Active; 'I' for Inactive)
REMARK    1  A    between atoms: C_1  and  C_2
REMARK    2  A    between atoms: C_2  and  N_3
REMARK    3  A    between atoms: N_13  and  C_14
REMARK    4  A    between atoms: C_14  and  C_15
REMARK                            x       y       z     vdW  Elec       q    Type
REMARK                         _______ _______ _______ _____ _____    ______ ____
ROOT
ATOM      1  N   UNL     1      -0.698  13.352  21.258  0.00  0.00    +0.000 NA
ATOM      2  C   UNL     1      -0.503  12.063  21.966  0.00  0.00    +0.000 C 
ATOM      3  C   UNL     1      -0.648  10.769  21.126  0.00  0.00    +0.000 C 
ATOM      4  N   UNL     1       0.062  10.888  19.856  0.00  0.00    +0.000 N 
ATOM      5  C   UNL     1       0.903   9.906  19.407  0.00  0.00    +0.000 A 
ATOM      6  N   UNL     1       1.523  10.067  18.221  0.00  0.00    +0.000 NA
ATOM      7  C   UNL     1       2.320   9.072  17.775  0.00  0.00    +0.000 A 
ATOM      8  C   UNL     1       2.517   7.916  18.472  0.00  0.00    +0.000 A 
ATOM      9  C   UNL     1       3.329   6.796  17.981  0.00  0.00    +0.000 A 
ATOM     10  O   UNL     1       3.924   6.905  16.914  0.00  0.00    +0.000 OA
ATOM     11  N   UNL     1       3.351   5.655  18.790  0.00  0.00    +0.000 N 
ATOM     12  C   UNL     1       2.679   5.593  20.005  0.00  0.00    +0.000 A 
ATOM     13  C   UNL     1       1.973   6.623  20.479  0.00  0.00    +0.000 A 
ATOM     14  C   UNL     1       1.865   7.832  19.677  0.00  0.00    +0.000 A 
ATOM     15  N   UNL     1       1.070   8.808  20.161  0.00  0.00    +0.000 NA
ATOM     16  C   UNL     1      -0.128  12.118  19.099  0.00  0.00    +0.000 C 
ATOM     17  C   UNL     1       0.135  13.329  20.026  0.00  0.00    +0.000 C 
ENDROOT
BRANCH   1  19
ATOM     18  C   UNL     1      -2.949  14.139  22.077  0.00  0.00    +0.000 C 
ATOM     19  C   UNL     1      -2.094  13.656  20.913  0.00  0.00    +0.000 C 
ENDBRANCH   1  19
BRANCH  11  20
ATOM     20  C   UNL     1       4.094   4.488  18.316  0.00  0.00    +0.000 C 
BRANCH  20  21
ATOM     21  C   UNL     1       5.556   4.765  18.354  0.00  0.00    +0.000 A 
ATOM     22  C   UNL     1       6.377   5.385  19.274  0.00  0.00    +0.000 A 
ATOM     23  C   UNL     1       7.686   5.342  18.737  0.00  0.00    +0.000 A 
ATOM     24  C   UNL     1       7.585   4.686  17.534  0.00  0.00    +0.000 A 
ATOM     25  O   UNL     1       6.297   4.327  17.292  0.00  0.00    +0.000 OA
ENDBRANCH  20  21
ENDBRANCH  11  20
TORSDOF 3
ENDMDL
MODEL 9
REMARK VINA RESULT:      -6.6      1.782      2.705
REMARK  Name = 
REMARK  4 active torsions:
REMARK  status: ('A' for Active; 'I' for Inactive)
REMARK    1  A    between atoms: C_1  and  C_2
REMARK    2  A    between atoms: C_2  and  N_3
REMARK    3  A    between atoms: N_13  and  C_14
REMARK    4  A    between atoms: C_14  and  C_15
REMARK                            x       y       z     vdW  Elec       q    Type
REMARK                         _______ _______ _______ _____ _____    ______ ____
ROOT
ATOM      1  N   UNL     1      -1.554  13.203  22.577  0.00  0.00    +0.000 NA
ATOM      2  C   UNL     1      -1.056  11.894  23.066  0.00  0.00    +0.000 C 
ATOM      3  C   UNL     1      -1.147  10.696  22.087  0.00  0.00    +0.000 C 
ATOM      4  N   UNL     1      -0.683  11.074  20.755  0.00  0.00    +0.000 N 
ATOM      5  C   UNL     1       0.206  10.303  20.057  0.00  0.00    +0.000 A 
ATOM      6  N   UNL     1       0.590  10.697  18.827  0.00  0.00    +0.000 NA
ATOM      7  C   UNL     1       1.440   9.905  18.136  0.00  0.00    +0.000 A 
ATOM      8  C   UNL     1       1.918   8.728  18.633  0.00  0.00    +0.000 A 
ATOM      9  C   UNL     1       2.793   7.822  17.879  0.00  0.00    +0.000 A 
ATOM     10  O   UNL     1       3.180   8.148  16.761  0.00  0.00    +0.000 OA
ATOM     11  N   UNL     1       3.117   6.617  18.512  0.00  0.00    +0.000 N 
ATOM     12  C   UNL     1       2.673   6.308  19.792  0.00  0.00    +0.000 A 
ATOM     13  C   UNL     1       1.913   7.146  20.500  0.00  0.00    +0.000 A 
ATOM     14  C   UNL     1       1.495   8.401  19.897  0.00  0.00    +0.000 A 
ATOM     15  N   UNL     1       0.657   9.170  20.621  0.00  0.00    +0.000 NA
ATOM     16  C   UNL     1      -1.175  12.332  20.209  0.00  0.00    +0.000 C 
ATOM     17  C   UNL     1      -0.943  13.458  21.245  0.00  0.00    +0.000 C 
ENDROOT
BRANCH   1  19
ATOM     18  C   UNL     1      -3.776  12.685  23.651  0.00  0.00    +0.000 C 
ATOM     19  C   UNL     1      -3.017  13.307  22.486  0.00  0.00    +0.000 C 
ENDBRANCH   1  19
BRANCH  11  20
ATOM     20  C   UNL     1       3.935   5.651  17.778  0.00  0.00    +0.000 C 
BRANCH  20  21
ATOM     21  C   UNL     1       5.376   5.875  18.074  0.00  0.00    +0.000 A 
ATOM     22  C   UNL     1       6.371   6.592  17.439  0.00  0.00    +0.000 A 
ATOM     23  C   UNL     1       7.546   6.414  18.208  0.00  0.00    +0.000 A 
ATOM     24  C   UNL     1       7.192   5.617  19.270  0.00  0.00    +0.000 A 
ATOM     25  O   UNL     1       5.876   5.286  19.201  0.00  0.00    +0.000 OA
ENDBRANCH  20  21
ENDBRANCH  11  20
TORSDOF 3
ENDMDL
