MODEL 1
REMARK VINA RESULT:      -7.9      0.000      0.000
REMARK  Name = 
REMARK  4 active torsions:
REMARK  status: ('A' for Active; 'I' for Inactive)
REMARK    1  A    between atoms: C_1  and  C_2
REMARK    2  A    between atoms: C_2  and  C_19
REMARK    3  A    between atoms: N_3  and  N_4
REMARK    4  A    between atoms: C_11  and  C_13
REMARK                            x       y       z     vdW  Elec       q    Type
REMARK                         _______ _______ _______ _____ _____    ______ ____
ROOT
ATOM      1  N   UNL     1       1.957   6.526  20.399  0.00  0.00    +0.000 NA
ATOM      2  C   UNL     1       2.370   5.333  20.105  0.00  0.00    +0.000 C 
ATOM      3  S   UNL     1       2.005   4.103  21.306  0.00  0.00    +0.000 S 
ATOM      4  C   UNL     1       2.483   2.771  20.215  0.00  0.00    +0.000 C 
ATOM      5  C   UNL     1       3.019   3.412  18.968  0.00  0.00    +0.000 C 
ATOM      6  O   UNL     1       3.331   2.720  18.001  0.00  0.00    +0.000 OA
ATOM      7  N   UNL     1       3.059   4.788  19.033  0.00  0.00    +0.000 N 
ATOM      8  C   UNL     1       3.616   5.493  17.964  0.00  0.00    +0.000 C 
ATOM      9  O   UNL     1       2.979   6.266  17.248  0.00  0.00    +0.000 OA
ENDROOT
BRANCH   8  10
ATOM     10  C   UNL     1       4.996   5.089  17.488  0.00  0.00    +0.000 A 
ATOM     11  C   UNL     1       6.056   5.177  18.411  0.00  0.00    +0.000 A 
ATOM     12  C   UNL     1       7.370   4.899  18.028  0.00  0.00    +0.000 A 
ATOM     13  C   UNL     1       7.646   4.526  16.718  0.00  0.00    +0.000 A 
ATOM     14  C   UNL     1       6.606   4.403  15.797  0.00  0.00    +0.000 A 
ATOM     15  C   UNL     1       5.283   4.665  16.183  0.00  0.00    +0.000 A 
ENDBRANCH   8  10
BRANCH   1  18
ATOM     16  C   UNL     1       1.686   9.642  18.497  0.00  0.00    +0.000 C 
ATOM     17  C   UNL     1       1.574   8.650  19.642  0.00  0.00    +0.000 C 
ATOM     18  N   UNL     1       2.145   7.494  19.441  0.00  0.00    +0.000 NA
BRANCH  17  19
ATOM     19  C   UNL     1       0.859   9.087  20.844  0.00  0.00    +0.000 A 
ATOM     20  C   UNL     1       1.103   8.784  22.175  0.00  0.00    +0.000 A 
ATOM     21  C   UNL     1       0.288   9.538  23.078  0.00  0.00    +0.000 A 
ATOM     22  C   UNL     1      -0.575  10.351  22.396  0.00  0.00    +0.000 A 
ATOM     23 CL   UNL     1      -1.694  11.463  23.077  0.00  0.00    +0.000 Cl
ATOM     24  S   UNL     1      -0.455  10.201  20.720  0.00  0.00    +0.000 S 
ENDBRANCH  17  19
ENDBRANCH   1  18
TORSDOF 3
ENDMDL
MODEL 2
REMARK VINA RESULT:      -7.9      0.262      1.010
REMARK  Name = 
REMARK  4 active torsions:
REMARK  status: ('A' for Active; 'I' for Inactive)
REMARK    1  A    between atoms: C_1  and  C_2
REMARK    2  A    between atoms: C_2  and  C_19
REMARK    3  A    between atoms: N_3  and  N_4
REMARK    4  A    between atoms: C_11  and  C_13
REMARK                            x       y       z     vdW  Elec       q    Type
REMARK                         _______ _______ _______ _____ _____    ______ ____
ROOT
ATOM      1  N   UNL     1       1.908   6.718  20.365  0.00  0.00    +0.000 NA
ATOM      2  C   UNL     1       2.355   5.543  20.050  0.00  0.00    +0.000 C 
ATOM      3  S   UNL     1       1.984   4.272  21.206  0.00  0.00    +0.000 S 
ATOM      4  C   UNL     1       2.520   2.981  20.093  0.00  0.00    +0.000 C 
ATOM      5  C   UNL     1       3.077   3.668  18.880  0.00  0.00    +0.000 C 
ATOM      6  O   UNL     1       3.430   3.010  17.903  0.00  0.00    +0.000 OA
ATOM      7  N   UNL     1       3.085   5.042  18.984  0.00  0.00    +0.000 N 
ATOM      8  C   UNL     1       3.656   5.788  17.951  0.00  0.00    +0.000 C 
ATOM      9  O   UNL     1       3.023   6.568  17.238  0.00  0.00    +0.000 OA
ENDROOT
BRANCH   8  10
ATOM     10  C   UNL     1       5.057   5.427  17.503  0.00  0.00    +0.000 A 
ATOM     11  C   UNL     1       5.265   5.199  16.128  0.00  0.00    +0.000 A 
ATOM     12  C   UNL     1       6.509   4.786  15.646  0.00  0.00    +0.000 A 
ATOM     13  C   UNL     1       7.567   4.597  16.528  0.00  0.00    +0.000 A 
ATOM     14  C   UNL     1       7.390   4.848  17.888  0.00  0.00    +0.000 A 
ATOM     15  C   UNL     1       6.146   5.280  18.373  0.00  0.00    +0.000 A 
ENDBRANCH   8  10
BRANCH   1  18
ATOM     16  C   UNL     1       1.633   9.885  18.550  0.00  0.00    +0.000 C 
ATOM     17  C   UNL     1       1.511   8.858  19.663  0.00  0.00    +0.000 C 
ATOM     18  N   UNL     1       2.103   7.716  19.440  0.00  0.00    +0.000 NA
BRANCH  17  19
ATOM     19  C   UNL     1       0.767   9.250  20.863  0.00  0.00    +0.000 A 
ATOM     20  C   UNL     1       0.956   8.869  22.183  0.00  0.00    +0.000 A 
ATOM     21  C   UNL     1       0.131   9.596  23.098  0.00  0.00    +0.000 A 
ATOM     22  C   UNL     1      -0.685  10.470  22.433  0.00  0.00    +0.000 A 
ATOM     23 CL   UNL     1      -1.797  11.575  23.137  0.00  0.00    +0.000 Cl
ATOM     24  S   UNL     1      -0.511  10.406  20.756  0.00  0.00    +0.000 S 
ENDBRANCH  17  19
ENDBRANCH   1  18
TORSDOF 3
ENDMDL
MODEL 3
REMARK VINA RESULT:      -7.7      4.168      7.016
REMARK  Name = 
REMARK  4 active torsions:
REMARK  status: ('A' for Active; 'I' for Inactive)
REMARK    1  A    between atoms: C_1  and  C_2
REMARK    2  A    between atoms: C_2  and  C_19
REMARK    3  A    between atoms: N_3  and  N_4
REMARK    4  A    between atoms: C_11  and  C_13
REMARK                            x       y       z     vdW  Elec       q    Type
REMARK                         _______ _______ _______ _____ _____    ______ ____
ROOT
ATOM      1  N   UNL     1       4.675   3.091  18.424  0.00  0.00    +0.000 NA
ATOM      2  C   UNL     1       3.421   3.325  18.655  0.00  0.00    +0.000 C 
ATOM      3  S   UNL     1       2.317   2.074  18.102  0.00  0.00    +0.000 S 
ATOM      4  C   UNL     1       0.930   2.789  18.973  0.00  0.00    +0.000 C 
ATOM      5  C   UNL     1       1.422   4.072  19.578  0.00  0.00    +0.000 C 
ATOM      6  O   UNL     1       0.693   4.725  20.323  0.00  0.00    +0.000 OA
ATOM      7  N   UNL     1       2.728   4.366  19.251  0.00  0.00    +0.000 N 
ATOM      8  C   UNL     1       3.271   5.576  19.688  0.00  0.00    +0.000 C 
ATOM      9  O   UNL     1       4.210   5.659  20.480  0.00  0.00    +0.000 OA
ENDROOT
BRANCH   8  10
ATOM     10  C   UNL     1       2.503   6.849  19.393  0.00  0.00    +0.000 A 
ATOM     11  C   UNL     1       2.496   7.313  18.063  0.00  0.00    +0.000 A 
ATOM     12  C   UNL     1       1.878   8.518  17.724  0.00  0.00    +0.000 A 
ATOM     13  C   UNL     1       1.255   9.279  18.706  0.00  0.00    +0.000 A 
ATOM     14  C   UNL     1       1.225   8.821  20.023  0.00  0.00    +0.000 A 
ATOM     15  C   UNL     1       1.829   7.602  20.364  0.00  0.00    +0.000 A 
ENDBRANCH   8  10
BRANCH   1  18
ATOM     16  C   UNL     1       7.277   5.656  18.640  0.00  0.00    +0.000 C 
ATOM     17  C   UNL     1       6.193   4.762  18.062  0.00  0.00    +0.000 C 
ATOM     18  N   UNL     1       5.571   4.005  18.924  0.00  0.00    +0.000 NA
BRANCH  17  19
ATOM     19  C   UNL     1       5.948   4.847  16.620  0.00  0.00    +0.000 A 
ATOM     20  C   UNL     1       5.356   5.862  15.883  0.00  0.00    +0.000 A 
ATOM     21  C   UNL     1       5.447   5.653  14.471  0.00  0.00    +0.000 A 
ATOM     22  C   UNL     1       6.064   4.465  14.190  0.00  0.00    +0.000 A 
ATOM     23 CL   UNL     1       6.429   3.840  12.632  0.00  0.00    +0.000 Cl
ATOM     24  S   UNL     1       6.495   3.592  15.568  0.00  0.00    +0.000 S 
ENDBRANCH  17  19
ENDBRANCH   1  18
TORSDOF 3
ENDMDL
MODEL 4
REMARK VINA RESULT:      -7.1      4.197      7.329
REMARK  Name = 
REMARK  4 active torsions:
REMARK  status: ('A' for Active; 'I' for Inactive)
REMARK    1  A    between atoms: C_1  and  C_2
REMARK    2  A    between atoms: C_2  and  C_19
REMARK    3  A    between atoms: N_3  and  N_4
REMARK    4  A    between atoms: C_11  and  C_13
REMARK                            x       y       z     vdW  Elec       q    Type
REMARK                         _______ _______ _______ _____ _____    ______ ____
ROOT
ATOM      1  N   UNL     1       4.646   3.301  17.955  0.00  0.00    +0.000 NA
ATOM      2  C   UNL     1       3.421   3.517  18.321  0.00  0.00    +0.000 C 
ATOM      3  S   UNL     1       2.273   2.273  17.847  0.00  0.00    +0.000 S 
ATOM      4  C   UNL     1       0.980   2.950  18.876  0.00  0.00    +0.000 C 
ATOM      5  C   UNL     1       1.523   4.219  19.466  0.00  0.00    +0.000 C 
ATOM      6  O   UNL     1       0.871   4.843  20.300  0.00  0.00    +0.000 OA
ATOM      7  N   UNL     1       2.787   4.534  19.015  0.00  0.00    +0.000 N 
ATOM      8  C   UNL     1       3.364   5.737  19.429  0.00  0.00    +0.000 C 
ATOM      9  O   UNL     1       4.379   5.805  20.123  0.00  0.00    +0.000 OA
ENDROOT
BRANCH   8  10
ATOM     10  C   UNL     1       2.563   7.010  19.252  0.00  0.00    +0.000 A 
ATOM     11  C   UNL     1       1.983   7.582  20.401  0.00  0.00    +0.000 A 
ATOM     12  C   UNL     1       1.165   8.710  20.311  0.00  0.00    +0.000 A 
ATOM     13  C   UNL     1       0.915   9.287  19.071  0.00  0.00    +0.000 A 
ATOM     14  C   UNL     1       1.505   8.755  17.926  0.00  0.00    +0.000 A 
ATOM     15  C   UNL     1       2.341   7.632  18.015  0.00  0.00    +0.000 A 
ENDBRANCH   8  10
BRANCH   1  18
ATOM     16  C   UNL     1       7.523   5.562  18.038  0.00  0.00    +0.000 C 
ATOM     17  C   UNL     1       6.416   4.675  17.496  0.00  0.00    +0.000 C 
ATOM     18  N   UNL     1       5.584   4.208  18.387  0.00  0.00    +0.000 NA
BRANCH  17  19
ATOM     19  C   UNL     1       6.382   4.447  16.050  0.00  0.00    +0.000 A 
ATOM     20  C   UNL     1       5.403   3.848  15.272  0.00  0.00    +0.000 A 
ATOM     21  C   UNL     1       5.657   3.960  13.868  0.00  0.00    +0.000 A 
ATOM     22  C   UNL     1       6.843   4.601  13.635  0.00  0.00    +0.000 A 
ATOM     23 CL   UNL     1       7.514   4.995  12.103  0.00  0.00    +0.000 Cl
ATOM     24  S   UNL     1       7.663   5.028  15.047  0.00  0.00    +0.000 S 
ENDBRANCH  17  19
ENDBRANCH   1  18
TORSDOF 3
ENDMDL
MODEL 5
REMARK VINA RESULT:      -7.0      4.071      7.107
REMARK  Name = 
REMARK  4 active torsions:
REMARK  status: ('A' for Active; 'I' for Inactive)
REMARK    1  A    between atoms: C_1  and  C_2
REMARK    2  A    between atoms: C_2  and  C_19
REMARK    3  A    between atoms: N_3  and  N_4
REMARK    4  A    between atoms: C_11  and  C_13
REMARK                            x       y       z     vdW  Elec       q    Type
REMARK                         _______ _______ _______ _____ _____    ______ ____
ROOT
ATOM      1  N   UNL     1       4.800   3.201  18.152  0.00  0.00    +0.000 NA
ATOM      2  C   UNL     1       3.543   3.420  18.380  0.00  0.00    +0.000 C 
ATOM      3  S   UNL     1       2.449   2.194  17.755  0.00  0.00    +0.000 S 
ATOM      4  C   UNL     1       1.051   2.862  18.643  0.00  0.00    +0.000 C 
ATOM      5  C   UNL     1       1.531   4.115  19.315  0.00  0.00    +0.000 C 
ATOM      6  O   UNL     1       0.792   4.730  20.081  0.00  0.00    +0.000 OA
ATOM      7  N   UNL     1       2.840   4.429  19.017  0.00  0.00    +0.000 N 
ATOM      8  C   UNL     1       3.373   5.619  19.518  0.00  0.00    +0.000 C 
ATOM      9  O   UNL     1       4.303   5.666  20.324  0.00  0.00    +0.000 OA
ENDROOT
BRANCH   8  10
ATOM     10  C   UNL     1       2.605   6.901  19.275  0.00  0.00    +0.000 A 
ATOM     11  C   UNL     1       2.016   7.531  20.390  0.00  0.00    +0.000 A 
ATOM     12  C   UNL     1       1.227   8.672  20.239  0.00  0.00    +0.000 A 
ATOM     13  C   UNL     1       1.013   9.206  18.973  0.00  0.00    +0.000 A 
ATOM     14  C   UNL     1       1.613   8.616  17.862  0.00  0.00    +0.000 A 
ATOM     15  C   UNL     1       2.421   7.479  18.011  0.00  0.00    +0.000 A 
ENDBRANCH   8  10
BRANCH   1  18
ATOM     16  C   UNL     1       7.553   5.580  18.551  0.00  0.00    +0.000 C 
ATOM     17  C   UNL     1       6.495   4.714  17.890  0.00  0.00    +0.000 C 
ATOM     18  N   UNL     1       5.688   4.092  18.706  0.00  0.00    +0.000 NA
BRANCH  17  19
ATOM     19  C   UNL     1       6.475   4.674  16.425  0.00  0.00    +0.000 A 
ATOM     20  C   UNL     1       7.489   4.952  15.521  0.00  0.00    +0.000 A 
ATOM     21  C   UNL     1       7.135   4.638  14.171  0.00  0.00    +0.000 A 
ATOM     22  C   UNL     1       5.849   4.177  14.096  0.00  0.00    +0.000 A 
ATOM     23 CL   UNL     1       5.031   3.637  12.685  0.00  0.00    +0.000 Cl
ATOM     24  S   UNL     1       5.059   4.150  15.587  0.00  0.00    +0.000 S 
ENDBRANCH  17  19
ENDBRANCH   1  18
TORSDOF 3
ENDMDL
MODEL 6
REMARK VINA RESULT:      -7.0      4.091      7.827
REMARK  Name = 
REMARK  4 active torsions:
REMARK  status: ('A' for Active; 'I' for Inactive)
REMARK    1  A    between atoms: C_1  and  C_2
REMARK    2  A    between atoms: C_2  and  C_19
REMARK    3  A    between atoms: N_3  and  N_4
REMARK    4  A    between atoms: C_11  and  C_13
REMARK                            x       y       z     vdW  Elec       q    Type
REMARK                         _______ _______ _______ _____ _____    ______ ____
ROOT
ATOM      1  N   UNL     1       1.473   8.385  20.690  0.00  0.00    +0.000 NA
ATOM      2  C   UNL     1       0.541   9.239  20.974  0.00  0.00    +0.000 C 
ATOM      3  S   UNL     1       0.053   9.275  22.662  0.00  0.00    +0.000 S 
ATOM      4  C   UNL     1      -0.904  10.768  22.446  0.00  0.00    +0.000 C 
ATOM      5  C   UNL     1      -0.861  11.094  20.981  0.00  0.00    +0.000 C 
ATOM      6  O   UNL     1      -1.361  12.137  20.564  0.00  0.00    +0.000 OA
ATOM      7  N   UNL     1      -0.187  10.155  20.231  0.00  0.00    +0.000 N 
ATOM      8  C   UNL     1      -0.152  10.307  18.843  0.00  0.00    +0.000 C 
ATOM      9  O   UNL     1       0.881  10.506  18.202  0.00  0.00    +0.000 OA
ENDROOT
BRANCH   8  10
ATOM     10  C   UNL     1      -1.465  10.510  18.116  0.00  0.00    +0.000 A 
ATOM     11  C   UNL     1      -2.479   9.555  18.322  0.00  0.00    +0.000 A 
ATOM     12  C   UNL     1      -3.689   9.627  17.629  0.00  0.00    +0.000 A 
ATOM     13  C   UNL     1      -3.908  10.656  16.720  0.00  0.00    +0.000 A 
ATOM     14  C   UNL     1      -2.928  11.629  16.525  0.00  0.00    +0.000 A 
ATOM     15  C   UNL     1      -1.718  11.569  17.233  0.00  0.00    +0.000 A 
ENDBRANCH   8  10
BRANCH   1  18
ATOM     16  C   UNL     1       3.142   7.401  17.585  0.00  0.00    +0.000 C 
ATOM     17  C   UNL     1       2.512   7.304  18.963  0.00  0.00    +0.000 C 
ATOM     18  N   UNL     1       1.941   8.395  19.398  0.00  0.00    +0.000 NA
BRANCH  17  19
ATOM     19  C   UNL     1       2.593   6.013  19.651  0.00  0.00    +0.000 A 
ATOM     20  C   UNL     1       1.664   5.388  20.470  0.00  0.00    +0.000 A 
ATOM     21  C   UNL     1       2.038   4.053  20.822  0.00  0.00    +0.000 A 
ATOM     22  C   UNL     1       3.258   3.731  20.294  0.00  0.00    +0.000 A 
ATOM     23 CL   UNL     1       4.066   2.220  20.422  0.00  0.00    +0.000 Cl
ATOM     24  S   UNL     1       3.970   4.994  19.431  0.00  0.00    +0.000 S 
ENDBRANCH  17  19
ENDBRANCH   1  18
TORSDOF 3
ENDMDL
MODEL 7
REMARK VINA RESULT:      -6.7      2.703      4.495
REMARK  Name = 
REMARK  4 active torsions:
REMARK  status: ('A' for Active; 'I' for Inactive)
REMARK    1  A    between atoms: C_1  and  C_2
REMARK    2  A    between atoms: C_2  and  C_19
REMARK    3  A    between atoms: N_3  and  N_4
REMARK    4  A    between atoms: C_11  and  C_13
REMARK                            x       y       z     vdW  Elec       q    Type
REMARK                         _______ _______ _______ _____ _____    ______ ____
ROOT
ATOM      1  N   UNL     1       1.769   8.854  18.908  0.00  0.00    +0.000 NA
ATOM      2  C   UNL     1       2.552   7.876  18.576  0.00  0.00    +0.000 C 
ATOM      3  S   UNL     1       3.546   8.169  17.156  0.00  0.00    +0.000 S 
ATOM      4  C   UNL     1       4.543   6.714  17.444  0.00  0.00    +0.000 C 
ATOM      5  C   UNL     1       3.938   6.010  18.624  0.00  0.00    +0.000 C 
ATOM      6  O   UNL     1       4.490   5.021  19.104  0.00  0.00    +0.000 OA
ATOM      7  N   UNL     1       2.792   6.613  19.093  0.00  0.00    +0.000 N 
ATOM      8  C   UNL     1       2.093   6.002  20.136  0.00  0.00    +0.000 C 
ATOM      9  O   UNL     1       1.949   6.505  21.251  0.00  0.00    +0.000 OA
ENDROOT
BRANCH   8  10
ATOM     10  C   UNL     1       1.725   4.540  19.986  0.00  0.00    +0.000 A 
ATOM     11  C   UNL     1       1.889   3.707  21.110  0.00  0.00    +0.000 A 
ATOM     12  C   UNL     1       1.647   2.334  21.031  0.00  0.00    +0.000 A 
ATOM     13  C   UNL     1       1.235   1.770  19.829  0.00  0.00    +0.000 A 
ATOM     14  C   UNL     1       1.037   2.583  18.714  0.00  0.00    +0.000 A 
ATOM     15  C   UNL     1       1.262   3.965  18.794  0.00  0.00    +0.000 A 
ENDBRANCH   8  10
BRANCH   1  18
ATOM     16  C   UNL     1      -0.438   9.511  21.753  0.00  0.00    +0.000 C 
ATOM     17  C   UNL     1       0.234   9.660  20.399  0.00  0.00    +0.000 C 
ATOM     18  N   UNL     1       1.046   8.694  20.066  0.00  0.00    +0.000 NA
BRANCH  17  19
ATOM     19  C   UNL     1      -0.101  10.847  19.608  0.00  0.00    +0.000 A 
ATOM     20  C   UNL     1      -1.070  11.011  18.629  0.00  0.00    +0.000 A 
ATOM     21  C   UNL     1      -1.207  12.369  18.201  0.00  0.00    +0.000 A 
ATOM     22  C   UNL     1      -0.304  13.177  18.837  0.00  0.00    +0.000 A 
ATOM     23 CL   UNL     1      -0.149  14.879  18.666  0.00  0.00    +0.000 Cl
ATOM     24  S   UNL     1       0.713  12.343  19.894  0.00  0.00    +0.000 S 
ENDBRANCH  17  19
ENDBRANCH   1  18
TORSDOF 3
ENDMDL
MODEL 8
REMARK VINA RESULT:      -6.6      2.766      4.602
REMARK  Name = 
REMARK  4 active torsions:
REMARK  status: ('A' for Active; 'I' for Inactive)
REMARK    1  A    between atoms: C_1  and  C_2
REMARK    2  A    between atoms: C_2  and  C_19
REMARK    3  A    between atoms: N_3  and  N_4
REMARK    4  A    between atoms: C_11  and  C_13
REMARK                            x       y       z     vdW  Elec       q    Type
REMARK                         _______ _______ _______ _____ _____    ______ ____
ROOT
ATOM      1  N   UNL     1       2.226   8.740  18.094  0.00  0.00    +0.000 NA
ATOM      2  C   UNL     1       3.017   7.713  18.106  0.00  0.00    +0.000 C 
ATOM      3  S   UNL     1       4.330   7.772  16.938  0.00  0.00    +0.000 S 
ATOM      4  C   UNL     1       5.159   6.367  17.666  0.00  0.00    +0.000 C 
ATOM      5  C   UNL     1       4.260   5.860  18.756  0.00  0.00    +0.000 C 
ATOM      6  O   UNL     1       4.635   4.950  19.494  0.00  0.00    +0.000 OA
ATOM      7  N   UNL     1       3.066   6.542  18.844  0.00  0.00    +0.000 N 
ATOM      8  C   UNL     1       2.113   6.106  19.767  0.00  0.00    +0.000 C 
ATOM      9  O   UNL     1       1.736   6.776  20.729  0.00  0.00    +0.000 OA
ENDROOT
BRANCH   8  10
ATOM     10  C   UNL     1       1.720   4.643  19.748  0.00  0.00    +0.000 A 
ATOM     11  C   UNL     1       1.719   3.952  20.975  0.00  0.00    +0.000 A 
ATOM     12  C   UNL     1       1.445   2.584  21.031  0.00  0.00    +0.000 A 
ATOM     13  C   UNL     1       1.165   1.884  19.864  0.00  0.00    +0.000 A 
ATOM     14  C   UNL     1       1.131   2.557  18.643  0.00  0.00    +0.000 A 
ATOM     15  C   UNL     1       1.388   3.934  18.585  0.00  0.00    +0.000 A 
ENDBRANCH   8  10
BRANCH   1  18
ATOM     16  C   UNL     1      -0.034   9.901  20.728  0.00  0.00    +0.000 C 
ATOM     17  C   UNL     1       0.951   9.930  19.573  0.00  0.00    +0.000 C 
ATOM     18  N   UNL     1       1.244   8.768  19.055  0.00  0.00    +0.000 NA
BRANCH  17  19
ATOM     19  C   UNL     1       1.455  11.239  19.150  0.00  0.00    +0.000 A 
ATOM     20  C   UNL     1       2.314  11.562  18.111  0.00  0.00    +0.000 A 
ATOM     21  C   UNL     1       2.441  12.973  17.908  0.00  0.00    +0.000 A 
ATOM     22  C   UNL     1       1.708  13.668  18.831  0.00  0.00    +0.000 A 
ATOM     23 CL   UNL     1       1.531  15.374  18.927  0.00  0.00    +0.000 Cl
ATOM     24  S   UNL     1       0.915  12.677  19.942  0.00  0.00    +0.000 S 
ENDBRANCH  17  19
ENDBRANCH   1  18
TORSDOF 3
ENDMDL
MODEL 9
REMARK VINA RESULT:      -6.5      1.076      1.664
REMARK  Name = 
REMARK  4 active torsions:
REMARK  status: ('A' for Active; 'I' for Inactive)
REMARK    1  A    between atoms: C_1  and  C_2
REMARK    2  A    between atoms: C_2  and  C_19
REMARK    3  A    between atoms: N_3  and  N_4
REMARK    4  A    between atoms: C_11  and  C_13
REMARK                            x       y       z     vdW  Elec       q    Type
REMARK                         _______ _______ _______ _____ _____    ______ ____
ROOT
ATOM      1  N   UNL     1       1.876   7.403  19.806  0.00  0.00    +0.000 NA
ATOM      2  C   UNL     1       2.261   6.173  19.673  0.00  0.00    +0.000 C 
ATOM      3  S   UNL     1       1.552   5.043  20.818  0.00  0.00    +0.000 S 
ATOM      4  C   UNL     1       2.169   3.620  19.933  0.00  0.00    +0.000 C 
ATOM      5  C   UNL     1       3.013   4.149  18.810  0.00  0.00    +0.000 C 
ATOM      6  O   UNL     1       3.486   3.380  17.975  0.00  0.00    +0.000 OA
ATOM      7  N   UNL     1       3.133   5.522  18.815  0.00  0.00    +0.000 N 
ATOM      8  C   UNL     1       3.963   6.124  17.867  0.00  0.00    +0.000 C 
ATOM      9  O   UNL     1       3.559   6.885  16.988  0.00  0.00    +0.000 OA
ENDROOT
BRANCH   8  10
ATOM     10  C   UNL     1       5.384   5.615  17.739  0.00  0.00    +0.000 A 
ATOM     11  C   UNL     1       5.786   5.112  16.486  0.00  0.00    +0.000 A 
ATOM     12  C   UNL     1       7.053   4.552  16.307  0.00  0.00    +0.000 A 
ATOM     13  C   UNL     1       7.940   4.487  17.375  0.00  0.00    +0.000 A 
ATOM     14  C   UNL     1       7.572   5.008  18.615  0.00  0.00    +0.000 A 
ATOM     15  C   UNL     1       6.307   5.587  18.794  0.00  0.00    +0.000 A 
ENDBRANCH   8  10
BRANCH   1  18
ATOM     16  C   UNL     1       2.198  10.361  17.674  0.00  0.00    +0.000 C 
ATOM     17  C   UNL     1       1.753   9.459  18.812  0.00  0.00    +0.000 C 
ATOM     18  N   UNL     1       2.342   8.295  18.870  0.00  0.00    +0.000 NA
BRANCH  17  19
ATOM     19  C   UNL     1       0.734   9.981  19.726  0.00  0.00    +0.000 A 
ATOM     20  C   UNL     1      -0.513  10.518  19.446  0.00  0.00    +0.000 A 
ATOM     21  C   UNL     1      -1.293  10.765  20.619  0.00  0.00    +0.000 A 
ATOM     22  C   UNL     1      -0.589  10.449  21.750  0.00  0.00    +0.000 A 
ATOM     23 CL   UNL     1      -1.154  10.541  23.370  0.00  0.00    +0.000 Cl
ATOM     24  S   UNL     1       0.977   9.907  21.435  0.00  0.00    +0.000 S 
ENDBRANCH  17  19
ENDBRANCH   1  18
TORSDOF 3
ENDMDL
