MODEL 1
REMARK VINA RESULT:      -5.4      0.000      0.000
REMARK  Name = 
REMARK  6 active torsions:
REMARK  status: ('A' for Active; 'I' for Inactive)
REMARK    1  A    between atoms: C_1  and  N_2
REMARK    2  A    between atoms: N_2  and  N_3
REMARK    3  A    between atoms: N_2  and  C_4
REMARK    4  A    between atoms: C_8  and  C_9
REMARK    5  A    between atoms: C_11  and  C_12
REMARK    6  A    between atoms: C_14  and  C_15
REMARK                            x       y       z     vdW  Elec       q    Type
REMARK                         _______ _______ _______ _____ _____    ______ ____
ROOT
ATOM      1  C   UNL     1       4.667   5.065  17.874  0.00  0.00    +0.000 A 
ATOM      2  N   UNL     1       5.041   3.838  18.330  0.00  0.00    +0.000 NA
ATOM      3  C   UNL     1       4.384   3.260  19.358  0.00  0.00    +0.000 A 
ATOM      4  N   UNL     1       4.873   2.017  19.748  0.00  0.00    +0.000 N 
ATOM      5  C   UNL     1       3.355   3.900  20.033  0.00  0.00    +0.000 A 
ATOM      6  C   UNL     1       2.986   5.180  19.606  0.00  0.00    +0.000 A 
ATOM      7  C   UNL     1       3.639   5.770  18.513  0.00  0.00    +0.000 A 
ATOM      8  H   UNL     1       5.569   1.703  19.077  0.00  0.00    +0.000 HD
ATOM      9  H   UNL     1       4.163   1.310  19.921  0.00  0.00    +0.000 HD
ENDROOT
BRANCH   1  11
ATOM     10  C   UNL     1       6.654   6.183  17.051  0.00  0.00    +0.000 C 
ATOM     11  N   UNL     1       5.326   5.632  16.737  0.00  0.00    +0.000 N 
BRANCH  11  12
ATOM     12  N   UNL     1       5.205   4.891  15.516  0.00  0.00    +0.000 NA
ATOM     13  H   UNL     1       5.888   4.127  15.501  0.00  0.00    +0.000 HD
ATOM     14  H   UNL     1       5.496   5.466  14.716  0.00  0.00    +0.000 HD
ENDBRANCH  11  12
ENDBRANCH   1  11
BRANCH   5  15
ATOM     15  C   UNL     1       2.689   3.255  21.123  0.00  0.00    +0.000 C 
ATOM     16  N   UNL     1       2.180   2.727  22.023  0.00  0.00    +0.000 NA
ENDBRANCH   5  15
BRANCH   6  17
ATOM     17  C   UNL     1       1.947   5.890  20.290  0.00  0.00    +0.000 C 
ATOM     18  N   UNL     1       1.107   6.466  20.844  0.00  0.00    +0.000 NA
ENDBRANCH   6  17
BRANCH   7  19
ATOM     19  C   UNL     1       3.291   7.090  18.088  0.00  0.00    +0.000 C 
ATOM     20  N   UNL     1       2.982   8.154  17.740  0.00  0.00    +0.000 NA
ENDBRANCH   7  19
TORSDOF 5
ENDMDL
MODEL 2
REMARK VINA RESULT:      -5.3      1.020      4.229
REMARK  Name = 
REMARK  6 active torsions:
REMARK  status: ('A' for Active; 'I' for Inactive)
REMARK    1  A    between atoms: C_1  and  N_2
REMARK    2  A    between atoms: N_2  and  N_3
REMARK    3  A    between atoms: N_2  and  C_4
REMARK    4  A    between atoms: C_8  and  C_9
REMARK    5  A    between atoms: C_11  and  C_12
REMARK    6  A    between atoms: C_14  and  C_15
REMARK                            x       y       z     vdW  Elec       q    Type
REMARK                         _______ _______ _______ _____ _____    ______ ____
ROOT
ATOM      1  C   UNL     1       3.664   3.496  19.123  0.00  0.00    +0.000 A 
ATOM      2  N   UNL     1       4.188   4.032  17.987  0.00  0.00    +0.000 NA
ATOM      3  C   UNL     1       3.991   5.335  17.691  0.00  0.00    +0.000 A 
ATOM      4  N   UNL     1       4.557   5.761  16.494  0.00  0.00    +0.000 N 
ATOM      5  C   UNL     1       3.205   6.162  18.480  0.00  0.00    +0.000 A 
ATOM      6  C   UNL     1       2.623   5.616  19.628  0.00  0.00    +0.000 A 
ATOM      7  C   UNL     1       2.856   4.273  19.962  0.00  0.00    +0.000 A 
ATOM      8  H   UNL     1       5.148   5.024  16.119  0.00  0.00    +0.000 HD
ATOM      9  H   UNL     1       5.041   6.653  16.540  0.00  0.00    +0.000 HD
ENDROOT
BRANCH   1  11
ATOM     10  C   UNL     1       3.681   1.196  18.355  0.00  0.00    +0.000 C 
ATOM     11  N   UNL     1       3.944   2.132  19.460  0.00  0.00    +0.000 N 
BRANCH  11  12
ATOM     12  N   UNL     1       5.138   1.914  20.223  0.00  0.00    +0.000 NA
ATOM     13  H   UNL     1       5.333   2.731  20.810  0.00  0.00    +0.000 HD
ATOM     14  H   UNL     1       5.958   1.884  19.605  0.00  0.00    +0.000 HD
ENDBRANCH  11  12
ENDBRANCH   1  11
BRANCH   5  15
ATOM     15  C   UNL     1       3.015   7.537  18.126  0.00  0.00    +0.000 C 
ATOM     16  N   UNL     1       2.832   8.651  17.859  0.00  0.00    +0.000 NA
ENDBRANCH   5  15
BRANCH   6  17
ATOM     17  C   UNL     1       1.782   6.426  20.457  0.00  0.00    +0.000 C 
ATOM     18  N   UNL     1       1.103   7.083  21.131  0.00  0.00    +0.000 NA
ENDBRANCH   6  17
BRANCH   7  19
ATOM     19  C   UNL     1       2.241   3.697  21.117  0.00  0.00    +0.000 C 
ATOM     20  N   UNL     1       1.763   3.213  22.057  0.00  0.00    +0.000 NA
ENDBRANCH   7  19
TORSDOF 5
ENDMDL
MODEL 3
REMARK VINA RESULT:      -5.3      1.851      4.424
REMARK  Name = 
REMARK  6 active torsions:
REMARK  status: ('A' for Active; 'I' for Inactive)
REMARK    1  A    between atoms: C_1  and  N_2
REMARK    2  A    between atoms: N_2  and  N_3
REMARK    3  A    between atoms: N_2  and  C_4
REMARK    4  A    between atoms: C_8  and  C_9
REMARK    5  A    between atoms: C_11  and  C_12
REMARK    6  A    between atoms: C_14  and  C_15
REMARK                            x       y       z     vdW  Elec       q    Type
REMARK                         _______ _______ _______ _____ _____    ______ ____
ROOT
ATOM      1  C   UNL     1       4.688   3.603  18.980  0.00  0.00    +0.000 A 
ATOM      2  N   UNL     1       6.014   3.612  18.674  0.00  0.00    +0.000 NA
ATOM      3  C   UNL     1       6.597   4.730  18.189  0.00  0.00    +0.000 A 
ATOM      4  N   UNL     1       7.951   4.611  17.894  0.00  0.00    +0.000 N 
ATOM      5  C   UNL     1       5.875   5.885  17.923  0.00  0.00    +0.000 A 
ATOM      6  C   UNL     1       4.503   5.878  18.190  0.00  0.00    +0.000 A 
ATOM      7  C   UNL     1       3.899   4.732  18.730  0.00  0.00    +0.000 A 
ATOM      8  H   UNL     1       8.293   3.717  18.236  0.00  0.00    +0.000 HD
ATOM      9  H   UNL     1       8.530   5.386  18.205  0.00  0.00    +0.000 HD
ENDROOT
BRANCH   1  11
ATOM     10  C   UNL     1       3.554   1.501  18.561  0.00  0.00    +0.000 C 
ATOM     11  N   UNL     1       4.101   2.433  19.560  0.00  0.00    +0.000 N 
BRANCH  11  12
ATOM     12  N   UNL     1       4.823   1.856  20.657  0.00  0.00    +0.000 NA
ATOM     13  H   UNL     1       5.830   1.999  20.528  0.00  0.00    +0.000 HD
ATOM     14  H   UNL     1       4.741   0.832  20.642  0.00  0.00    +0.000 HD
ENDBRANCH  11  12
ENDBRANCH   1  11
BRANCH   5  15
ATOM     15  C   UNL     1       6.531   7.047  17.403  0.00  0.00    +0.000 C 
ATOM     16  N   UNL     1       7.090   7.970  16.976  0.00  0.00    +0.000 NA
ENDBRANCH   5  15
BRANCH   6  17
ATOM     17  C   UNL     1       3.714   7.039  17.906  0.00  0.00    +0.000 C 
ATOM     18  N   UNL     1       3.075   7.979  17.674  0.00  0.00    +0.000 NA
ENDBRANCH   6  17
BRANCH   7  19
ATOM     19  C   UNL     1       2.491   4.705  18.979  0.00  0.00    +0.000 C 
ATOM     20  N   UNL     1       1.351   4.657  19.189  0.00  0.00    +0.000 NA
ENDBRANCH   7  19
TORSDOF 5
ENDMDL
MODEL 4
REMARK VINA RESULT:      -5.3      1.231      4.418
REMARK  Name = 
REMARK  6 active torsions:
REMARK  status: ('A' for Active; 'I' for Inactive)
REMARK    1  A    between atoms: C_1  and  N_2
REMARK    2  A    between atoms: N_2  and  N_3
REMARK    3  A    between atoms: N_2  and  C_4
REMARK    4  A    between atoms: C_8  and  C_9
REMARK    5  A    between atoms: C_11  and  C_12
REMARK    6  A    between atoms: C_14  and  C_15
REMARK                            x       y       z     vdW  Elec       q    Type
REMARK                         _______ _______ _______ _____ _____    ______ ____
ROOT
ATOM      1  C   UNL     1       3.449   3.772  19.275  0.00  0.00    +0.000 A 
ATOM      2  N   UNL     1       4.266   3.224  18.334  0.00  0.00    +0.000 NA
ATOM      3  C   UNL     1       4.768   3.983  17.336  0.00  0.00    +0.000 A 
ATOM      4  N   UNL     1       5.571   3.306  16.424  0.00  0.00    +0.000 N 
ATOM      5  C   UNL     1       4.433   5.321  17.184  0.00  0.00    +0.000 A 
ATOM      6  C   UNL     1       3.560   5.890  18.117  0.00  0.00    +0.000 A 
ATOM      7  C   UNL     1       3.066   5.115  19.178  0.00  0.00    +0.000 A 
ATOM      8  H   UNL     1       5.748   2.365  16.765  0.00  0.00    +0.000 HD
ATOM      9  H   UNL     1       6.429   3.786  16.166  0.00  0.00    +0.000 HD
ENDROOT
BRANCH   1  11
ATOM     10  C   UNL     1       1.774   2.198  20.044  0.00  0.00    +0.000 C 
ATOM     11  N   UNL     1       2.984   2.971  20.366  0.00  0.00    +0.000 N 
BRANCH  11  12
ATOM     12  N   UNL     1       4.002   2.296  21.118  0.00  0.00    +0.000 NA
ATOM     13  H   UNL     1       4.897   2.783  21.012  0.00  0.00    +0.000 HD
ATOM     14  H   UNL     1       4.200   1.375  20.707  0.00  0.00    +0.000 HD
ENDBRANCH  11  12
ENDBRANCH   1  11
BRANCH   5  15
ATOM     15  C   UNL     1       4.982   6.090  16.108  0.00  0.00    +0.000 C 
ATOM     16  N   UNL     1       5.449   6.686  15.229  0.00  0.00    +0.000 NA
ENDBRANCH   5  15
BRANCH   6  17
ATOM     17  C   UNL     1       3.166   7.260  17.984  0.00  0.00    +0.000 C 
ATOM     18  N   UNL     1       2.846   8.370  17.878  0.00  0.00    +0.000 NA
ENDBRANCH   6  17
BRANCH   7  19
ATOM     19  C   UNL     1       2.149   5.679  20.120  0.00  0.00    +0.000 C 
ATOM     20  N   UNL     1       1.409   6.160  20.873  0.00  0.00    +0.000 NA
ENDBRANCH   7  19
TORSDOF 5
ENDMDL
MODEL 5
REMARK VINA RESULT:      -5.2      1.906      5.318
REMARK  Name = 
REMARK  6 active torsions:
REMARK  status: ('A' for Active; 'I' for Inactive)
REMARK    1  A    between atoms: C_1  and  N_2
REMARK    2  A    between atoms: N_2  and  N_3
REMARK    3  A    between atoms: N_2  and  C_4
REMARK    4  A    between atoms: C_8  and  C_9
REMARK    5  A    between atoms: C_11  and  C_12
REMARK    6  A    between atoms: C_14  and  C_15
REMARK                            x       y       z     vdW  Elec       q    Type
REMARK                         _______ _______ _______ _____ _____    ______ ____
ROOT
ATOM      1  C   UNL     1       2.872   4.609  18.823  0.00  0.00    +0.000 A 
ATOM      2  N   UNL     1       2.539   5.835  18.333  0.00  0.00    +0.000 NA
ATOM      3  C   UNL     1       3.486   6.646  17.815  0.00  0.00    +0.000 A 
ATOM      4  N   UNL     1       3.026   7.880  17.366  0.00  0.00    +0.000 N 
ATOM      5  C   UNL     1       4.831   6.307  17.814  0.00  0.00    +0.000 A 
ATOM      6  C   UNL     1       5.197   5.070  18.354  0.00  0.00    +0.000 A 
ATOM      7  C   UNL     1       4.213   4.206  18.858  0.00  0.00    +0.000 A 
ATOM      8  H   UNL     1       2.010   7.889  17.387  0.00  0.00    +0.000 HD
ATOM      9  H   UNL     1       3.392   8.175  16.465  0.00  0.00    +0.000 HD
ENDROOT
BRANCH   1  11
ATOM     10  C   UNL     1       1.125   4.265  20.467  0.00  0.00    +0.000 C 
ATOM     11  N   UNL     1       1.847   3.732  19.301  0.00  0.00    +0.000 N 
BRANCH  11  12
ATOM     12  N   UNL     1       1.060   3.088  18.291  0.00  0.00    +0.000 NA
ATOM     13  H   UNL     1       1.448   3.289  17.363  0.00  0.00    +0.000 HD
ATOM     14  H   UNL     1       0.127   3.513  18.238  0.00  0.00    +0.000 HD
ENDBRANCH  11  12
ENDBRANCH   1  11
BRANCH   5  15
ATOM     15  C   UNL     1       5.805   7.200  17.261  0.00  0.00    +0.000 C 
ATOM     16  N   UNL     1       6.617   7.910  16.835  0.00  0.00    +0.000 NA
ENDBRANCH   5  15
BRANCH   6  17
ATOM     17  C   UNL     1       6.577   4.690  18.397  0.00  0.00    +0.000 C 
ATOM     18  N   UNL     1       7.695   4.382  18.431  0.00  0.00    +0.000 NA
ENDBRANCH   6  17
BRANCH   7  19
ATOM     19  C   UNL     1       4.579   2.952  19.439  0.00  0.00    +0.000 C 
ATOM     20  N   UNL     1       4.857   1.937  19.929  0.00  0.00    +0.000 NA
ENDBRANCH   7  19
TORSDOF 5
ENDMDL
MODEL 6
REMARK VINA RESULT:      -5.1      1.656      5.469
REMARK  Name = 
REMARK  6 active torsions:
REMARK  status: ('A' for Active; 'I' for Inactive)
REMARK    1  A    between atoms: C_1  and  N_2
REMARK    2  A    between atoms: N_2  and  N_3
REMARK    3  A    between atoms: N_2  and  C_4
REMARK    4  A    between atoms: C_8  and  C_9
REMARK    5  A    between atoms: C_11  and  C_12
REMARK    6  A    between atoms: C_14  and  C_15
REMARK                            x       y       z     vdW  Elec       q    Type
REMARK                         _______ _______ _______ _____ _____    ______ ____
ROOT
ATOM      1  C   UNL     1       2.487   4.146  19.322  0.00  0.00    +0.000 A 
ATOM      2  N   UNL     1       2.309   5.496  19.329  0.00  0.00    +0.000 NA
ATOM      3  C   UNL     1       2.952   6.276  18.433  0.00  0.00    +0.000 A 
ATOM      4  N   UNL     1       2.706   7.640  18.553  0.00  0.00    +0.000 N 
ATOM      5  C   UNL     1       3.859   5.760  17.520  0.00  0.00    +0.000 A 
ATOM      6  C   UNL     1       4.088   4.381  17.528  0.00  0.00    +0.000 A 
ATOM      7  C   UNL     1       3.394   3.560  18.430  0.00  0.00    +0.000 A 
ATOM      8  H   UNL     1       1.958   7.790  19.226  0.00  0.00    +0.000 HD
ATOM      9  H   UNL     1       2.533   8.125  17.677  0.00  0.00    +0.000 HD
ENDROOT
BRANCH   1  11
ATOM     10  C   UNL     1       2.145   3.504  21.635  0.00  0.00    +0.000 C 
ATOM     11  N   UNL     1       1.743   3.326  20.230  0.00  0.00    +0.000 N 
BRANCH  11  12
ATOM     12  N   UNL     1       0.337   3.227  19.966  0.00  0.00    +0.000 NA
ATOM     13  H   UNL     1       0.122   3.641  19.054  0.00  0.00    +0.000 HD
ATOM     14  H   UNL     1      -0.192   3.824  20.613  0.00  0.00    +0.000 HD
ENDBRANCH  11  12
ENDBRANCH   1  11
BRANCH   5  15
ATOM     15  C   UNL     1       4.525   6.623  16.591  0.00  0.00    +0.000 C 
ATOM     16  N   UNL     1       5.092   7.300  15.838  0.00  0.00    +0.000 NA
ENDBRANCH   5  15
BRANCH   6  17
ATOM     17  C   UNL     1       5.036   3.808  16.621  0.00  0.00    +0.000 C 
ATOM     18  N   UNL     1       5.804   3.345  15.884  0.00  0.00    +0.000 NA
ENDBRANCH   6  17
BRANCH   7  19
ATOM     19  C   UNL     1       3.643   2.152  18.468  0.00  0.00    +0.000 C 
ATOM     20  N   UNL     1       3.831   1.008  18.522  0.00  0.00    +0.000 NA
ENDBRANCH   7  19
TORSDOF 5
ENDMDL
MODEL 7
REMARK VINA RESULT:      -5.1      1.476      3.294
REMARK  Name = 
REMARK  6 active torsions:
REMARK  status: ('A' for Active; 'I' for Inactive)
REMARK    1  A    between atoms: C_1  and  N_2
REMARK    2  A    between atoms: N_2  and  N_3
REMARK    3  A    between atoms: N_2  and  C_4
REMARK    4  A    between atoms: C_8  and  C_9
REMARK    5  A    between atoms: C_11  and  C_12
REMARK    6  A    between atoms: C_14  and  C_15
REMARK                            x       y       z     vdW  Elec       q    Type
REMARK                         _______ _______ _______ _____ _____    ______ ____
ROOT
ATOM      1  C   UNL     1       4.486   6.126  17.669  0.00  0.00    +0.000 A 
ATOM      2  N   UNL     1       3.689   6.755  18.576  0.00  0.00    +0.000 NA
ATOM      3  C   UNL     1       2.913   6.039  19.418  0.00  0.00    +0.000 A 
ATOM      4  N   UNL     1       2.127   6.793  20.284  0.00  0.00    +0.000 N 
ATOM      5  C   UNL     1       2.841   4.654  19.361  0.00  0.00    +0.000 A 
ATOM      6  C   UNL     1       3.620   3.994  18.406  0.00  0.00    +0.000 A 
ATOM      7  C   UNL     1       4.458   4.731  17.554  0.00  0.00    +0.000 A 
ATOM      8  H   UNL     1       2.393   7.771  20.213  0.00  0.00    +0.000 HD
ATOM      9  H   UNL     1       2.115   6.469  21.247  0.00  0.00    +0.000 HD
ENDROOT
BRANCH   1  11
ATOM     10  C   UNL     1       6.744   6.939  17.325  0.00  0.00    +0.000 C 
ATOM     11  N   UNL     1       5.357   6.896  16.834  0.00  0.00    +0.000 N 
BRANCH  11  12
ATOM     12  N   UNL     1       5.176   6.724  15.422  0.00  0.00    +0.000 NA
ATOM     13  H   UNL     1       4.989   7.629  14.980  0.00  0.00    +0.000 HD
ATOM     14  H   UNL     1       4.312   6.201  15.233  0.00  0.00    +0.000 HD
ENDBRANCH  11  12
ENDBRANCH   1  11
BRANCH   5  15
ATOM     15  C   UNL     1       1.999   3.933  20.268  0.00  0.00    +0.000 C 
ATOM     16  N   UNL     1       1.289   3.361  20.986  0.00  0.00    +0.000 NA
ENDBRANCH   5  15
BRANCH   6  17
ATOM     17  C   UNL     1       3.556   2.568  18.293  0.00  0.00    +0.000 C 
ATOM     18  N   UNL     1       3.506   1.413  18.203  0.00  0.00    +0.000 NA
ENDBRANCH   6  17
BRANCH   7  19
ATOM     19  C   UNL     1       5.236   4.068  16.553  0.00  0.00    +0.000 C 
ATOM     20  N   UNL     1       5.868   3.553  15.728  0.00  0.00    +0.000 NA
ENDBRANCH   7  19
TORSDOF 5
ENDMDL
MODEL 8
REMARK VINA RESULT:      -5.1      1.618      4.651
REMARK  Name = 
REMARK  6 active torsions:
REMARK  status: ('A' for Active; 'I' for Inactive)
REMARK    1  A    between atoms: C_1  and  N_2
REMARK    2  A    between atoms: N_2  and  N_3
REMARK    3  A    between atoms: N_2  and  C_4
REMARK    4  A    between atoms: C_8  and  C_9
REMARK    5  A    between atoms: C_11  and  C_12
REMARK    6  A    between atoms: C_14  and  C_15
REMARK                            x       y       z     vdW  Elec       q    Type
REMARK                         _______ _______ _______ _____ _____    ______ ____
ROOT
ATOM      1  C   UNL     1       3.745   3.843  18.660  0.00  0.00    +0.000 A 
ATOM      2  N   UNL     1       2.970   4.518  19.552  0.00  0.00    +0.000 NA
ATOM      3  C   UNL     1       2.676   5.821  19.354  0.00  0.00    +0.000 A 
ATOM      4  N   UNL     1       1.894   6.408  20.344  0.00  0.00    +0.000 N 
ATOM      5  C   UNL     1       3.190   6.542  18.286  0.00  0.00    +0.000 A 
ATOM      6  C   UNL     1       4.024   5.875  17.383  0.00  0.00    +0.000 A 
ATOM      7  C   UNL     1       4.302   4.511  17.562  0.00  0.00    +0.000 A 
ATOM      8  H   UNL     1       1.566   5.690  20.984  0.00  0.00    +0.000 HD
ATOM      9  H   UNL     1       1.136   6.993  20.005  0.00  0.00    +0.000 HD
ENDROOT
BRANCH   1  11
ATOM     10  C   UNL     1       4.523   2.120  20.178  0.00  0.00    +0.000 C 
ATOM     11  N   UNL     1       3.988   2.444  18.845  0.00  0.00    +0.000 N 
BRANCH  11  12
ATOM     12  N   UNL     1       2.985   1.565  18.320  0.00  0.00    +0.000 NA
ATOM     13  H   UNL     1       2.239   1.432  19.010  0.00  0.00    +0.000 HD
ATOM     14  H   UNL     1       3.360   0.615  18.212  0.00  0.00    +0.000 HD
ENDBRANCH  11  12
ENDBRANCH   1  11
BRANCH   5  15
ATOM     15  C   UNL     1       2.858   7.925  18.116  0.00  0.00    +0.000 C 
ATOM     16  N   UNL     1       2.556   9.037  17.980  0.00  0.00    +0.000 NA
ENDBRANCH   5  15
BRANCH   6  17
ATOM     17  C   UNL     1       4.599   6.586  16.281  0.00  0.00    +0.000 C 
ATOM     18  N   UNL     1       5.063   7.162  15.388  0.00  0.00    +0.000 NA
ENDBRANCH   6  17
BRANCH   7  19
ATOM     19  C   UNL     1       5.178   3.826  16.663  0.00  0.00    +0.000 C 
ATOM     20  N   UNL     1       5.895   3.294  15.921  0.00  0.00    +0.000 NA
ENDBRANCH   7  19
TORSDOF 5
ENDMDL
MODEL 9
REMARK VINA RESULT:      -5.1      1.884      2.251
REMARK  Name = 
REMARK  6 active torsions:
REMARK  status: ('A' for Active; 'I' for Inactive)
REMARK    1  A    between atoms: C_1  and  N_2
REMARK    2  A    between atoms: N_2  and  N_3
REMARK    3  A    between atoms: N_2  and  C_4
REMARK    4  A    between atoms: C_8  and  C_9
REMARK    5  A    between atoms: C_11  and  C_12
REMARK    6  A    between atoms: C_14  and  C_15
REMARK                            x       y       z     vdW  Elec       q    Type
REMARK                         _______ _______ _______ _____ _____    ______ ____
ROOT
ATOM      1  C   UNL     1       5.016   3.951  16.786  0.00  0.00    +0.000 A 
ATOM      2  N   UNL     1       4.426   2.786  17.170  0.00  0.00    +0.000 NA
ATOM      3  C   UNL     1       3.334   2.801  17.964  0.00  0.00    +0.000 A 
ATOM      4  N   UNL     1       2.834   1.548  18.306  0.00  0.00    +0.000 N 
ATOM      5  C   UNL     1       2.806   3.978  18.474  0.00  0.00    +0.000 A 
ATOM      6  C   UNL     1       3.427   5.181  18.125  0.00  0.00    +0.000 A 
ATOM      7  C   UNL     1       4.538   5.175  17.269  0.00  0.00    +0.000 A 
ATOM      8  H   UNL     1       3.316   0.834  17.766  0.00  0.00    +0.000 HD
ATOM      9  H   UNL     1       1.824   1.456  18.244  0.00  0.00    +0.000 HD
ENDROOT
BRANCH   1  11
ATOM     10  C   UNL     1       5.757   4.229  14.495  0.00  0.00    +0.000 C 
ATOM     11  N   UNL     1       6.128   3.921  15.885  0.00  0.00    +0.000 N 
BRANCH  11  12
ATOM     12  N   UNL     1       7.341   4.507  16.376  0.00  0.00    +0.000 NA
ATOM     13  H   UNL     1       7.777   5.077  15.644  0.00  0.00    +0.000 HD
ATOM     14  H   UNL     1       8.048   3.781  16.543  0.00  0.00    +0.000 HD
ENDBRANCH  11  12
ENDBRANCH   1  11
BRANCH   5  15
ATOM     15  C   UNL     1       1.650   3.949  19.319  0.00  0.00    +0.000 C 
ATOM     16  N   UNL     1       0.735   3.924  20.032  0.00  0.00    +0.000 NA
ENDBRANCH   5  15
BRANCH   6  17
ATOM     17  C   UNL     1       2.932   6.419  18.649  0.00  0.00    +0.000 C 
ATOM     18  N   UNL     1       2.529   7.420  19.074  0.00  0.00    +0.000 NA
ENDBRANCH   6  17
BRANCH   7  19
ATOM     19  C   UNL     1       5.199   6.397  16.930  0.00  0.00    +0.000 C 
ATOM     20  N   UNL     1       5.757   7.375  16.651  0.00  0.00    +0.000 NA
ENDBRANCH   7  19
TORSDOF 5
ENDMDL
