MODEL 1
REMARK VINA RESULT:      -8.5      0.000      0.000
REMARK  Name = 
REMARK  5 active torsions:
REMARK  status: ('A' for Active; 'I' for Inactive)
REMARK    1  A    between atoms: C_1  and  S_2
REMARK    2  A    between atoms: S_2  and  N_5
REMARK    3  A    between atoms: N_5  and  C_6
REMARK    4  A    between atoms: C_9  and  C_10
REMARK    5  A    between atoms: C_12  and  C_13
REMARK                            x       y       z     vdW  Elec       q    Type
REMARK                         _______ _______ _______ _____ _____    ______ ____
ROOT
ATOM      1  C   UNL     1       3.256   6.488  18.153  0.00  0.00    +0.000 A 
ATOM      2  C   UNL     1       3.176   5.176  18.663  0.00  0.00    +0.000 A 
ATOM      3  C   UNL     1       4.018   4.135  18.234  0.00  0.00    +0.000 A 
ATOM      4  C   UNL     1       4.922   4.441  17.205  0.00  0.00    +0.000 A 
ATOM      5  N   UNL     1       5.835   3.635  16.555  0.00  0.00    +0.000 N 
ATOM      6  C   UNL     1       6.510   4.353  15.606  0.00  0.00    +0.000 A 
ATOM      7  C   UNL     1       6.043   5.645  15.648  0.00  0.00    +0.000 A 
ATOM      8  C   UNL     1       5.034   5.713  16.649  0.00  0.00    +0.000 A 
ATOM      9  C   UNL     1       4.206   6.744  17.144  0.00  0.00    +0.000 A 
ATOM     10  H   UNL     1       5.956   2.651  16.772  0.00  0.00    +0.000 HD
ENDROOT
BRANCH   1  14
ATOM     11  C   UNL     1       0.706   9.630  19.658  0.00  0.00    +0.000 A 
ATOM     12  C   UNL     1       1.089   9.621  18.323  0.00  0.00    +0.000 A 
ATOM     13  C   UNL     1       1.904   8.593  17.840  0.00  0.00    +0.000 A 
ATOM     14  C   UNL     1       2.369   7.559  18.677  0.00  0.00    +0.000 A 
ATOM     15  C   UNL     1       1.956   7.593  20.023  0.00  0.00    +0.000 A 
ATOM     16  C   UNL     1       1.124   8.611  20.508  0.00  0.00    +0.000 A 
BRANCH  11  17
ATOM     17  N   UNL     1      -0.187  10.641  20.117  0.00  0.00    +0.000 N 
ATOM     18  H   UNL     1      -0.541  11.267  19.391  0.00  0.00    +0.000 HD
BRANCH  17  20
ATOM     19  C   UNL     1      -0.760  12.977  21.333  0.00  0.00    +0.000 C 
ATOM     20  S   UNL     1       0.335  11.576  21.432  0.00  0.00    +0.000 S 
ATOM     21  O   UNL     1       1.661  12.033  21.074  0.00  0.00    +0.000 OA
ATOM     22  O   UNL     1       0.096  10.871  22.671  0.00  0.00    +0.000 OA
ENDBRANCH  17  20
ENDBRANCH  11  17
ENDBRANCH   1  14
BRANCH   3  23
ATOM     23  C   UNL     1       4.006   2.764  18.815  0.00  0.00    +0.000 C 
ATOM     24  N   UNL     1       4.934   2.441  19.763  0.00  0.00    +0.000 N 
ATOM     25  O   UNL     1       3.195   1.922  18.439  0.00  0.00    +0.000 OA
ATOM     26  H   UNL     1       5.669   3.045  20.092  0.00  0.00    +0.000 HD
ATOM     27  H   UNL     1       4.928   1.486  20.098  0.00  0.00    +0.000 HD
ENDBRANCH   3  23
TORSDOF 4
ENDMDL
MODEL 2
REMARK VINA RESULT:      -8.4      1.396      1.840
REMARK  Name = 
REMARK  5 active torsions:
REMARK  status: ('A' for Active; 'I' for Inactive)
REMARK    1  A    between atoms: C_1  and  S_2
REMARK    2  A    between atoms: S_2  and  N_5
REMARK    3  A    between atoms: N_5  and  C_6
REMARK    4  A    between atoms: C_9  and  C_10
REMARK    5  A    between atoms: C_12  and  C_13
REMARK                            x       y       z     vdW  Elec       q    Type
REMARK                         _______ _______ _______ _____ _____    ______ ____
ROOT
ATOM      1  C   UNL     1       3.362   6.432  17.990  0.00  0.00    +0.000 A 
ATOM      2  C   UNL     1       3.235   5.154  18.570  0.00  0.00    +0.000 A 
ATOM      3  C   UNL     1       3.987   4.044  18.148  0.00  0.00    +0.000 A 
ATOM      4  C   UNL     1       4.845   4.244  17.056  0.00  0.00    +0.000 A 
ATOM      5  N   UNL     1       5.669   3.353  16.398  0.00  0.00    +0.000 N 
ATOM      6  C   UNL     1       6.329   3.982  15.377  0.00  0.00    +0.000 A 
ATOM      7  C   UNL     1       5.942   5.301  15.379  0.00  0.00    +0.000 A 
ATOM      8  C   UNL     1       4.999   5.478  16.431  0.00  0.00    +0.000 A 
ATOM      9  C   UNL     1       4.264   6.581  16.918  0.00  0.00    +0.000 A 
ATOM     10  H   UNL     1       5.744   2.375  16.657  0.00  0.00    +0.000 HD
ENDROOT
BRANCH   1  14
ATOM     11  C   UNL     1       1.035   9.738  19.505  0.00  0.00    +0.000 A 
ATOM     12  C   UNL     1       1.277   8.630  20.306  0.00  0.00    +0.000 A 
ATOM     13  C   UNL     1       2.042   7.569  19.813  0.00  0.00    +0.000 A 
ATOM     14  C   UNL     1       2.572   7.580  18.508  0.00  0.00    +0.000 A 
ATOM     15  C   UNL     1       2.317   8.723  17.725  0.00  0.00    +0.000 A 
ATOM     16  C   UNL     1       1.565   9.796  18.220  0.00  0.00    +0.000 A 
BRANCH  11  17
ATOM     17  N   UNL     1       0.319  10.844  20.048  0.00  0.00    +0.000 N 
ATOM     18  H   UNL     1       0.045  10.743  21.027  0.00  0.00    +0.000 HD
BRANCH  17  20
ATOM     19  C   UNL     1      -2.011  12.142  20.439  0.00  0.00    +0.000 C 
ATOM     20  S   UNL     1      -1.021  11.390  19.164  0.00  0.00    +0.000 S 
ATOM     21  O   UNL     1      -1.706  10.191  18.729  0.00  0.00    +0.000 OA
ATOM     22  O   UNL     1      -0.615  12.403  18.217  0.00  0.00    +0.000 OA
ENDBRANCH  17  20
ENDBRANCH  11  17
ENDBRANCH   1  14
BRANCH   3  23
ATOM     23  C   UNL     1       3.928   2.705  18.797  0.00  0.00    +0.000 C 
ATOM     24  N   UNL     1       4.907   2.358  19.685  0.00  0.00    +0.000 N 
ATOM     25  O   UNL     1       3.033   1.908  18.530  0.00  0.00    +0.000 OA
ATOM     26  H   UNL     1       5.706   2.922  19.923  0.00  0.00    +0.000 HD
ATOM     27  H   UNL     1       4.862   1.422  20.068  0.00  0.00    +0.000 HD
ENDBRANCH   3  23
TORSDOF 4
ENDMDL
MODEL 3
REMARK VINA RESULT:      -8.3      0.131      1.011
REMARK  Name = 
REMARK  5 active torsions:
REMARK  status: ('A' for Active; 'I' for Inactive)
REMARK    1  A    between atoms: C_1  and  S_2
REMARK    2  A    between atoms: S_2  and  N_5
REMARK    3  A    between atoms: N_5  and  C_6
REMARK    4  A    between atoms: C_9  and  C_10
REMARK    5  A    between atoms: C_12  and  C_13
REMARK                            x       y       z     vdW  Elec       q    Type
REMARK                         _______ _______ _______ _____ _____    ______ ____
ROOT
ATOM      1  C   UNL     1       3.271   6.583  18.181  0.00  0.00    +0.000 A 
ATOM      2  C   UNL     1       3.178   5.265  18.672  0.00  0.00    +0.000 A 
ATOM      3  C   UNL     1       4.045   4.234  18.270  0.00  0.00    +0.000 A 
ATOM      4  C   UNL     1       4.992   4.558  17.287  0.00  0.00    +0.000 A 
ATOM      5  N   UNL     1       5.940   3.766  16.670  0.00  0.00    +0.000 N 
ATOM      6  C   UNL     1       6.652   4.499  15.760  0.00  0.00    +0.000 A 
ATOM      7  C   UNL     1       6.174   5.788  15.795  0.00  0.00    +0.000 A 
ATOM      8  C   UNL     1       5.120   5.837  16.751  0.00  0.00    +0.000 A 
ATOM      9  C   UNL     1       4.264   6.856  17.219  0.00  0.00    +0.000 A 
ATOM     10  H   UNL     1       6.058   2.780  16.880  0.00  0.00    +0.000 HD
ENDROOT
BRANCH   1  14
ATOM     11  C   UNL     1       0.579   9.628  19.635  0.00  0.00    +0.000 A 
ATOM     12  C   UNL     1       1.035   8.634  20.490  0.00  0.00    +0.000 A 
ATOM     13  C   UNL     1       1.916   7.659  20.016  0.00  0.00    +0.000 A 
ATOM     14  C   UNL     1       2.354   7.642  18.676  0.00  0.00    +0.000 A 
ATOM     15  C   UNL     1       1.880   8.670  17.837  0.00  0.00    +0.000 A 
ATOM     16  C   UNL     1       1.010   9.660  18.312  0.00  0.00    +0.000 A 
BRANCH  11  17
ATOM     17  N   UNL     1      -0.258  10.659  20.153  0.00  0.00    +0.000 N 
ATOM     18  H   UNL     1      -0.621  11.313  19.455  0.00  0.00    +0.000 HD
BRANCH  17  20
ATOM     19  C   UNL     1      -0.733  12.959  21.474  0.00  0.00    +0.000 C 
ATOM     20  S   UNL     1       0.349  11.546  21.464  0.00  0.00    +0.000 S 
ATOM     21  O   UNL     1       1.658  12.000  21.045  0.00  0.00    +0.000 OA
ATOM     22  O   UNL     1       0.173  10.803  22.691  0.00  0.00    +0.000 OA
ENDBRANCH  17  20
ENDBRANCH  11  17
ENDBRANCH   1  14
BRANCH   3  23
ATOM     23  C   UNL     1       4.017   2.857  18.834  0.00  0.00    +0.000 C 
ATOM     24  N   UNL     1       4.950   2.506  19.768  0.00  0.00    +0.000 N 
ATOM     25  O   UNL     1       3.188   2.033  18.457  0.00  0.00    +0.000 OA
ATOM     26  H   UNL     1       5.698   3.095  20.096  0.00  0.00    +0.000 HD
ATOM     27  H   UNL     1       4.932   1.548  20.092  0.00  0.00    +0.000 HD
ENDBRANCH   3  23
TORSDOF 4
ENDMDL
MODEL 4
REMARK VINA RESULT:      -8.3      1.451      1.597
REMARK  Name = 
REMARK  5 active torsions:
REMARK  status: ('A' for Active; 'I' for Inactive)
REMARK    1  A    between atoms: C_1  and  S_2
REMARK    2  A    between atoms: S_2  and  N_5
REMARK    3  A    between atoms: N_5  and  C_6
REMARK    4  A    between atoms: C_9  and  C_10
REMARK    5  A    between atoms: C_12  and  C_13
REMARK                            x       y       z     vdW  Elec       q    Type
REMARK                         _______ _______ _______ _____ _____    ______ ____
ROOT
ATOM      1  C   UNL     1       3.303   6.496  18.036  0.00  0.00    +0.000 A 
ATOM      2  C   UNL     1       3.182   5.215  18.613  0.00  0.00    +0.000 A 
ATOM      3  C   UNL     1       3.936   4.108  18.185  0.00  0.00    +0.000 A 
ATOM      4  C   UNL     1       4.790   4.315  17.092  0.00  0.00    +0.000 A 
ATOM      5  N   UNL     1       5.616   3.428  16.428  0.00  0.00    +0.000 N 
ATOM      6  C   UNL     1       6.270   4.062  15.407  0.00  0.00    +0.000 A 
ATOM      7  C   UNL     1       5.878   5.380  15.414  0.00  0.00    +0.000 A 
ATOM      8  C   UNL     1       4.938   5.551  16.469  0.00  0.00    +0.000 A 
ATOM      9  C   UNL     1       4.201   6.650  16.961  0.00  0.00    +0.000 A 
ATOM     10  H   UNL     1       5.694   2.449  16.685  0.00  0.00    +0.000 HD
ENDROOT
BRANCH   1  14
ATOM     11  C   UNL     1       1.034   9.844  19.544  0.00  0.00    +0.000 A 
ATOM     12  C   UNL     1       1.549   9.875  18.254  0.00  0.00    +0.000 A 
ATOM     13  C   UNL     1       2.272   8.781  17.769  0.00  0.00    +0.000 A 
ATOM     14  C   UNL     1       2.511   7.639  18.559  0.00  0.00    +0.000 A 
ATOM     15  C   UNL     1       1.967   7.637  19.858  0.00  0.00    +0.000 A 
ATOM     16  C   UNL     1       1.227   8.723  20.344  0.00  0.00    +0.000 A 
BRANCH  11  17
ATOM     17  N   UNL     1       0.235  10.934  19.997  0.00  0.00    +0.000 N 
ATOM     18  H   UNL     1      -0.069  10.871  20.971  0.00  0.00    +0.000 HD
BRANCH  17  20
ATOM     19  C   UNL     1      -2.178  12.112  20.232  0.00  0.00    +0.000 C 
ATOM     20  S   UNL     1      -1.099  11.350  19.037  0.00  0.00    +0.000 S 
ATOM     21  O   UNL     1      -1.698  10.090  18.648  0.00  0.00    +0.000 OA
ATOM     22  O   UNL     1      -0.715  12.331  18.048  0.00  0.00    +0.000 OA
ENDBRANCH  17  20
ENDBRANCH  11  17
ENDBRANCH   1  14
BRANCH   3  23
ATOM     23  C   UNL     1       3.884   2.768  18.832  0.00  0.00    +0.000 C 
ATOM     24  N   UNL     1       4.880   2.412  19.696  0.00  0.00    +0.000 N 
ATOM     25  O   UNL     1       2.979   1.977  18.582  0.00  0.00    +0.000 OA
ATOM     26  H   UNL     1       5.688   2.971  19.919  0.00  0.00    +0.000 HD
ATOM     27  H   UNL     1       4.839   1.476  20.077  0.00  0.00    +0.000 HD
ENDBRANCH   3  23
TORSDOF 4
ENDMDL
MODEL 5
REMARK VINA RESULT:      -8.1      1.967      3.167
REMARK  Name = 
REMARK  5 active torsions:
REMARK  status: ('A' for Active; 'I' for Inactive)
REMARK    1  A    between atoms: C_1  and  S_2
REMARK    2  A    between atoms: S_2  and  N_5
REMARK    3  A    between atoms: N_5  and  C_6
REMARK    4  A    between atoms: C_9  and  C_10
REMARK    5  A    between atoms: C_12  and  C_13
REMARK                            x       y       z     vdW  Elec       q    Type
REMARK                         _______ _______ _______ _____ _____    ______ ____
ROOT
ATOM      1  C   UNL     1       2.872   6.402  18.330  0.00  0.00    +0.000 A 
ATOM      2  C   UNL     1       4.118   6.361  17.671  0.00  0.00    +0.000 A 
ATOM      3  C   UNL     1       4.739   5.161  17.283  0.00  0.00    +0.000 A 
ATOM      4  C   UNL     1       4.088   3.971  17.642  0.00  0.00    +0.000 A 
ATOM      5  N   UNL     1       4.462   2.658  17.441  0.00  0.00    +0.000 N 
ATOM      6  C   UNL     1       3.523   1.811  17.964  0.00  0.00    +0.000 A 
ATOM      7  C   UNL     1       2.518   2.582  18.500  0.00  0.00    +0.000 A 
ATOM      8  C   UNL     1       2.866   3.948  18.309  0.00  0.00    +0.000 A 
ATOM      9  C   UNL     1       2.250   5.175  18.636  0.00  0.00    +0.000 A 
ATOM     10  H   UNL     1       5.324   2.394  16.973  0.00  0.00    +0.000 HD
ENDROOT
BRANCH   1  14
ATOM     11  C   UNL     1       1.007  10.159  19.353  0.00  0.00    +0.000 A 
ATOM     12  C   UNL     1       1.108   9.149  20.301  0.00  0.00    +0.000 A 
ATOM     13  C   UNL     1       1.724   7.940  19.966  0.00  0.00    +0.000 A 
ATOM     14  C   UNL     1       2.242   7.703  18.677  0.00  0.00    +0.000 A 
ATOM     15  C   UNL     1       2.131   8.751  17.742  0.00  0.00    +0.000 A 
ATOM     16  C   UNL     1       1.530   9.971  18.078  0.00  0.00    +0.000 A 
BRANCH  11  17
ATOM     17  N   UNL     1       0.444  11.412  19.732  0.00  0.00    +0.000 N 
ATOM     18  H   UNL     1       0.400  11.579  20.740  0.00  0.00    +0.000 HD
BRANCH  17  20
ATOM     19  C   UNL     1      -1.887  12.571  20.428  0.00  0.00    +0.000 C 
ATOM     20  S   UNL     1      -1.056  11.810  19.050  0.00  0.00    +0.000 S 
ATOM     21  O   UNL     1      -1.707  10.543  18.791  0.00  0.00    +0.000 OA
ATOM     22  O   UNL     1      -0.882  12.788  18.000  0.00  0.00    +0.000 OA
ENDBRANCH  17  20
ENDBRANCH  11  17
ENDBRANCH   1  14
BRANCH   3  23
ATOM     23  C   UNL     1       6.014   5.097  16.516  0.00  0.00    +0.000 C 
ATOM     24  N   UNL     1       6.112   5.784  15.340  0.00  0.00    +0.000 N 
ATOM     25  O   UNL     1       6.960   4.421  16.912  0.00  0.00    +0.000 OA
ATOM     26  H   UNL     1       5.373   6.318  14.912  0.00  0.00    +0.000 HD
ATOM     27  H   UNL     1       6.974   5.676  14.821  0.00  0.00    +0.000 HD
ENDBRANCH   3  23
TORSDOF 4
ENDMDL
MODEL 6
REMARK VINA RESULT:      -8.1      1.969      3.048
REMARK  Name = 
REMARK  5 active torsions:
REMARK  status: ('A' for Active; 'I' for Inactive)
REMARK    1  A    between atoms: C_1  and  S_2
REMARK    2  A    between atoms: S_2  and  N_5
REMARK    3  A    between atoms: N_5  and  C_6
REMARK    4  A    between atoms: C_9  and  C_10
REMARK    5  A    between atoms: C_12  and  C_13
REMARK                            x       y       z     vdW  Elec       q    Type
REMARK                         _______ _______ _______ _____ _____    ______ ____
ROOT
ATOM      1  C   UNL     1       2.774   6.359  18.388  0.00  0.00    +0.000 A 
ATOM      2  C   UNL     1       3.915   6.311  17.561  0.00  0.00    +0.000 A 
ATOM      3  C   UNL     1       4.512   5.106  17.151  0.00  0.00    +0.000 A 
ATOM      4  C   UNL     1       3.956   3.923  17.661  0.00  0.00    +0.000 A 
ATOM      5  N   UNL     1       4.338   2.610  17.476  0.00  0.00    +0.000 N 
ATOM      6  C   UNL     1       3.509   1.772  18.171  0.00  0.00    +0.000 A 
ATOM      7  C   UNL     1       2.566   2.547  18.804  0.00  0.00    +0.000 A 
ATOM      8  C   UNL     1       2.841   3.909  18.495  0.00  0.00    +0.000 A 
ATOM      9  C   UNL     1       2.239   5.137  18.842  0.00  0.00    +0.000 A 
ATOM     10  H   UNL     1       5.133   2.340  16.904  0.00  0.00    +0.000 HD
ENDROOT
BRANCH   1  14
ATOM     11  C   UNL     1       1.024  10.164  19.435  0.00  0.00    +0.000 A 
ATOM     12  C   UNL     1       1.494   9.943  18.147  0.00  0.00    +0.000 A 
ATOM     13  C   UNL     1       2.048   8.705  17.812  0.00  0.00    +0.000 A 
ATOM     14  C   UNL     1       2.159   7.662  18.754  0.00  0.00    +0.000 A 
ATOM     15  C   UNL     1       1.665   7.916  20.048  0.00  0.00    +0.000 A 
ATOM     16  C   UNL     1       1.093   9.150  20.385  0.00  0.00    +0.000 A 
BRANCH  11  17
ATOM     17  N   UNL     1       0.393  11.406  19.740  0.00  0.00    +0.000 N 
ATOM     18  H   UNL     1       0.324  11.622  20.737  0.00  0.00    +0.000 HD
BRANCH  17  20
ATOM     19  C   UNL     1      -2.010  12.463  20.348  0.00  0.00    +0.000 C 
ATOM     20  S   UNL     1      -1.114  11.690  19.018  0.00  0.00    +0.000 S 
ATOM     21  O   UNL     1      -1.690  10.380  18.805  0.00  0.00    +0.000 OA
ATOM     22  O   UNL     1      -0.974  12.631  17.929  0.00  0.00    +0.000 OA
ENDBRANCH  17  20
ENDBRANCH  11  17
ENDBRANCH   1  14
BRANCH   3  23
ATOM     23  C   UNL     1       5.667   5.029  16.215  0.00  0.00    +0.000 C 
ATOM     24  N   UNL     1       5.767   5.950  15.212  0.00  0.00    +0.000 N 
ATOM     25  O   UNL     1       6.510   4.142  16.317  0.00  0.00    +0.000 OA
ATOM     26  H   UNL     1       5.097   6.677  15.017  0.00  0.00    +0.000 HD
ATOM     27  H   UNL     1       6.536   5.837  14.564  0.00  0.00    +0.000 HD
ENDBRANCH   3  23
TORSDOF 4
ENDMDL
MODEL 7
REMARK VINA RESULT:      -8.1      1.986      2.829
REMARK  Name = 
REMARK  5 active torsions:
REMARK  status: ('A' for Active; 'I' for Inactive)
REMARK    1  A    between atoms: C_1  and  S_2
REMARK    2  A    between atoms: S_2  and  N_5
REMARK    3  A    between atoms: N_5  and  C_6
REMARK    4  A    between atoms: C_9  and  C_10
REMARK    5  A    between atoms: C_12  and  C_13
REMARK                            x       y       z     vdW  Elec       q    Type
REMARK                         _______ _______ _______ _____ _____    ______ ____
ROOT
ATOM      1  C   UNL     1       2.854   6.272  18.801  0.00  0.00    +0.000 A 
ATOM      2  C   UNL     1       4.250   6.162  18.965  0.00  0.00    +0.000 A 
ATOM      3  C   UNL     1       4.943   4.947  18.826  0.00  0.00    +0.000 A 
ATOM      4  C   UNL     1       4.168   3.805  18.577  0.00  0.00    +0.000 A 
ATOM      5  N   UNL     1       4.548   2.486  18.433  0.00  0.00    +0.000 N 
ATOM      6  C   UNL     1       3.454   1.698  18.204  0.00  0.00    +0.000 A 
ATOM      7  C   UNL     1       2.348   2.515  18.183  0.00  0.00    +0.000 A 
ATOM      8  C   UNL     1       2.784   3.848  18.424  0.00  0.00    +0.000 A 
ATOM      9  C   UNL     1       2.131   5.095  18.519  0.00  0.00    +0.000 A 
ATOM     10  H   UNL     1       5.513   2.178  18.502  0.00  0.00    +0.000 HD
ENDROOT
BRANCH   1  14
ATOM     11  C   UNL     1       0.861  10.085  19.155  0.00  0.00    +0.000 A 
ATOM     12  C   UNL     1       0.999   9.264  20.266  0.00  0.00    +0.000 A 
ATOM     13  C   UNL     1       1.657   8.037  20.147  0.00  0.00    +0.000 A 
ATOM     14  C   UNL     1       2.180   7.591  18.917  0.00  0.00    +0.000 A 
ATOM     15  C   UNL     1       2.031   8.451  17.811  0.00  0.00    +0.000 A 
ATOM     16  C   UNL     1       1.388   9.690  17.929  0.00  0.00    +0.000 A 
BRANCH  11  17
ATOM     17  N   UNL     1       0.256  11.366  19.309  0.00  0.00    +0.000 N 
ATOM     18  H   UNL     1      -0.273  11.695  18.499  0.00  0.00    +0.000 HD
BRANCH  17  20
ATOM     19  C   UNL     1       0.258  14.054  19.509  0.00  0.00    +0.000 C 
ATOM     20  S   UNL     1       1.260  12.622  19.847  0.00  0.00    +0.000 S 
ATOM     21  O   UNL     1       2.376  12.641  18.924  0.00  0.00    +0.000 OA
ATOM     22  O   UNL     1       1.472  12.515  21.272  0.00  0.00    +0.000 OA
ENDBRANCH  17  20
ENDBRANCH  11  17
ENDBRANCH   1  14
BRANCH   3  23
ATOM     23  C   UNL     1       6.425   4.822  18.915  0.00  0.00    +0.000 C 
ATOM     24  N   UNL     1       7.106   4.283  17.861  0.00  0.00    +0.000 N 
ATOM     25  O   UNL     1       7.033   5.172  19.922  0.00  0.00    +0.000 OA
ATOM     26  H   UNL     1       6.688   3.919  17.019  0.00  0.00    +0.000 HD
ATOM     27  H   UNL     1       8.104   4.166  17.976  0.00  0.00    +0.000 HD
ENDBRANCH   3  23
TORSDOF 4
ENDMDL
MODEL 8
REMARK VINA RESULT:      -8.0      1.006      1.502
REMARK  Name = 
REMARK  5 active torsions:
REMARK  status: ('A' for Active; 'I' for Inactive)
REMARK    1  A    between atoms: C_1  and  S_2
REMARK    2  A    between atoms: S_2  and  N_5
REMARK    3  A    between atoms: N_5  and  C_6
REMARK    4  A    between atoms: C_9  and  C_10
REMARK    5  A    between atoms: C_12  and  C_13
REMARK                            x       y       z     vdW  Elec       q    Type
REMARK                         _______ _______ _______ _____ _____    ______ ____
ROOT
ATOM      1  C   UNL     1       3.123   6.527  18.121  0.00  0.00    +0.000 A 
ATOM      2  C   UNL     1       2.814   5.184  18.421  0.00  0.00    +0.000 A 
ATOM      3  C   UNL     1       3.597   4.102  17.980  0.00  0.00    +0.000 A 
ATOM      4  C   UNL     1       4.689   4.411  17.156  0.00  0.00    +0.000 A 
ATOM      5  N   UNL     1       5.605   3.578  16.545  0.00  0.00    +0.000 N 
ATOM      6  C   UNL     1       6.506   4.312  15.823  0.00  0.00    +0.000 A 
ATOM      7  C   UNL     1       6.183   5.640  15.976  0.00  0.00    +0.000 A 
ATOM      8  C   UNL     1       5.033   5.716  16.811  0.00  0.00    +0.000 A 
ATOM      9  C   UNL     1       4.252   6.778  17.316  0.00  0.00    +0.000 A 
ATOM     10  H   UNL     1       5.579   2.567  16.635  0.00  0.00    +0.000 HD
ENDROOT
BRANCH   1  14
ATOM     11  C   UNL     1       0.657   9.710  19.677  0.00  0.00    +0.000 A 
ATOM     12  C   UNL     1       1.117   8.708  20.521  0.00  0.00    +0.000 A 
ATOM     13  C   UNL     1       1.926   7.688  20.013  0.00  0.00    +0.000 A 
ATOM     14  C   UNL     1       2.283   7.633  18.651  0.00  0.00    +0.000 A 
ATOM     15  C   UNL     1       1.807   8.669  17.824  0.00  0.00    +0.000 A 
ATOM     16  C   UNL     1       1.011   9.704  18.332  0.00  0.00    +0.000 A 
BRANCH  11  17
ATOM     17  N   UNL     1      -0.103  10.784  20.226  0.00  0.00    +0.000 N 
ATOM     18  H   UNL     1      -0.999  10.958  19.766  0.00  0.00    +0.000 HD
BRANCH  17  20
ATOM     19  C   UNL     1      -0.403  13.133  21.513  0.00  0.00    +0.000 C 
ATOM     20  S   UNL     1       0.703  12.263  20.422  0.00  0.00    +0.000 S 
ATOM     21  O   UNL     1       0.639  12.908  19.128  0.00  0.00    +0.000 OA
ATOM     22  O   UNL     1       1.967  12.056  21.092  0.00  0.00    +0.000 OA
ENDBRANCH  17  20
ENDBRANCH  11  17
ENDBRANCH   1  14
BRANCH   3  23
ATOM     23  C   UNL     1       3.336   2.684  18.351  0.00  0.00    +0.000 C 
ATOM     24  N   UNL     1       2.239   2.057  17.832  0.00  0.00    +0.000 N 
ATOM     25  O   UNL     1       4.073   2.084  19.128  0.00  0.00    +0.000 OA
ATOM     26  H   UNL     1       1.550   2.484  17.234  0.00  0.00    +0.000 HD
ATOM     27  H   UNL     1       2.065   1.111  18.146  0.00  0.00    +0.000 HD
ENDBRANCH   3  23
TORSDOF 4
ENDMDL
MODEL 9
REMARK VINA RESULT:      -8.0      2.002      2.867
REMARK  Name = 
REMARK  5 active torsions:
REMARK  status: ('A' for Active; 'I' for Inactive)
REMARK    1  A    between atoms: C_1  and  S_2
REMARK    2  A    between atoms: S_2  and  N_5
REMARK    3  A    between atoms: N_5  and  C_6
REMARK    4  A    between atoms: C_9  and  C_10
REMARK    5  A    between atoms: C_12  and  C_13
REMARK                            x       y       z     vdW  Elec       q    Type
REMARK                         _______ _______ _______ _____ _____    ______ ____
ROOT
ATOM      1  C   UNL     1       2.904   6.091  18.547  0.00  0.00    +0.000 A 
ATOM      2  C   UNL     1       4.235   5.969  18.097  0.00  0.00    +0.000 A 
ATOM      3  C   UNL     1       4.827   4.732  17.786  0.00  0.00    +0.000 A 
ATOM      4  C   UNL     1       4.045   3.588  18.005  0.00  0.00    +0.000 A 
ATOM      5  N   UNL     1       4.355   2.254  17.835  0.00  0.00    +0.000 N 
ATOM      6  C   UNL     1       3.287   1.471  18.178  0.00  0.00    +0.000 A 
ATOM      7  C   UNL     1       2.264   2.305  18.563  0.00  0.00    +0.000 A 
ATOM      8  C   UNL     1       2.732   3.645  18.465  0.00  0.00    +0.000 A 
ATOM      9  C   UNL     1       2.157   4.909  18.717  0.00  0.00    +0.000 A 
ATOM     10  H   UNL     1       5.261   1.935  17.506  0.00  0.00    +0.000 HD
ENDROOT
BRANCH   1  14
ATOM     11  C   UNL     1       1.237   9.997  19.324  0.00  0.00    +0.000 A 
ATOM     12  C   UNL     1       1.755   9.696  18.071  0.00  0.00    +0.000 A 
ATOM     13  C   UNL     1       2.282   8.426  17.823  0.00  0.00    +0.000 A 
ATOM     14  C   UNL     1       2.318   7.429  18.819  0.00  0.00    +0.000 A 
ATOM     15  C   UNL     1       1.776   7.764  20.076  0.00  0.00    +0.000 A 
ATOM     16  C   UNL     1       1.231   9.030  20.325  0.00  0.00    +0.000 A 
BRANCH  11  17
ATOM     17  N   UNL     1       0.635  11.271  19.538  0.00  0.00    +0.000 N 
ATOM     18  H   UNL     1       0.882  11.723  20.421  0.00  0.00    +0.000 HD
BRANCH  17  20
ATOM     19  C   UNL     1      -1.196  12.711  18.183  0.00  0.00    +0.000 C 
ATOM     20  S   UNL     1      -1.046  11.362  19.334  0.00  0.00    +0.000 S 
ATOM     21  O   UNL     1      -1.562  11.814  20.609  0.00  0.00    +0.000 OA
ATOM     22  O   UNL     1      -1.539  10.152  18.716  0.00  0.00    +0.000 OA
ENDBRANCH  17  20
ENDBRANCH  11  17
ENDBRANCH   1  14
BRANCH   3  23
ATOM     23  C   UNL     1       6.202   4.586  17.234  0.00  0.00    +0.000 C 
ATOM     24  N   UNL     1       7.234   4.333  18.092  0.00  0.00    +0.000 N 
ATOM     25  O   UNL     1       6.421   4.712  16.032  0.00  0.00    +0.000 OA
ATOM     26  H   UNL     1       7.159   4.269  19.094  0.00  0.00    +0.000 HD
ATOM     27  H   UNL     1       8.161   4.290  17.688  0.00  0.00    +0.000 HD
ENDBRANCH   3  23
TORSDOF 4
ENDMDL
