MODEL 1
REMARK VINA RESULT:      -7.6      0.000      0.000
REMARK  Name = 
REMARK  11 active torsions:
REMARK  status: ('A' for Active; 'I' for Inactive)
REMARK    1  A    between atoms: C_1  and  C_2
REMARK    2  A    between atoms: N_4  and  C_5
REMARK    3  A    between atoms: C_11  and  O_12
REMARK    4  A    between atoms: O_12  and  C_13
REMARK    5  A    between atoms: C_20  and  C_21
REMARK    6  A    between atoms: C_21  and  N_22
REMARK    7  A    between atoms: N_22  and  C_30
REMARK    8  A    between atoms: N_25  and  C_26
REMARK    9  A    between atoms: C_26  and  C_27
REMARK   10  A    between atoms: C_26  and  C_28
REMARK   11  A    between atoms: C_26  and  C_29
REMARK                            x       y       z     vdW  Elec       q    Type
REMARK                         _______ _______ _______ _____ _____    ______ ____
ROOT
ATOM      1  C   UNL     1       1.633   9.142  21.932  0.00  0.00    +0.000 C 
ATOM      2  C   UNL     1       1.514   8.241  20.756  0.00  0.00    +0.000 A 
ATOM      3  N   UNL     1       1.427   6.924  20.971  0.00  0.00    +0.000 NA
ATOM      4  N   UNL     1       1.576   6.365  19.744  0.00  0.00    +0.000 N 
ATOM      5  C   UNL     1       2.072   7.330  18.851  0.00  0.00    +0.000 A 
ATOM      6  C   UNL     1       1.662   8.563  19.375  0.00  0.00    +0.000 A 
ENDROOT
BRANCH   4   7
ATOM      7  C   UNL     1       1.433   4.951  19.569  0.00  0.00    +0.000 A 
ATOM      8  C   UNL     1       1.364   4.118  20.694  0.00  0.00    +0.000 A 
ATOM      9  C   UNL     1       1.451   2.730  20.545  0.00  0.00    +0.000 A 
ATOM     10  C   UNL     1       1.594   2.168  19.278  0.00  0.00    +0.000 A 
ATOM     11  C   UNL     1       1.582   2.985  18.152  0.00  0.00    +0.000 A 
ATOM     12  C   UNL     1       1.463   4.371  18.294  0.00  0.00    +0.000 A 
ENDBRANCH   4   7
BRANCH   5  13
ATOM     13  O   UNL     1       2.853   7.051  17.788  0.00  0.00    +0.000 OA
BRANCH  13  14
ATOM     14  C   UNL     1       4.134   6.525  17.953  0.00  0.00    +0.000 A 
ATOM     15  C   UNL     1       4.999   6.624  16.856  0.00  0.00    +0.000 A 
ATOM     16  C   UNL     1       6.246   5.983  16.873  0.00  0.00    +0.000 A 
ATOM     17  C   UNL     1       6.639   5.263  17.997  0.00  0.00    +0.000 A 
ATOM     18 CL   UNL     1       8.156   4.449  18.003  0.00  0.00    +0.000 Cl
ATOM     19  C   UNL     1       5.806   5.193  19.112  0.00  0.00    +0.000 A 
ATOM     20  C   UNL     1       4.566   5.841  19.099  0.00  0.00    +0.000 A 
ENDBRANCH  13  14
ENDBRANCH   5  13
BRANCH   6  21
ATOM     21  C   UNL     1       1.733   9.947  18.775  0.00  0.00    +0.000 C 
BRANCH  21  22
ATOM     22  N   UNL     1       0.447  10.692  18.868  0.00  0.00    +0.000 N 
ATOM     23  C   UNL     1      -0.665  10.244  18.140  0.00  0.00    +0.000 C 
ATOM     24  O   UNL     1      -0.616   9.327  17.324  0.00  0.00    +0.000 OA
ATOM     25  N   UNL     1      -1.846  10.926  18.371  0.00  0.00    +0.000 N 
ATOM     26  H   UNL     1      -1.935  11.297  19.299  0.00  0.00    +0.000 HD
BRANCH  25  27
ATOM     27  C   UNL     1      -3.113  10.773  17.614  0.00  0.00    +0.000 C 
ATOM     28  C   UNL     1      -4.211  11.727  18.110  0.00  0.00    +0.000 C 
ATOM     29  C   UNL     1      -2.826  11.107  16.135  0.00  0.00    +0.000 C 
ATOM     30  C   UNL     1      -3.627   9.325  17.672  0.00  0.00    +0.000 C 
ENDBRANCH  25  27
BRANCH  22  31
ATOM     31  C   UNL     1       0.341  11.598  20.001  0.00  0.00    +0.000 C 
ATOM     32  C   UNL     1       1.528  12.425  20.430  0.00  0.00    +0.000 C 
ATOM     33  C   UNL     1       0.307  13.104  19.899  0.00  0.00    +0.000 C 
ENDBRANCH  22  31
ENDBRANCH  21  22
ENDBRANCH   6  21
TORSDOF 7
ENDMDL
MODEL 2
REMARK VINA RESULT:      -7.3      3.179      6.579
REMARK  Name = 
REMARK  11 active torsions:
REMARK  status: ('A' for Active; 'I' for Inactive)
REMARK    1  A    between atoms: C_1  and  C_2
REMARK    2  A    between atoms: N_4  and  C_5
REMARK    3  A    between atoms: C_11  and  O_12
REMARK    4  A    between atoms: O_12  and  C_13
REMARK    5  A    between atoms: C_20  and  C_21
REMARK    6  A    between atoms: C_21  and  N_22
REMARK    7  A    between atoms: N_22  and  C_30
REMARK    8  A    between atoms: N_25  and  C_26
REMARK    9  A    between atoms: C_26  and  C_27
REMARK   10  A    between atoms: C_26  and  C_28
REMARK   11  A    between atoms: C_26  and  C_29
REMARK                            x       y       z     vdW  Elec       q    Type
REMARK                         _______ _______ _______ _____ _____    ______ ____
ROOT
ATOM      1  C   UNL     1      -0.995  11.940  22.581  0.00  0.00    +0.000 C 
ATOM      2  C   UNL     1      -0.845  11.863  21.104  0.00  0.00    +0.000 A 
ATOM      3  N   UNL     1      -1.898  11.475  20.377  0.00  0.00    +0.000 NA
ATOM      4  N   UNL     1      -1.399  11.269  19.133  0.00  0.00    +0.000 N 
ATOM      5  C   UNL     1       0.003  11.223  19.195  0.00  0.00    +0.000 A 
ATOM      6  C   UNL     1       0.347  11.972  20.328  0.00  0.00    +0.000 A 
ENDROOT
BRANCH   4   7
ATOM      7  C   UNL     1      -2.274  10.940  18.048  0.00  0.00    +0.000 A 
ATOM      8  C   UNL     1      -1.887   9.967  17.116  0.00  0.00    +0.000 A 
ATOM      9  C   UNL     1      -2.616   9.796  15.935  0.00  0.00    +0.000 A 
ATOM     10  C   UNL     1      -3.740  10.582  15.685  0.00  0.00    +0.000 A 
ATOM     11  C   UNL     1      -4.176  11.493  16.643  0.00  0.00    +0.000 A 
ATOM     12  C   UNL     1      -3.467  11.645  17.838  0.00  0.00    +0.000 A 
ENDBRANCH   4   7
BRANCH   5  13
ATOM     13  O   UNL     1       0.778  10.505  18.358  0.00  0.00    +0.000 OA
BRANCH  13  14
ATOM     14  C   UNL     1       1.410   9.337  18.784  0.00  0.00    +0.000 A 
ATOM     15  C   UNL     1       2.135   8.627  17.818  0.00  0.00    +0.000 A 
ATOM     16  C   UNL     1       2.668   7.365  18.113  0.00  0.00    +0.000 A 
ATOM     17  C   UNL     1       2.496   6.820  19.382  0.00  0.00    +0.000 A 
ATOM     18 CL   UNL     1       3.121   5.255  19.733  0.00  0.00    +0.000 Cl
ATOM     19  C   UNL     1       1.814   7.534  20.366  0.00  0.00    +0.000 A 
ATOM     20  C   UNL     1       1.292   8.800  20.074  0.00  0.00    +0.000 A 
ENDBRANCH  13  14
ENDBRANCH   5  13
BRANCH   6  21
ATOM     21  C   UNL     1       1.700  12.437  20.814  0.00  0.00    +0.000 C 
BRANCH  21  22
ATOM     22  N   UNL     1       1.975  13.867  20.502  0.00  0.00    +0.000 N 
ATOM     23  C   UNL     1       1.638  14.856  21.438  0.00  0.00    +0.000 C 
ATOM     24  O   UNL     1       1.014  14.626  22.471  0.00  0.00    +0.000 OA
ATOM     25  N   UNL     1       2.030  16.142  21.116  0.00  0.00    +0.000 N 
ATOM     26  H   UNL     1       2.869  16.195  20.569  0.00  0.00    +0.000 HD
BRANCH  25  27
ATOM     27  C   UNL     1       1.652  17.383  21.837  0.00  0.00    +0.000 C 
ATOM     28  C   UNL     1       0.131  17.523  22.005  0.00  0.00    +0.000 C 
ATOM     29  C   UNL     1       2.282  17.324  23.245  0.00  0.00    +0.000 C 
ATOM     30  C   UNL     1       2.208  18.631  21.131  0.00  0.00    +0.000 C 
ENDBRANCH  25  27
BRANCH  22  31
ATOM     31  C   UNL     1       2.918  14.089  19.416  0.00  0.00    +0.000 C 
ATOM     32  C   UNL     1       2.852  13.250  18.164  0.00  0.00    +0.000 C 
ATOM     33  C   UNL     1       2.569  14.715  18.088  0.00  0.00    +0.000 C 
ENDBRANCH  22  31
ENDBRANCH  21  22
ENDBRANCH   6  21
TORSDOF 7
ENDMDL
MODEL 3
REMARK VINA RESULT:      -7.2      5.231      9.494
REMARK  Name = 
REMARK  11 active torsions:
REMARK  status: ('A' for Active; 'I' for Inactive)
REMARK    1  A    between atoms: C_1  and  C_2
REMARK    2  A    between atoms: N_4  and  C_5
REMARK    3  A    between atoms: C_11  and  O_12
REMARK    4  A    between atoms: O_12  and  C_13
REMARK    5  A    between atoms: C_20  and  C_21
REMARK    6  A    between atoms: C_21  and  N_22
REMARK    7  A    between atoms: N_22  and  C_30
REMARK    8  A    between atoms: N_25  and  C_26
REMARK    9  A    between atoms: C_26  and  C_27
REMARK   10  A    between atoms: C_26  and  C_28
REMARK   11  A    between atoms: C_26  and  C_29
REMARK                            x       y       z     vdW  Elec       q    Type
REMARK                         _______ _______ _______ _____ _____    ______ ____
ROOT
ATOM      1  C   UNL     1       2.881  14.501  21.339  0.00  0.00    +0.000 C 
ATOM      2  C   UNL     1       1.428  14.320  21.594  0.00  0.00    +0.000 A 
ATOM      3  N   UNL     1       0.813  15.183  22.409  0.00  0.00    +0.000 NA
ATOM      4  N   UNL     1      -0.405  14.632  22.636  0.00  0.00    +0.000 N 
ATOM      5  C   UNL     1      -0.395  13.291  22.218  0.00  0.00    +0.000 A 
ATOM      6  C   UNL     1       0.596  13.220  21.230  0.00  0.00    +0.000 A 
ENDROOT
BRANCH   4   7
ATOM      7  C   UNL     1      -1.391  15.342  23.394  0.00  0.00    +0.000 A 
ATOM      8  C   UNL     1      -1.342  15.313  24.794  0.00  0.00    +0.000 A 
ATOM      9  C   UNL     1      -2.414  15.806  25.545  0.00  0.00    +0.000 A 
ATOM     10  C   UNL     1      -3.532  16.339  24.905  0.00  0.00    +0.000 A 
ATOM     11  C   UNL     1      -3.552  16.444  23.518  0.00  0.00    +0.000 A 
ATOM     12  C   UNL     1      -2.468  15.982  22.765  0.00  0.00    +0.000 A 
ENDBRANCH   4   7
BRANCH   5  13
ATOM     13  O   UNL     1      -1.145  12.317  22.770  0.00  0.00    +0.000 OA
BRANCH  13  14
ATOM     14  C   UNL     1      -2.536  12.416  22.814  0.00  0.00    +0.000 A 
ATOM     15  C   UNL     1      -3.188  12.634  21.594  0.00  0.00    +0.000 A 
ATOM     16  C   UNL     1      -4.563  12.905  21.561  0.00  0.00    +0.000 A 
ATOM     17  C   UNL     1      -5.292  12.937  22.746  0.00  0.00    +0.000 A 
ATOM     18 CL   UNL     1      -6.973  13.304  22.707  0.00  0.00    +0.000 Cl
ATOM     19  C   UNL     1      -4.663  12.679  23.963  0.00  0.00    +0.000 A 
ATOM     20  C   UNL     1      -3.292  12.397  23.995  0.00  0.00    +0.000 A 
ENDBRANCH  13  14
ENDBRANCH   5  13
BRANCH   6  21
ATOM     21  C   UNL     1       0.950  12.096  20.285  0.00  0.00    +0.000 C 
BRANCH  21  22
ATOM     22  N   UNL     1      -0.204  11.209  19.972  0.00  0.00    +0.000 N 
ATOM     23  C   UNL     1      -1.023  11.503  18.872  0.00  0.00    +0.000 C 
ATOM     24  O   UNL     1      -0.918  12.528  18.204  0.00  0.00    +0.000 OA
ATOM     25  N   UNL     1      -2.001  10.567  18.587  0.00  0.00    +0.000 N 
ATOM     26  H   UNL     1      -1.755   9.625  18.827  0.00  0.00    +0.000 HD
BRANCH  25  27
ATOM     27  C   UNL     1      -3.098  10.715  17.600  0.00  0.00    +0.000 C 
ATOM     28  C   UNL     1      -2.576  10.991  16.181  0.00  0.00    +0.000 C 
ATOM     29  C   UNL     1      -3.888   9.390  17.566  0.00  0.00    +0.000 C 
ATOM     30  C   UNL     1      -4.076  11.828  18.012  0.00  0.00    +0.000 C 
ENDBRANCH  25  27
BRANCH  22  31
ATOM     31  C   UNL     1      -0.161   9.898  20.602  0.00  0.00    +0.000 C 
ATOM     32  C   UNL     1       1.070   9.034  20.484  0.00  0.00    +0.000 C 
ATOM     33  C   UNL     1       0.658   9.556  21.822  0.00  0.00    +0.000 C 
ENDBRANCH  22  31
ENDBRANCH  21  22
ENDBRANCH   6  21
TORSDOF 7
ENDMDL
MODEL 4
REMARK VINA RESULT:      -7.2      1.759      2.768
REMARK  Name = 
REMARK  11 active torsions:
REMARK  status: ('A' for Active; 'I' for Inactive)
REMARK    1  A    between atoms: C_1  and  C_2
REMARK    2  A    between atoms: N_4  and  C_5
REMARK    3  A    between atoms: C_11  and  O_12
REMARK    4  A    between atoms: O_12  and  C_13
REMARK    5  A    between atoms: C_20  and  C_21
REMARK    6  A    between atoms: C_21  and  N_22
REMARK    7  A    between atoms: N_22  and  C_30
REMARK    8  A    between atoms: N_25  and  C_26
REMARK    9  A    between atoms: C_26  and  C_27
REMARK   10  A    between atoms: C_26  and  C_28
REMARK   11  A    between atoms: C_26  and  C_29
REMARK                            x       y       z     vdW  Elec       q    Type
REMARK                         _______ _______ _______ _____ _____    ______ ____
ROOT
ATOM      1  C   UNL     1       1.404   8.826  21.833  0.00  0.00    +0.000 C 
ATOM      2  C   UNL     1       1.533   8.099  20.543  0.00  0.00    +0.000 A 
ATOM      3  N   UNL     1       1.851   6.802  20.573  0.00  0.00    +0.000 NA
ATOM      4  N   UNL     1       2.130   6.486  19.284  0.00  0.00    +0.000 N 
ATOM      5  C   UNL     1       2.291   7.667  18.541  0.00  0.00    +0.000 A 
ATOM      6  C   UNL     1       1.543   8.637  19.221  0.00  0.00    +0.000 A 
ENDROOT
BRANCH   4   7
ATOM      7  C   UNL     1       2.414   5.132  18.915  0.00  0.00    +0.000 A 
ATOM      8  C   UNL     1       3.364   4.400  19.641  0.00  0.00    +0.000 A 
ATOM      9  C   UNL     1       3.815   3.166  19.162  0.00  0.00    +0.000 A 
ATOM     10  C   UNL     1       3.313   2.651  17.967  0.00  0.00    +0.000 A 
ATOM     11  C   UNL     1       2.312   3.335  17.284  0.00  0.00    +0.000 A 
ATOM     12  C   UNL     1       1.835   4.554  17.776  0.00  0.00    +0.000 A 
ENDBRANCH   4   7
BRANCH   5  13
ATOM     13  O   UNL     1       3.093   7.783  17.463  0.00  0.00    +0.000 OA
BRANCH  13  14
ATOM     14  C   UNL     1       4.299   7.088  17.384  0.00  0.00    +0.000 A 
ATOM     15  C   UNL     1       4.515   6.335  16.223  0.00  0.00    +0.000 A 
ATOM     16  C   UNL     1       5.621   5.479  16.124  0.00  0.00    +0.000 A 
ATOM     17  C   UNL     1       6.526   5.393  17.178  0.00  0.00    +0.000 A 
ATOM     18 CL   UNL     1       7.866   4.317  17.070  0.00  0.00    +0.000 Cl
ATOM     19  C   UNL     1       6.347   6.170  18.322  0.00  0.00    +0.000 A 
ATOM     20  C   UNL     1       5.248   7.032  18.416  0.00  0.00    +0.000 A 
ENDBRANCH  13  14
ENDBRANCH   5  13
BRANCH   6  21
ATOM     21  C   UNL     1       1.180  10.046  18.818  0.00  0.00    +0.000 C 
BRANCH  21  22
ATOM     22  N   UNL     1      -0.134  10.489  19.358  0.00  0.00    +0.000 N 
ATOM     23  C   UNL     1      -0.187  11.581  20.239  0.00  0.00    +0.000 C 
ATOM     24  O   UNL     1       0.811  12.133  20.692  0.00  0.00    +0.000 OA
ATOM     25  N   UNL     1      -1.456  11.995  20.603  0.00  0.00    +0.000 N 
ATOM     26  H   UNL     1      -2.157  11.847  19.901  0.00  0.00    +0.000 HD
BRANCH  25  27
ATOM     27  C   UNL     1      -1.788  12.999  21.643  0.00  0.00    +0.000 C 
ATOM     28  C   UNL     1      -1.096  12.704  22.983  0.00  0.00    +0.000 C 
ATOM     29  C   UNL     1      -1.298  14.376  21.148  0.00  0.00    +0.000 C 
ATOM     30  C   UNL     1      -3.307  13.097  21.860  0.00  0.00    +0.000 C 
ENDBRANCH  25  27
BRANCH  22  31
ATOM     31  C   UNL     1      -1.296   9.999  18.632  0.00  0.00    +0.000 C 
ATOM     32  C   UNL     1      -2.069  10.918  17.719  0.00  0.00    +0.000 C 
ATOM     33  C   UNL     1      -1.337   9.749  17.144  0.00  0.00    +0.000 C 
ENDBRANCH  22  31
ENDBRANCH  21  22
ENDBRANCH   6  21
TORSDOF 7
ENDMDL
MODEL 5
REMARK VINA RESULT:      -7.1      5.694      7.698
REMARK  Name = 
REMARK  11 active torsions:
REMARK  status: ('A' for Active; 'I' for Inactive)
REMARK    1  A    between atoms: C_1  and  C_2
REMARK    2  A    between atoms: N_4  and  C_5
REMARK    3  A    between atoms: C_11  and  O_12
REMARK    4  A    between atoms: O_12  and  C_13
REMARK    5  A    between atoms: C_20  and  C_21
REMARK    6  A    between atoms: C_21  and  N_22
REMARK    7  A    between atoms: N_22  and  C_30
REMARK    8  A    between atoms: N_25  and  C_26
REMARK    9  A    between atoms: C_26  and  C_27
REMARK   10  A    between atoms: C_26  and  C_28
REMARK   11  A    between atoms: C_26  and  C_29
REMARK                            x       y       z     vdW  Elec       q    Type
REMARK                         _______ _______ _______ _____ _____    ______ ____
ROOT
ATOM      1  C   UNL     1       0.026   9.876  22.647  0.00  0.00    +0.000 C 
ATOM      2  C   UNL     1      -0.793  10.658  21.685  0.00  0.00    +0.000 A 
ATOM      3  N   UNL     1      -1.008  10.147  20.469  0.00  0.00    +0.000 NA
ATOM      4  N   UNL     1      -1.557  11.165  19.760  0.00  0.00    +0.000 N 
ATOM      5  C   UNL     1      -1.373  12.370  20.457  0.00  0.00    +0.000 A 
ATOM      6  C   UNL     1      -1.256  12.003  21.805  0.00  0.00    +0.000 A 
ENDROOT
BRANCH   4   7
ATOM      7  C   UNL     1      -2.021  10.948  18.422  0.00  0.00    +0.000 A 
ATOM      8  C   UNL     1      -3.212  11.552  17.996  0.00  0.00    +0.000 A 
ATOM      9  C   UNL     1      -3.794  11.176  16.781  0.00  0.00    +0.000 A 
ATOM     10  C   UNL     1      -3.187  10.208  15.983  0.00  0.00    +0.000 A 
ATOM     11  C   UNL     1      -1.963   9.664  16.362  0.00  0.00    +0.000 A 
ATOM     12  C   UNL     1      -1.362  10.061  17.560  0.00  0.00    +0.000 A 
ENDBRANCH   4   7
BRANCH   5  13
ATOM     13  O   UNL     1      -1.249  13.577  19.870  0.00  0.00    +0.000 OA
BRANCH  13  14
ATOM     14  C   UNL     1      -0.009  14.041  19.432  0.00  0.00    +0.000 A 
ATOM     15  C   UNL     1       0.155  15.431  19.370  0.00  0.00    +0.000 A 
ATOM     16  C   UNL     1       1.306  15.987  18.793  0.00  0.00    +0.000 A 
ATOM     17  C   UNL     1       2.304  15.154  18.297  0.00  0.00    +0.000 A 
ATOM     18 CL   UNL     1       3.700  15.837  17.557  0.00  0.00    +0.000 Cl
ATOM     19  C   UNL     1       2.173  13.769  18.392  0.00  0.00    +0.000 A 
ATOM     20  C   UNL     1       1.029  13.214  18.978  0.00  0.00    +0.000 A 
ENDBRANCH  13  14
ENDBRANCH   5  13
BRANCH   6  21
ATOM     21  C   UNL     1      -1.224  12.860  23.048  0.00  0.00    +0.000 C 
BRANCH  21  22
ATOM     22  N   UNL     1      -2.338  13.846  23.107  0.00  0.00    +0.000 N 
ATOM     23  C   UNL     1      -3.662  13.389  23.186  0.00  0.00    +0.000 C 
ATOM     24  O   UNL     1      -3.977  12.206  23.090  0.00  0.00    +0.000 OA
ATOM     25  N   UNL     1      -4.624  14.369  23.350  0.00  0.00    +0.000 N 
ATOM     26  H   UNL     1      -4.311  15.175  23.859  0.00  0.00    +0.000 HD
BRANCH  25  27
ATOM     27  C   UNL     1      -6.094  14.178  23.288  0.00  0.00    +0.000 C 
ATOM     28  C   UNL     1      -6.569  13.002  24.156  0.00  0.00    +0.000 C 
ATOM     29  C   UNL     1      -6.763  15.463  23.820  0.00  0.00    +0.000 C 
ATOM     30  C   UNL     1      -6.570  13.972  21.840  0.00  0.00    +0.000 C 
ENDBRANCH  25  27
BRANCH  22  31
ATOM     31  C   UNL     1      -1.943  15.199  23.466  0.00  0.00    +0.000 C 
ATOM     32  C   UNL     1      -0.557  15.701  23.142  0.00  0.00    +0.000 C 
ATOM     33  C   UNL     1      -1.743  16.326  22.482  0.00  0.00    +0.000 C 
ENDBRANCH  22  31
ENDBRANCH  21  22
ENDBRANCH   6  21
TORSDOF 7
ENDMDL
MODEL 6
REMARK VINA RESULT:      -7.1      3.535      5.931
REMARK  Name = 
REMARK  11 active torsions:
REMARK  status: ('A' for Active; 'I' for Inactive)
REMARK    1  A    between atoms: C_1  and  C_2
REMARK    2  A    between atoms: N_4  and  C_5
REMARK    3  A    between atoms: C_11  and  O_12
REMARK    4  A    between atoms: O_12  and  C_13
REMARK    5  A    between atoms: C_20  and  C_21
REMARK    6  A    between atoms: C_21  and  N_22
REMARK    7  A    between atoms: N_22  and  C_30
REMARK    8  A    between atoms: N_25  and  C_26
REMARK    9  A    between atoms: C_26  and  C_27
REMARK   10  A    between atoms: C_26  and  C_28
REMARK   11  A    between atoms: C_26  and  C_29
REMARK                            x       y       z     vdW  Elec       q    Type
REMARK                         _______ _______ _______ _____ _____    ______ ____
ROOT
ATOM      1  C   UNL     1      -1.220  11.086  22.838  0.00  0.00    +0.000 C 
ATOM      2  C   UNL     1      -0.673  10.707  21.510  0.00  0.00    +0.000 A 
ATOM      3  N   UNL     1       0.142   9.650  21.436  0.00  0.00    +0.000 NA
ATOM      4  N   UNL     1       0.659   9.701  20.183  0.00  0.00    +0.000 N 
ATOM      5  C   UNL     1       0.402  10.965  19.625  0.00  0.00    +0.000 A 
ATOM      6  C   UNL     1      -0.743  11.432  20.283  0.00  0.00    +0.000 A 
ENDROOT
BRANCH   4   7
ATOM      7  C   UNL     1       1.507   8.651  19.706  0.00  0.00    +0.000 A 
ATOM      8  C   UNL     1       1.987   8.692  18.389  0.00  0.00    +0.000 A 
ATOM      9  C   UNL     1       2.623   7.575  17.839  0.00  0.00    +0.000 A 
ATOM     10  C   UNL     1       2.795   6.419  18.600  0.00  0.00    +0.000 A 
ATOM     11  C   UNL     1       2.393   6.401  19.932  0.00  0.00    +0.000 A 
ATOM     12  C   UNL     1       1.785   7.527  20.496  0.00  0.00    +0.000 A 
ENDBRANCH   4   7
BRANCH   5  13
ATOM     13  O   UNL     1       1.195  11.571  18.719  0.00  0.00    +0.000 OA
BRANCH  13  14
ATOM     14  C   UNL     1       1.951  12.692  19.060  0.00  0.00    +0.000 A 
ATOM     15  C   UNL     1       2.509  13.418  18.000  0.00  0.00    +0.000 A 
ATOM     16  C   UNL     1       3.412  14.462  18.250  0.00  0.00    +0.000 A 
ATOM     17  C   UNL     1       3.741  14.795  19.560  0.00  0.00    +0.000 A 
ATOM     18 CL   UNL     1       4.876  16.053  19.865  0.00  0.00    +0.000 Cl
ATOM     19  C   UNL     1       3.159  14.109  20.625  0.00  0.00    +0.000 A 
ATOM     20  C   UNL     1       2.250  13.074  20.376  0.00  0.00    +0.000 A 
ENDBRANCH  13  14
ENDBRANCH   5  13
BRANCH   6  21
ATOM     21  C   UNL     1      -1.605  12.639  19.998  0.00  0.00    +0.000 C 
BRANCH  21  22
ATOM     22  N   UNL     1      -3.039  12.299  19.789  0.00  0.00    +0.000 N 
ATOM     23  C   UNL     1      -3.996  12.735  20.719  0.00  0.00    +0.000 C 
ATOM     24  O   UNL     1      -3.708  13.292  21.775  0.00  0.00    +0.000 OA
ATOM     25  N   UNL     1      -5.313  12.472  20.390  0.00  0.00    +0.000 N 
ATOM     26  H   UNL     1      -5.499  12.461  19.405  0.00  0.00    +0.000 HD
BRANCH  25  27
ATOM     27  C   UNL     1      -6.494  12.667  21.267  0.00  0.00    +0.000 C 
ATOM     28  C   UNL     1      -6.115  12.724  22.756  0.00  0.00    +0.000 C 
ATOM     29  C   UNL     1      -7.147  14.013  20.891  0.00  0.00    +0.000 C 
ATOM     30  C   UNL     1      -7.542  11.564  21.046  0.00  0.00    +0.000 C 
ENDBRANCH  25  27
BRANCH  22  31
ATOM     31  C   UNL     1      -3.380  11.871  18.441  0.00  0.00    +0.000 C 
ATOM     32  C   UNL     1      -2.296  11.488  17.465  0.00  0.00    +0.000 C 
ATOM     33  C   UNL     1      -3.268  10.454  17.934  0.00  0.00    +0.000 C 
ENDBRANCH  22  31
ENDBRANCH  21  22
ENDBRANCH   6  21
TORSDOF 7
ENDMDL
MODEL 7
REMARK VINA RESULT:      -7.1      1.247      2.729
REMARK  Name = 
REMARK  11 active torsions:
REMARK  status: ('A' for Active; 'I' for Inactive)
REMARK    1  A    between atoms: C_1  and  C_2
REMARK    2  A    between atoms: N_4  and  C_5
REMARK    3  A    between atoms: C_11  and  O_12
REMARK    4  A    between atoms: O_12  and  C_13
REMARK    5  A    between atoms: C_20  and  C_21
REMARK    6  A    between atoms: C_21  and  N_22
REMARK    7  A    between atoms: N_22  and  C_30
REMARK    8  A    between atoms: N_25  and  C_26
REMARK    9  A    between atoms: C_26  and  C_27
REMARK   10  A    between atoms: C_26  and  C_28
REMARK   11  A    between atoms: C_26  and  C_29
REMARK                            x       y       z     vdW  Elec       q    Type
REMARK                         _______ _______ _______ _____ _____    ______ ____
ROOT
ATOM      1  C   UNL     1       1.664   9.261  21.762  0.00  0.00    +0.000 C 
ATOM      2  C   UNL     1       1.532   8.257  20.674  0.00  0.00    +0.000 A 
ATOM      3  N   UNL     1       1.509   6.962  21.003  0.00  0.00    +0.000 NA
ATOM      4  N   UNL     1       1.628   6.305  19.822  0.00  0.00    +0.000 N 
ATOM      5  C   UNL     1       2.044   7.206  18.828  0.00  0.00    +0.000 A 
ATOM      6  C   UNL     1       1.607   8.464  19.264  0.00  0.00    +0.000 A 
ENDROOT
BRANCH   4   7
ATOM      7  C   UNL     1       1.535   4.877  19.775  0.00  0.00    +0.000 A 
ATOM      8  C   UNL     1       1.762   4.129  20.938  0.00  0.00    +0.000 A 
ATOM      9  C   UNL     1       1.899   2.739  20.864  0.00  0.00    +0.000 A 
ATOM     10  C   UNL     1       1.796   2.089  19.635  0.00  0.00    +0.000 A 
ATOM     11  C   UNL     1       1.490   2.817  18.489  0.00  0.00    +0.000 A 
ATOM     12  C   UNL     1       1.322   4.203  18.564  0.00  0.00    +0.000 A 
ENDBRANCH   4   7
BRANCH   5  13
ATOM     13  O   UNL     1       2.789   6.866  17.758  0.00  0.00    +0.000 OA
BRANCH  13  14
ATOM     14  C   UNL     1       4.090   6.387  17.908  0.00  0.00    +0.000 A 
ATOM     15  C   UNL     1       4.910   6.431  16.773  0.00  0.00    +0.000 A 
ATOM     16  C   UNL     1       6.176   5.827  16.785  0.00  0.00    +0.000 A 
ATOM     17  C   UNL     1       6.632   5.198  17.940  0.00  0.00    +0.000 A 
ATOM     18 CL   UNL     1       8.171   4.427  17.943  0.00  0.00    +0.000 Cl
ATOM     19  C   UNL     1       5.844   5.184  19.089  0.00  0.00    +0.000 A 
ATOM     20  C   UNL     1       4.585   5.797  19.080  0.00  0.00    +0.000 A 
ENDBRANCH  13  14
ENDBRANCH   5  13
BRANCH   6  21
ATOM     21  C   UNL     1       1.595   9.793  18.546  0.00  0.00    +0.000 C 
BRANCH  21  22
ATOM     22  N   UNL     1       0.532  10.713  19.036  0.00  0.00    +0.000 N 
ATOM     23  C   UNL     1       0.863  12.033  19.378  0.00  0.00    +0.000 C 
ATOM     24  O   UNL     1       2.017  12.454  19.412  0.00  0.00    +0.000 OA
ATOM     25  N   UNL     1      -0.201  12.849  19.715  0.00  0.00    +0.000 N 
ATOM     26  H   UNL     1      -1.059  12.623  19.248  0.00  0.00    +0.000 HD
BRANCH  25  27
ATOM     27  C   UNL     1      -0.114  14.219  20.278  0.00  0.00    +0.000 C 
ATOM     28  C   UNL     1      -1.497  14.805  20.608  0.00  0.00    +0.000 C 
ATOM     29  C   UNL     1       0.695  14.143  21.590  0.00  0.00    +0.000 C 
ATOM     30  C   UNL     1       0.632  15.168  19.327  0.00  0.00    +0.000 C 
ENDBRANCH  25  27
BRANCH  22  31
ATOM     31  C   UNL     1      -0.830  10.284  18.755  0.00  0.00    +0.000 C 
ATOM     32  C   UNL     1      -1.741  11.141  17.911  0.00  0.00    +0.000 C 
ATOM     33  C   UNL     1      -1.319   9.796  17.414  0.00  0.00    +0.000 C 
ENDBRANCH  22  31
ENDBRANCH  21  22
ENDBRANCH   6  21
TORSDOF 7
ENDMDL
MODEL 8
REMARK VINA RESULT:      -7.1      4.253      7.159
REMARK  Name = 
REMARK  11 active torsions:
REMARK  status: ('A' for Active; 'I' for Inactive)
REMARK    1  A    between atoms: C_1  and  C_2
REMARK    2  A    between atoms: N_4  and  C_5
REMARK    3  A    between atoms: C_11  and  O_12
REMARK    4  A    between atoms: O_12  and  C_13
REMARK    5  A    between atoms: C_20  and  C_21
REMARK    6  A    between atoms: C_21  and  N_22
REMARK    7  A    between atoms: N_22  and  C_30
REMARK    8  A    between atoms: N_25  and  C_26
REMARK    9  A    between atoms: C_26  and  C_27
REMARK   10  A    between atoms: C_26  and  C_28
REMARK   11  A    between atoms: C_26  and  C_29
REMARK                            x       y       z     vdW  Elec       q    Type
REMARK                         _______ _______ _______ _____ _____    ______ ____
ROOT
ATOM      1  C   UNL     1       0.572  14.929  19.478  0.00  0.00    +0.000 C 
ATOM      2  C   UNL     1       0.023  13.607  19.877  0.00  0.00    +0.000 A 
ATOM      3  N   UNL     1       0.798  12.528  19.736  0.00  0.00    +0.000 NA
ATOM      4  N   UNL     1      -0.035  11.477  19.941  0.00  0.00    +0.000 N 
ATOM      5  C   UNL     1      -1.367  11.921  19.884  0.00  0.00    +0.000 A 
ATOM      6  C   UNL     1      -1.318  13.277  20.235  0.00  0.00    +0.000 A 
ENDROOT
BRANCH   4   7
ATOM      7  C   UNL     1       0.478  10.140  19.971  0.00  0.00    +0.000 A 
ATOM      8  C   UNL     1       0.348   9.374  21.138  0.00  0.00    +0.000 A 
ATOM      9  C   UNL     1       1.034   8.163  21.263  0.00  0.00    +0.000 A 
ATOM     10  C   UNL     1       1.842   7.704  20.224  0.00  0.00    +0.000 A 
ATOM     11  C   UNL     1       1.911   8.420  19.032  0.00  0.00    +0.000 A 
ATOM     12  C   UNL     1       1.201   9.616  18.891  0.00  0.00    +0.000 A 
ENDBRANCH   4   7
BRANCH   5  13
ATOM     13  O   UNL     1      -2.404  11.164  19.476  0.00  0.00    +0.000 OA
BRANCH  13  14
ATOM     14  C   UNL     1      -2.652  10.953  18.120  0.00  0.00    +0.000 A 
ATOM     15  C   UNL     1      -3.801  11.555  17.591  0.00  0.00    +0.000 A 
ATOM     16  C   UNL     1      -4.216  11.270  16.282  0.00  0.00    +0.000 A 
ATOM     17  C   UNL     1      -3.470  10.399  15.494  0.00  0.00    +0.000 A 
ATOM     18 CL   UNL     1      -4.000  10.022  13.900  0.00  0.00    +0.000 Cl
ATOM     19  C   UNL     1      -2.302   9.826  15.993  0.00  0.00    +0.000 A 
ATOM     20  C   UNL     1      -1.881  10.120  17.296  0.00  0.00    +0.000 A 
ENDBRANCH  13  14
ENDBRANCH   5  13
BRANCH   6  21
ATOM     21  C   UNL     1      -2.438  14.247  20.527  0.00  0.00    +0.000 C 
BRANCH  21  22
ATOM     22  N   UNL     1      -3.404  13.739  21.540  0.00  0.00    +0.000 N 
ATOM     23  C   UNL     1      -4.696  13.369  21.137  0.00  0.00    +0.000 C 
ATOM     24  O   UNL     1      -5.129  13.548  20.002  0.00  0.00    +0.000 OA
ATOM     25  N   UNL     1      -5.489  12.803  22.119  0.00  0.00    +0.000 N 
ATOM     26  H   UNL     1      -4.983  12.286  22.814  0.00  0.00    +0.000 HD
BRANCH  25  27
ATOM     27  C   UNL     1      -6.935  12.487  22.008  0.00  0.00    +0.000 C 
ATOM     28  C   UNL     1      -7.761  13.689  21.523  0.00  0.00    +0.000 C 
ATOM     29  C   UNL     1      -7.095  11.352  20.975  0.00  0.00    +0.000 C 
ATOM     30  C   UNL     1      -7.500  11.981  23.345  0.00  0.00    +0.000 C 
ENDBRANCH  25  27
BRANCH  22  31
ATOM     31  C   UNL     1      -2.809  13.307  22.795  0.00  0.00    +0.000 C 
ATOM     32  C   UNL     1      -3.589  12.437  23.750  0.00  0.00    +0.000 C 
ATOM     33  C   UNL     1      -2.359  11.898  23.094  0.00  0.00    +0.000 C 
ENDBRANCH  22  31
ENDBRANCH  21  22
ENDBRANCH   6  21
TORSDOF 7
ENDMDL
MODEL 9
REMARK VINA RESULT:      -7.1      5.531      7.573
REMARK  Name = 
REMARK  11 active torsions:
REMARK  status: ('A' for Active; 'I' for Inactive)
REMARK    1  A    between atoms: C_1  and  C_2
REMARK    2  A    between atoms: N_4  and  C_5
REMARK    3  A    between atoms: C_11  and  O_12
REMARK    4  A    between atoms: O_12  and  C_13
REMARK    5  A    between atoms: C_20  and  C_21
REMARK    6  A    between atoms: C_21  and  N_22
REMARK    7  A    between atoms: N_22  and  C_30
REMARK    8  A    between atoms: N_25  and  C_26
REMARK    9  A    between atoms: C_26  and  C_27
REMARK   10  A    between atoms: C_26  and  C_28
REMARK   11  A    between atoms: C_26  and  C_29
REMARK                            x       y       z     vdW  Elec       q    Type
REMARK                         _______ _______ _______ _____ _____    ______ ____
ROOT
ATOM      1  C   UNL     1       0.315   9.825  22.096  0.00  0.00    +0.000 C 
ATOM      2  C   UNL     1      -0.643  10.578  21.244  0.00  0.00    +0.000 A 
ATOM      3  N   UNL     1      -1.031  10.031  20.088  0.00  0.00    +0.000 NA
ATOM      4  N   UNL     1      -1.686  11.026  19.440  0.00  0.00    +0.000 N 
ATOM      5  C   UNL     1      -1.407  12.252  20.067  0.00  0.00    +0.000 A 
ATOM      6  C   UNL     1      -1.090  11.924  21.392  0.00  0.00    +0.000 A 
ENDROOT
BRANCH   4   7
ATOM      7  C   UNL     1      -2.341  10.770  18.192  0.00  0.00    +0.000 A 
ATOM      8  C   UNL     1      -1.729   9.937  17.246  0.00  0.00    +0.000 A 
ATOM      9  C   UNL     1      -2.240   9.856  15.947  0.00  0.00    +0.000 A 
ATOM     10  C   UNL     1      -3.367  10.594  15.589  0.00  0.00    +0.000 A 
ATOM     11  C   UNL     1      -4.026  11.360  16.546  0.00  0.00    +0.000 A 
ATOM     12  C   UNL     1      -3.537  11.418  17.855  0.00  0.00    +0.000 A 
ENDBRANCH   4   7
BRANCH   5  13
ATOM     13  O   UNL     1      -1.379  13.441  19.433  0.00  0.00    +0.000 OA
BRANCH  13  14
ATOM     14  C   UNL     1      -0.178  13.992  18.989  0.00  0.00    +0.000 A 
ATOM     15  C   UNL     1       0.787  13.094  18.515  0.00  0.00    +0.000 A 
ATOM     16  C   UNL     1       2.079  13.539  18.198  0.00  0.00    +0.000 A 
ATOM     17  C   UNL     1       2.400  14.886  18.335  0.00  0.00    +0.000 A 
ATOM     18 CL   UNL     1       3.996  15.425  17.980  0.00  0.00    +0.000 Cl
ATOM     19  C   UNL     1       1.437  15.797  18.765  0.00  0.00    +0.000 A 
ATOM     20  C   UNL     1       0.144  15.355  19.070  0.00  0.00    +0.000 A 
ENDBRANCH  13  14
ENDBRANCH   5  13
BRANCH   6  21
ATOM     21  C   UNL     1      -0.880  12.817  22.592  0.00  0.00    +0.000 C 
BRANCH  21  22
ATOM     22  N   UNL     1      -1.981  13.800  22.791  0.00  0.00    +0.000 N 
ATOM     23  C   UNL     1      -3.293  13.339  22.978  0.00  0.00    +0.000 C 
ATOM     24  O   UNL     1      -3.618  12.159  22.872  0.00  0.00    +0.000 OA
ATOM     25  N   UNL     1      -4.233  14.312  23.266  0.00  0.00    +0.000 N 
ATOM     26  H   UNL     1      -3.871  15.100  23.771  0.00  0.00    +0.000 HD
BRANCH  25  27
ATOM     27  C   UNL     1      -5.702  14.121  23.336  0.00  0.00    +0.000 C 
ATOM     28  C   UNL     1      -6.430  15.369  23.861  0.00  0.00    +0.000 C 
ATOM     29  C   UNL     1      -6.213  13.838  21.908  0.00  0.00    +0.000 C 
ATOM     30  C   UNL     1      -6.068  12.909  24.209  0.00  0.00    +0.000 C 
ENDBRANCH  25  27
BRANCH  22  31
ATOM     31  C   UNL     1      -1.550  15.140  23.156  0.00  0.00    +0.000 C 
ATOM     32  C   UNL     1      -0.189  15.644  22.745  0.00  0.00    +0.000 C 
ATOM     33  C   UNL     1      -1.415  16.293  22.192  0.00  0.00    +0.000 C 
ENDBRANCH  22  31
ENDBRANCH  21  22
ENDBRANCH   6  21
TORSDOF 7
ENDMDL
