MODEL 1
REMARK VINA RESULT:      -8.2      0.000      0.000
REMARK  Name = 
REMARK  9 active torsions:
REMARK  status: ('A' for Active; 'I' for Inactive)
REMARK    1  A    between atoms: C_1  and  O_2
REMARK    2  A    between atoms: O_2  and  C_3
REMARK    3  A    between atoms: C_6  and  C_7
REMARK    4  A    between atoms: C_7  and  C_20
REMARK    5  A    between atoms: C_8  and  C_9
REMARK    6  A    between atoms: N_12  and  C_13
REMARK    7  A    between atoms: N_22  and  N_23
REMARK    8  A    between atoms: C_24  and  C_25
REMARK    9  A    between atoms: C_28  and  O_29
REMARK                            x       y       z     vdW  Elec       q    Type
REMARK                         _______ _______ _______ _____ _____    ______ ____
ROOT
ATOM      1  C   UNL     1       3.008   7.216  18.265  0.00  0.00    +0.000 C 
ATOM      2  C   UNL     1       4.065   7.653  17.541  0.00  0.00    +0.000 C 
ENDROOT
BRANCH   1   6
ATOM      3  C   UNL     1       2.519   2.960  18.911  0.00  0.00    +0.000 A 
ATOM      4  C   UNL     1       3.457   3.692  19.643  0.00  0.00    +0.000 A 
ATOM      5  C   UNL     1       3.572   5.082  19.484  0.00  0.00    +0.000 A 
ATOM      6  C   UNL     1       2.782   5.766  18.548  0.00  0.00    +0.000 A 
ATOM      7  C   UNL     1       1.827   5.027  17.829  0.00  0.00    +0.000 A 
ATOM      8  C   UNL     1       1.694   3.636  18.012  0.00  0.00    +0.000 A 
BRANCH   3  10
ATOM      9  C   UNL     1       3.748   0.931  18.760  0.00  0.00    +0.000 C 
ATOM     10  O   UNL     1       2.547   1.610  19.116  0.00  0.00    +0.000 OA
ENDBRANCH   3  10
ENDBRANCH   1   6
BRANCH   2  11
ATOM     11  C   UNL     1       5.095   6.922  16.863  0.00  0.00    +0.000 A 
ATOM     12  C   UNL     1       6.466   6.756  17.120  0.00  0.00    +0.000 A 
ATOM     13  N   UNL     1       7.077   5.994  16.213  0.00  0.00    +0.000 NA
ATOM     14  N   UNL     1       6.114   5.687  15.311  0.00  0.00    +0.000 N 
ATOM     15  C   UNL     1       4.887   6.185  15.713  0.00  0.00    +0.000 A 
BRANCH  14  16
ATOM     16  C   UNL     1       6.434   4.958  14.133  0.00  0.00    +0.000 A 
ATOM     17  C   UNL     1       7.533   5.362  13.356  0.00  0.00    +0.000 A 
ATOM     18  C   UNL     1       7.872   4.666  12.194  0.00  0.00    +0.000 A 
ATOM     19  C   UNL     1       7.113   3.569  11.793  0.00  0.00    +0.000 A 
ATOM     20  C   UNL     1       6.012   3.171  12.551  0.00  0.00    +0.000 A 
ATOM     21  C   UNL     1       5.670   3.859  13.720  0.00  0.00    +0.000 A 
ENDBRANCH  14  16
ENDBRANCH   2  11
BRANCH   1  22
ATOM     22  C   UNL     1       2.076   8.220  18.939  0.00  0.00    +0.000 C 
ATOM     23  O   UNL     1       1.793   8.060  20.130  0.00  0.00    +0.000 OA
ATOM     24  N   UNL     1       1.565   9.264  18.165  0.00  0.00    +0.000 N 
ATOM     25  H   UNL     1       1.745   9.352  17.172  0.00  0.00    +0.000 HD
BRANCH  24  26
ATOM     26  N   UNL     1       0.710  10.168  18.752  0.00  0.00    +0.000 NA
ATOM     27  C   UNL     1      -0.548  10.127  18.431  0.00  0.00    +0.000 C 
BRANCH  27  28
ATOM     28  C   UNL     1      -1.531  11.061  19.049  0.00  0.00    +0.000 A 
ATOM     29  C   UNL     1      -1.223  11.724  20.244  0.00  0.00    +0.000 A 
ATOM     30  C   UNL     1      -2.153  12.587  20.836  0.00  0.00    +0.000 A 
ATOM     31  C   UNL     1      -3.388  12.782  20.231  0.00  0.00    +0.000 A 
ATOM     32  C   UNL     1      -3.706  12.134  19.040  0.00  0.00    +0.000 A 
ATOM     33  C   UNL     1      -2.775  11.270  18.443  0.00  0.00    +0.000 A 
BRANCH  31  34
ATOM     34  O   UNL     1      -4.325  13.612  20.772  0.00  0.00    +0.000 OA
ATOM     35  H   UNL     1      -4.977  13.835  20.087  0.00  0.00    +0.000 HD
ENDBRANCH  31  34
ENDBRANCH  27  28
ENDBRANCH  24  26
ENDBRANCH   1  22
TORSDOF 8
ENDMDL
MODEL 2
REMARK VINA RESULT:      -8.1      0.239      1.209
REMARK  Name = 
REMARK  9 active torsions:
REMARK  status: ('A' for Active; 'I' for Inactive)
REMARK    1  A    between atoms: C_1  and  O_2
REMARK    2  A    between atoms: O_2  and  C_3
REMARK    3  A    between atoms: C_6  and  C_7
REMARK    4  A    between atoms: C_7  and  C_20
REMARK    5  A    between atoms: C_8  and  C_9
REMARK    6  A    between atoms: N_12  and  C_13
REMARK    7  A    between atoms: N_22  and  N_23
REMARK    8  A    between atoms: C_24  and  C_25
REMARK    9  A    between atoms: C_28  and  O_29
REMARK                            x       y       z     vdW  Elec       q    Type
REMARK                         _______ _______ _______ _____ _____    ______ ____
ROOT
ATOM      1  C   UNL     1       2.962   7.211  18.176  0.00  0.00    +0.000 C 
ATOM      2  C   UNL     1       4.008   7.638  17.432  0.00  0.00    +0.000 C 
ENDROOT
BRANCH   1   6
ATOM      3  C   UNL     1       2.564   2.976  19.000  0.00  0.00    +0.000 A 
ATOM      4  C   UNL     1       3.445   3.769  19.738  0.00  0.00    +0.000 A 
ATOM      5  C   UNL     1       3.528   5.153  19.519  0.00  0.00    +0.000 A 
ATOM      6  C   UNL     1       2.765   5.768  18.517  0.00  0.00    +0.000 A 
ATOM      7  C   UNL     1       1.865   4.969  17.791  0.00  0.00    +0.000 A 
ATOM      8  C   UNL     1       1.763   3.584  18.033  0.00  0.00    +0.000 A 
BRANCH   3  10
ATOM      9  C   UNL     1       3.751   0.929  18.769  0.00  0.00    +0.000 C 
ATOM     10  O   UNL     1       2.621   1.638  19.269  0.00  0.00    +0.000 OA
ENDBRANCH   3  10
ENDBRANCH   1   6
BRANCH   2  11
ATOM     11  C   UNL     1       5.050   6.900  16.780  0.00  0.00    +0.000 A 
ATOM     12  C   UNL     1       6.408   6.705  17.086  0.00  0.00    +0.000 A 
ATOM     13  N   UNL     1       7.039   5.948  16.188  0.00  0.00    +0.000 NA
ATOM     14  N   UNL     1       6.105   5.675  15.245  0.00  0.00    +0.000 N 
ATOM     15  C   UNL     1       4.874   6.189  15.609  0.00  0.00    +0.000 A 
BRANCH  14  16
ATOM     16  C   UNL     1       6.457   4.962  14.066  0.00  0.00    +0.000 A 
ATOM     17  C   UNL     1       5.664   3.876  13.660  0.00  0.00    +0.000 A 
ATOM     18  C   UNL     1       5.985   3.156  12.508  0.00  0.00    +0.000 A 
ATOM     19  C   UNL     1       7.103   3.508  11.757  0.00  0.00    +0.000 A 
ATOM     20  C   UNL     1       7.905   4.576  12.160  0.00  0.00    +0.000 A 
ATOM     21  C   UNL     1       7.586   5.306  13.310  0.00  0.00    +0.000 A 
ENDBRANCH  14  16
ENDBRANCH   2  11
BRANCH   1  22
ATOM     22  C   UNL     1       2.014   8.223  18.813  0.00  0.00    +0.000 C 
ATOM     23  O   UNL     1       1.789   8.144  20.025  0.00  0.00    +0.000 OA
ATOM     24  N   UNL     1       1.422   9.180  17.987  0.00  0.00    +0.000 N 
ATOM     25  H   UNL     1       1.555   9.197  16.982  0.00  0.00    +0.000 HD
BRANCH  24  26
ATOM     26  N   UNL     1       0.551  10.089  18.541  0.00  0.00    +0.000 NA
ATOM     27  C   UNL     1      -0.688  10.073  18.153  0.00  0.00    +0.000 C 
BRANCH  27  28
ATOM     28  C   UNL     1      -1.689  11.013  18.732  0.00  0.00    +0.000 A 
ATOM     29  C   UNL     1      -2.995  11.057  18.226  0.00  0.00    +0.000 A 
ATOM     30  C   UNL     1      -3.931  11.953  18.756  0.00  0.00    +0.000 A 
ATOM     31  C   UNL     1      -3.558  12.802  19.790  0.00  0.00    +0.000 A 
ATOM     32  C   UNL     1      -2.264  12.766  20.307  0.00  0.00    +0.000 A 
ATOM     33  C   UNL     1      -1.324  11.868  19.779  0.00  0.00    +0.000 A 
BRANCH  31  34
ATOM     34  O   UNL     1      -4.435  13.691  20.336  0.00  0.00    +0.000 OA
ATOM     35  H   UNL     1      -3.939  14.468  20.646  0.00  0.00    +0.000 HD
ENDBRANCH  31  34
ENDBRANCH  27  28
ENDBRANCH  24  26
ENDBRANCH   1  22
TORSDOF 8
ENDMDL
MODEL 3
REMARK VINA RESULT:      -8.0      3.629     10.626
REMARK  Name = 
REMARK  9 active torsions:
REMARK  status: ('A' for Active; 'I' for Inactive)
REMARK    1  A    between atoms: C_1  and  O_2
REMARK    2  A    between atoms: O_2  and  C_3
REMARK    3  A    between atoms: C_6  and  C_7
REMARK    4  A    between atoms: C_7  and  C_20
REMARK    5  A    between atoms: C_8  and  C_9
REMARK    6  A    between atoms: N_12  and  C_13
REMARK    7  A    between atoms: N_22  and  N_23
REMARK    8  A    between atoms: C_24  and  C_25
REMARK    9  A    between atoms: C_28  and  O_29
REMARK                            x       y       z     vdW  Elec       q    Type
REMARK                         _______ _______ _______ _____ _____    ______ ____
ROOT
ATOM      1  C   UNL     1       0.240  10.755  19.986  0.00  0.00    +0.000 C 
ATOM      2  C   UNL     1       0.970  11.781  20.484  0.00  0.00    +0.000 C 
ENDROOT
BRANCH   1   6
ATOM      3  C   UNL     1      -3.303  11.206  17.533  0.00  0.00    +0.000 A 
ATOM      4  C   UNL     1      -3.194  11.863  18.761  0.00  0.00    +0.000 A 
ATOM      5  C   UNL     1      -2.021  11.773  19.528  0.00  0.00    +0.000 A 
ATOM      6  C   UNL     1      -0.946  10.978  19.104  0.00  0.00    +0.000 A 
ATOM      7  C   UNL     1      -1.054  10.336  17.858  0.00  0.00    +0.000 A 
ATOM      8  C   UNL     1      -2.222  10.452  17.078  0.00  0.00    +0.000 A 
BRANCH   3  10
ATOM      9  C   UNL     1      -5.577  11.882  17.685  0.00  0.00    +0.000 C 
ATOM     10  O   UNL     1      -4.515  11.327  16.915  0.00  0.00    +0.000 OA
ENDBRANCH   3  10
ENDBRANCH   1   6
BRANCH   2  11
ATOM     11  C   UNL     1       0.781  13.198  20.373  0.00  0.00    +0.000 A 
ATOM     12  C   UNL     1       0.299  14.163  21.274  0.00  0.00    +0.000 A 
ATOM     13  N   UNL     1       0.269  15.390  20.754  0.00  0.00    +0.000 NA
ATOM     14  N   UNL     1       0.688  15.236  19.475  0.00  0.00    +0.000 N 
ATOM     15  C   UNL     1       1.064  13.927  19.234  0.00  0.00    +0.000 A 
BRANCH  14  16
ATOM     16  C   UNL     1       0.686  16.339  18.577  0.00  0.00    +0.000 A 
ATOM     17  C   UNL     1      -0.538  16.937  18.230  0.00  0.00    +0.000 A 
ATOM     18  C   UNL     1      -0.572  18.020  17.351  0.00  0.00    +0.000 A 
ATOM     19  C   UNL     1       0.612  18.511  16.805  0.00  0.00    +0.000 A 
ATOM     20  C   UNL     1       1.829  17.914  17.132  0.00  0.00    +0.000 A 
ATOM     21  C   UNL     1       1.872  16.832  18.018  0.00  0.00    +0.000 A 
ENDBRANCH  14  16
ENDBRANCH   2  11
BRANCH   1  22
ATOM     22  C   UNL     1       0.697   9.315  20.206  0.00  0.00    +0.000 C 
ATOM     23  O   UNL     1       0.175   8.660  21.113  0.00  0.00    +0.000 OA
ATOM     24  N   UNL     1       1.707   8.813  19.383  0.00  0.00    +0.000 N 
ATOM     25  H   UNL     1       2.180   9.377  18.687  0.00  0.00    +0.000 HD
BRANCH  24  26
ATOM     26  N   UNL     1       2.143   7.524  19.578  0.00  0.00    +0.000 NA
ATOM     27  C   UNL     1       2.514   6.833  18.544  0.00  0.00    +0.000 C 
BRANCH  27  28
ATOM     28  C   UNL     1       3.022   5.440  18.689  0.00  0.00    +0.000 A 
ATOM     29  C   UNL     1       2.183   4.350  18.422  0.00  0.00    +0.000 A 
ATOM     30  C   UNL     1       2.652   3.040  18.576  0.00  0.00    +0.000 A 
ATOM     31  C   UNL     1       3.958   2.825  18.997  0.00  0.00    +0.000 A 
ATOM     32  C   UNL     1       4.806   3.899  19.261  0.00  0.00    +0.000 A 
ATOM     33  C   UNL     1       4.339   5.213  19.106  0.00  0.00    +0.000 A 
BRANCH  31  34
ATOM     34  O   UNL     1       4.458   1.567  19.162  0.00  0.00    +0.000 OA
ATOM     35  H   UNL     1       3.827   1.047  19.688  0.00  0.00    +0.000 HD
ENDBRANCH  31  34
ENDBRANCH  27  28
ENDBRANCH  24  26
ENDBRANCH   1  22
TORSDOF 8
ENDMDL
MODEL 4
REMARK VINA RESULT:      -7.9      3.563     10.645
REMARK  Name = 
REMARK  9 active torsions:
REMARK  status: ('A' for Active; 'I' for Inactive)
REMARK    1  A    between atoms: C_1  and  O_2
REMARK    2  A    between atoms: O_2  and  C_3
REMARK    3  A    between atoms: C_6  and  C_7
REMARK    4  A    between atoms: C_7  and  C_20
REMARK    5  A    between atoms: C_8  and  C_9
REMARK    6  A    between atoms: N_12  and  C_13
REMARK    7  A    between atoms: N_22  and  N_23
REMARK    8  A    between atoms: C_24  and  C_25
REMARK    9  A    between atoms: C_28  and  O_29
REMARK                            x       y       z     vdW  Elec       q    Type
REMARK                         _______ _______ _______ _____ _____    ______ ____
ROOT
ATOM      1  C   UNL     1       0.047  10.898  20.155  0.00  0.00    +0.000 C 
ATOM      2  C   UNL     1       0.794  11.948  20.571  0.00  0.00    +0.000 C 
ENDROOT
BRANCH   1   6
ATOM      3  C   UNL     1      -3.607  11.233  17.852  0.00  0.00    +0.000 A 
ATOM      4  C   UNL     1      -3.420  11.990  19.011  0.00  0.00    +0.000 A 
ATOM      5  C   UNL     1      -2.211  11.934  19.723  0.00  0.00    +0.000 A 
ATOM      6  C   UNL     1      -1.178  11.076  19.316  0.00  0.00    +0.000 A 
ATOM      7  C   UNL     1      -1.365  10.333  18.139  0.00  0.00    +0.000 A 
ATOM      8  C   UNL     1      -2.569  10.413  17.410  0.00  0.00    +0.000 A 
BRANCH   3  10
ATOM      9  C   UNL     1      -5.960  11.021  18.118  0.00  0.00    +0.000 C 
ATOM     10  O   UNL     1      -4.846  11.333  17.287  0.00  0.00    +0.000 OA
ENDBRANCH   3  10
ENDBRANCH   1   6
BRANCH   2  11
ATOM     11  C   UNL     1       0.593  13.358  20.404  0.00  0.00    +0.000 A 
ATOM     12  C   UNL     1       0.058  14.346  21.248  0.00  0.00    +0.000 A 
ATOM     13  N   UNL     1       0.038  15.554  20.685  0.00  0.00    +0.000 NA
ATOM     14  N   UNL     1       0.519  15.363  19.433  0.00  0.00    +0.000 N 
ATOM     15  C   UNL     1       0.921  14.052  19.255  0.00  0.00    +0.000 A 
BRANCH  14  16
ATOM     16  C   UNL     1       0.545  16.436  18.498  0.00  0.00    +0.000 A 
ATOM     17  C   UNL     1       1.775  16.834  17.949  0.00  0.00    +0.000 A 
ATOM     18  C   UNL     1       1.833  17.883  17.030  0.00  0.00    +0.000 A 
ATOM     19  C   UNL     1       0.667  18.549  16.660  0.00  0.00    +0.000 A 
ATOM     20  C   UNL     1      -0.556  18.169  17.212  0.00  0.00    +0.000 A 
ATOM     21  C   UNL     1      -0.623  17.114  18.128  0.00  0.00    +0.000 A 
ENDBRANCH  14  16
ENDBRANCH   2  11
BRANCH   1  22
ATOM     22  C   UNL     1       0.520   9.472  20.421  0.00  0.00    +0.000 C 
ATOM     23  O   UNL     1       0.001   8.837  21.343  0.00  0.00    +0.000 OA
ATOM     24  N   UNL     1       1.542   8.958  19.620  0.00  0.00    +0.000 N 
ATOM     25  H   UNL     1       2.013   9.506  18.910  0.00  0.00    +0.000 HD
BRANCH  24  26
ATOM     26  N   UNL     1       1.993   7.680  19.857  0.00  0.00    +0.000 NA
ATOM     27  C   UNL     1       2.771   7.126  18.977  0.00  0.00    +0.000 C 
BRANCH  27  28
ATOM     28  C   UNL     1       3.315   5.754  19.185  0.00  0.00    +0.000 A 
ATOM     29  C   UNL     1       2.569   4.795  19.882  0.00  0.00    +0.000 A 
ATOM     30  C   UNL     1       3.086   3.512  20.095  0.00  0.00    +0.000 A 
ATOM     31  C   UNL     1       4.348   3.193  19.611  0.00  0.00    +0.000 A 
ATOM     32  C   UNL     1       5.100   4.135  18.911  0.00  0.00    +0.000 A 
ATOM     33  C   UNL     1       4.583   5.421  18.695  0.00  0.00    +0.000 A 
BRANCH  31  34
ATOM     34  O   UNL     1       4.893   1.957  19.795  0.00  0.00    +0.000 OA
ATOM     35  H   UNL     1       4.500   1.343  19.152  0.00  0.00    +0.000 HD
ENDBRANCH  31  34
ENDBRANCH  27  28
ENDBRANCH  24  26
ENDBRANCH   1  22
TORSDOF 8
ENDMDL
MODEL 5
REMARK VINA RESULT:      -7.9      3.432     10.534
REMARK  Name = 
REMARK  9 active torsions:
REMARK  status: ('A' for Active; 'I' for Inactive)
REMARK    1  A    between atoms: C_1  and  O_2
REMARK    2  A    between atoms: O_2  and  C_3
REMARK    3  A    between atoms: C_6  and  C_7
REMARK    4  A    between atoms: C_7  and  C_20
REMARK    5  A    between atoms: C_8  and  C_9
REMARK    6  A    between atoms: N_12  and  C_13
REMARK    7  A    between atoms: N_22  and  N_23
REMARK    8  A    between atoms: C_24  and  C_25
REMARK    9  A    between atoms: C_28  and  O_29
REMARK                            x       y       z     vdW  Elec       q    Type
REMARK                         _______ _______ _______ _____ _____    ______ ____
ROOT
ATOM      1  C   UNL     1       0.538  10.486  19.961  0.00  0.00    +0.000 C 
ATOM      2  C   UNL     1       1.324  11.496  20.402  0.00  0.00    +0.000 C 
ENDROOT
BRANCH   1   6
ATOM      3  C   UNL     1      -3.063  11.404  17.733  0.00  0.00    +0.000 A 
ATOM      4  C   UNL     1      -2.095  10.544  17.207  0.00  0.00    +0.000 A 
ATOM      5  C   UNL     1      -0.959  10.192  17.953  0.00  0.00    +0.000 A 
ATOM      6  C   UNL     1      -0.741  10.736  19.228  0.00  0.00    +0.000 A 
ATOM      7  C   UNL     1      -1.728  11.584  19.759  0.00  0.00    +0.000 A 
ATOM      8  C   UNL     1      -2.881  11.912  19.019  0.00  0.00    +0.000 A 
BRANCH   3  10
ATOM      9  C   UNL     1      -5.367  11.926  17.473  0.00  0.00    +0.000 C 
ATOM     10  O   UNL     1      -4.088  11.712  16.885  0.00  0.00    +0.000 OA
ENDBRANCH   3  10
ENDBRANCH   1   6
BRANCH   2  11
ATOM     11  C   UNL     1       1.129  12.916  20.357  0.00  0.00    +0.000 A 
ATOM     12  C   UNL     1       0.771  13.855  21.339  0.00  0.00    +0.000 A 
ATOM     13  N   UNL     1       0.680  15.097  20.862  0.00  0.00    +0.000 NA
ATOM     14  N   UNL     1       0.931  14.979  19.536  0.00  0.00    +0.000 N 
ATOM     15  C   UNL     1       1.267  13.677  19.212  0.00  0.00    +0.000 A 
BRANCH  14  16
ATOM     16  C   UNL     1       0.818  16.108  18.677  0.00  0.00    +0.000 A 
ATOM     17  C   UNL     1      -0.455  16.634  18.402  0.00  0.00    +0.000 A 
ATOM     18  C   UNL     1      -0.597  17.740  17.563  0.00  0.00    +0.000 A 
ATOM     19  C   UNL     1       0.528  18.325  16.985  0.00  0.00    +0.000 A 
ATOM     20  C   UNL     1       1.794  17.800  17.242  0.00  0.00    +0.000 A 
ATOM     21  C   UNL     1       1.945  16.695  18.087  0.00  0.00    +0.000 A 
ENDBRANCH  14  16
ENDBRANCH   2  11
BRANCH   1  22
ATOM     22  C   UNL     1       1.012   9.041  20.083  0.00  0.00    +0.000 C 
ATOM     23  O   UNL     1       0.653   8.380  21.062  0.00  0.00    +0.000 OA
ATOM     24  N   UNL     1       1.855   8.539  19.089  0.00  0.00    +0.000 N 
ATOM     25  H   UNL     1       2.203   9.106  18.325  0.00  0.00    +0.000 HD
BRANCH  24  26
ATOM     26  N   UNL     1       2.306   7.244  19.192  0.00  0.00    +0.000 NA
ATOM     27  C   UNL     1       2.144   6.450  18.178  0.00  0.00    +0.000 C 
BRANCH  27  28
ATOM     28  C   UNL     1       2.633   5.043  18.215  0.00  0.00    +0.000 A 
ATOM     29  C   UNL     1       1.980   4.088  19.004  0.00  0.00    +0.000 A 
ATOM     30  C   UNL     1       2.449   2.769  19.055  0.00  0.00    +0.000 A 
ATOM     31  C   UNL     1       3.569   2.412  18.316  0.00  0.00    +0.000 A 
ATOM     32  C   UNL     1       4.226   3.350  17.522  0.00  0.00    +0.000 A 
ATOM     33  C   UNL     1       3.757   4.671  17.468  0.00  0.00    +0.000 A 
BRANCH  31  34
ATOM     34  O   UNL     1       4.063   1.141  18.335  0.00  0.00    +0.000 OA
ATOM     35  H   UNL     1       3.488   0.592  18.895  0.00  0.00    +0.000 HD
ENDBRANCH  31  34
ENDBRANCH  27  28
ENDBRANCH  24  26
ENDBRANCH   1  22
TORSDOF 8
ENDMDL
MODEL 6
REMARK VINA RESULT:      -7.9      3.619     10.564
REMARK  Name = 
REMARK  9 active torsions:
REMARK  status: ('A' for Active; 'I' for Inactive)
REMARK    1  A    between atoms: C_1  and  O_2
REMARK    2  A    between atoms: O_2  and  C_3
REMARK    3  A    between atoms: C_6  and  C_7
REMARK    4  A    between atoms: C_7  and  C_20
REMARK    5  A    between atoms: C_8  and  C_9
REMARK    6  A    between atoms: N_12  and  C_13
REMARK    7  A    between atoms: N_22  and  N_23
REMARK    8  A    between atoms: C_24  and  C_25
REMARK    9  A    between atoms: C_28  and  O_29
REMARK                            x       y       z     vdW  Elec       q    Type
REMARK                         _______ _______ _______ _____ _____    ______ ____
ROOT
ATOM      1  C   UNL     1       0.412  10.943  20.386  0.00  0.00    +0.000 C 
ATOM      2  C   UNL     1       1.094  12.045  20.776  0.00  0.00    +0.000 C 
ENDROOT
BRANCH   1   6
ATOM      3  C   UNL     1      -3.020  11.381  17.778  0.00  0.00    +0.000 A 
ATOM      4  C   UNL     1      -1.921  10.611  17.391  0.00  0.00    +0.000 A 
ATOM      5  C   UNL     1      -0.836  10.412  18.260  0.00  0.00    +0.000 A 
ATOM      6  C   UNL     1      -0.805  11.025  19.522  0.00  0.00    +0.000 A 
ATOM      7  C   UNL     1      -1.922  11.782  19.912  0.00  0.00    +0.000 A 
ATOM      8  C   UNL     1      -3.023  11.956  19.049  0.00  0.00    +0.000 A 
BRANCH   3  10
ATOM      9  C   UNL     1      -3.899  10.700  15.677  0.00  0.00    +0.000 C 
ATOM     10  O   UNL     1      -3.981  11.544  16.821  0.00  0.00    +0.000 OA
ENDBRANCH   3  10
ENDBRANCH   1   6
BRANCH   2  11
ATOM     11  C   UNL     1       0.822  13.435  20.555  0.00  0.00    +0.000 A 
ATOM     12  C   UNL     1       0.216  14.421  21.352  0.00  0.00    +0.000 A 
ATOM     13  N   UNL     1       0.143  15.606  20.747  0.00  0.00    +0.000 NA
ATOM     14  N   UNL     1       0.661  15.399  19.512  0.00  0.00    +0.000 N 
ATOM     15  C   UNL     1       1.137  14.106  19.389  0.00  0.00    +0.000 A 
BRANCH  14  16
ATOM     16  C   UNL     1       0.651  16.438  18.541  0.00  0.00    +0.000 A 
ATOM     17  C   UNL     1       1.869  16.875  17.993  0.00  0.00    +0.000 A 
ATOM     18  C   UNL     1       1.891  17.894  17.039  0.00  0.00    +0.000 A 
ATOM     19  C   UNL     1       0.701  18.490  16.631  0.00  0.00    +0.000 A 
ATOM     20  C   UNL     1      -0.511  18.073  17.180  0.00  0.00    +0.000 A 
ATOM     21  C   UNL     1      -0.542  17.048  18.132  0.00  0.00    +0.000 A 
ENDBRANCH  14  16
ENDBRANCH   2  11
BRANCH   1  22
ATOM     22  C   UNL     1       0.955   9.554  20.711  0.00  0.00    +0.000 C 
ATOM     23  O   UNL     1       0.876   9.142  21.872  0.00  0.00    +0.000 OA
ATOM     24  N   UNL     1       1.544   8.820  19.679  0.00  0.00    +0.000 N 
ATOM     25  H   UNL     1       1.669   9.189  18.744  0.00  0.00    +0.000 HD
BRANCH  24  26
ATOM     26  N   UNL     1       2.054   7.574  19.957  0.00  0.00    +0.000 NA
ATOM     27  C   UNL     1       2.690   6.942  19.018  0.00  0.00    +0.000 C 
BRANCH  27  28
ATOM     28  C   UNL     1       3.290   5.600  19.261  0.00  0.00    +0.000 A 
ATOM     29  C   UNL     1       4.610   5.334  18.874  0.00  0.00    +0.000 A 
ATOM     30  C   UNL     1       5.170   4.068  19.085  0.00  0.00    +0.000 A 
ATOM     31  C   UNL     1       4.407   3.073  19.682  0.00  0.00    +0.000 A 
ATOM     32  C   UNL     1       3.094   3.324  20.078  0.00  0.00    +0.000 A 
ATOM     33  C   UNL     1       2.532   4.593  19.869  0.00  0.00    +0.000 A 
BRANCH  31  34
ATOM     34  O   UNL     1       4.909   1.825  19.906  0.00  0.00    +0.000 OA
ATOM     35  H   UNL     1       5.099   1.731  20.855  0.00  0.00    +0.000 HD
ENDBRANCH  31  34
ENDBRANCH  27  28
ENDBRANCH  24  26
ENDBRANCH   1  22
TORSDOF 8
ENDMDL
MODEL 7
REMARK VINA RESULT:      -7.9      1.818      1.876
REMARK  Name = 
REMARK  9 active torsions:
REMARK  status: ('A' for Active; 'I' for Inactive)
REMARK    1  A    between atoms: C_1  and  O_2
REMARK    2  A    between atoms: O_2  and  C_3
REMARK    3  A    between atoms: C_6  and  C_7
REMARK    4  A    between atoms: C_7  and  C_20
REMARK    5  A    between atoms: C_8  and  C_9
REMARK    6  A    between atoms: N_12  and  C_13
REMARK    7  A    between atoms: N_22  and  N_23
REMARK    8  A    between atoms: C_24  and  C_25
REMARK    9  A    between atoms: C_28  and  O_29
REMARK                            x       y       z     vdW  Elec       q    Type
REMARK                         _______ _______ _______ _____ _____    ______ ____
ROOT
ATOM      1  C   UNL     1       2.949   7.086  18.462  0.00  0.00    +0.000 C 
ATOM      2  C   UNL     1       3.995   7.588  17.766  0.00  0.00    +0.000 C 
ENDROOT
BRANCH   1   6
ATOM      3  C   UNL     1       2.577   2.789  18.889  0.00  0.00    +0.000 A 
ATOM      4  C   UNL     1       3.481   3.511  19.673  0.00  0.00    +0.000 A 
ATOM      5  C   UNL     1       3.557   4.911  19.585  0.00  0.00    +0.000 A 
ATOM      6  C   UNL     1       2.762   5.616  18.669  0.00  0.00    +0.000 A 
ATOM      7  C   UNL     1       1.842   4.886  17.898  0.00  0.00    +0.000 A 
ATOM      8  C   UNL     1       1.747   3.485  18.010  0.00  0.00    +0.000 A 
BRANCH   3  10
ATOM      9  C   UNL     1       3.905   0.821  18.775  0.00  0.00    +0.000 C 
ATOM     10  O   UNL     1       2.644   1.433  19.027  0.00  0.00    +0.000 OA
ENDBRANCH   3  10
ENDBRANCH   1   6
BRANCH   2  11
ATOM     11  C   UNL     1       5.046   6.921  17.055  0.00  0.00    +0.000 A 
ATOM     12  C   UNL     1       6.433   6.840  17.269  0.00  0.00    +0.000 A 
ATOM     13  N   UNL     1       7.060   6.116  16.342  0.00  0.00    +0.000 NA
ATOM     14  N   UNL     1       6.090   5.750  15.471  0.00  0.00    +0.000 N 
ATOM     15  C   UNL     1       4.849   6.172  15.911  0.00  0.00    +0.000 A 
BRANCH  14  16
ATOM     16  C   UNL     1       6.418   5.041  14.282  0.00  0.00    +0.000 A 
ATOM     17  C   UNL     1       7.532   5.447  13.528  0.00  0.00    +0.000 A 
ATOM     18  C   UNL     1       7.878   4.772  12.357  0.00  0.00    +0.000 A 
ATOM     19  C   UNL     1       7.112   3.692  11.924  0.00  0.00    +0.000 A 
ATOM     20  C   UNL     1       5.996   3.292  12.658  0.00  0.00    +0.000 A 
ATOM     21  C   UNL     1       5.646   3.959  13.837  0.00  0.00    +0.000 A 
ENDBRANCH  14  16
ENDBRANCH   2  11
BRANCH   1  22
ATOM     22  C   UNL     1       1.988   8.028  19.183  0.00  0.00    +0.000 C 
ATOM     23  O   UNL     1       1.457   8.938  18.541  0.00  0.00    +0.000 OA
ATOM     24  N   UNL     1       1.775   7.830  20.549  0.00  0.00    +0.000 N 
ATOM     25  H   UNL     1       2.266   7.125  21.086  0.00  0.00    +0.000 HD
BRANCH  24  26
ATOM     26  N   UNL     1       0.926   8.680  21.219  0.00  0.00    +0.000 NA
ATOM     27  C   UNL     1       1.069   9.959  21.045  0.00  0.00    +0.000 C 
BRANCH  27  28
ATOM     28  C   UNL     1       0.167  10.934  21.721  0.00  0.00    +0.000 A 
ATOM     29  C   UNL     1      -0.779  10.493  22.655  0.00  0.00    +0.000 A 
ATOM     30  C   UNL     1      -1.641  11.405  23.276  0.00  0.00    +0.000 A 
ATOM     31  C   UNL     1      -1.553  12.754  22.960  0.00  0.00    +0.000 A 
ATOM     32  C   UNL     1      -0.613  13.209  22.037  0.00  0.00    +0.000 A 
ATOM     33  C   UNL     1       0.253  12.297  21.414  0.00  0.00    +0.000 A 
BRANCH  31  34
ATOM     34  O   UNL     1      -2.372  13.679  23.539  0.00  0.00    +0.000 OA
ATOM     35  H   UNL     1      -3.063  13.926  22.902  0.00  0.00    +0.000 HD
ENDBRANCH  31  34
ENDBRANCH  27  28
ENDBRANCH  24  26
ENDBRANCH   1  22
TORSDOF 8
ENDMDL
MODEL 8
REMARK VINA RESULT:      -7.9      1.842      2.060
REMARK  Name = 
REMARK  9 active torsions:
REMARK  status: ('A' for Active; 'I' for Inactive)
REMARK    1  A    between atoms: C_1  and  O_2
REMARK    2  A    between atoms: O_2  and  C_3
REMARK    3  A    between atoms: C_6  and  C_7
REMARK    4  A    between atoms: C_7  and  C_20
REMARK    5  A    between atoms: C_8  and  C_9
REMARK    6  A    between atoms: N_12  and  C_13
REMARK    7  A    between atoms: N_22  and  N_23
REMARK    8  A    between atoms: C_24  and  C_25
REMARK    9  A    between atoms: C_28  and  O_29
REMARK                            x       y       z     vdW  Elec       q    Type
REMARK                         _______ _______ _______ _____ _____    ______ ____
ROOT
ATOM      1  C   UNL     1       2.892   7.110  18.396  0.00  0.00    +0.000 C 
ATOM      2  C   UNL     1       3.939   7.613  17.702  0.00  0.00    +0.000 C 
ENDROOT
BRANCH   1   6
ATOM      3  C   UNL     1       2.564   2.817  18.887  0.00  0.00    +0.000 A 
ATOM      4  C   UNL     1       3.485   3.555  19.635  0.00  0.00    +0.000 A 
ATOM      5  C   UNL     1       3.548   4.953  19.527  0.00  0.00    +0.000 A 
ATOM      6  C   UNL     1       2.722   5.642  18.627  0.00  0.00    +0.000 A 
ATOM      7  C   UNL     1       1.785   4.896  17.892  0.00  0.00    +0.000 A 
ATOM      8  C   UNL     1       1.704   3.496  18.024  0.00  0.00    +0.000 A 
BRANCH   3  10
ATOM      9  C   UNL     1       3.905   0.858  18.773  0.00  0.00    +0.000 C 
ATOM     10  O   UNL     1       2.644   1.462  19.041  0.00  0.00    +0.000 OA
ENDBRANCH   3  10
ENDBRANCH   1   6
BRANCH   2  11
ATOM     11  C   UNL     1       5.006   6.947  17.013  0.00  0.00    +0.000 A 
ATOM     12  C   UNL     1       6.386   6.861  17.260  0.00  0.00    +0.000 A 
ATOM     13  N   UNL     1       7.034   6.141  16.345  0.00  0.00    +0.000 NA
ATOM     14  N   UNL     1       6.085   5.784  15.447  0.00  0.00    +0.000 N 
ATOM     15  C   UNL     1       4.834   6.207  15.859  0.00  0.00    +0.000 A 
BRANCH  14  16
ATOM     16  C   UNL     1       6.440   5.081  14.262  0.00  0.00    +0.000 A 
ATOM     17  C   UNL     1       5.643   4.005  13.840  0.00  0.00    +0.000 A 
ATOM     18  C   UNL     1       5.967   3.296  12.681  0.00  0.00    +0.000 A 
ATOM     19  C   UNL     1       7.092   3.650  11.941  0.00  0.00    +0.000 A 
ATOM     20  C   UNL     1       7.897   4.708  12.361  0.00  0.00    +0.000 A 
ATOM     21  C   UNL     1       7.576   5.427  13.517  0.00  0.00    +0.000 A 
ENDBRANCH  14  16
ENDBRANCH   2  11
BRANCH   1  22
ATOM     22  C   UNL     1       1.913   8.052  19.092  0.00  0.00    +0.000 C 
ATOM     23  O   UNL     1       1.345   8.918  18.420  0.00  0.00    +0.000 OA
ATOM     24  N   UNL     1       1.723   7.905  20.467  0.00  0.00    +0.000 N 
ATOM     25  H   UNL     1       2.243   7.238  21.026  0.00  0.00    +0.000 HD
BRANCH  24  26
ATOM     26  N   UNL     1       0.858   8.756  21.113  0.00  0.00    +0.000 NA
ATOM     27  C   UNL     1       1.105  10.031  21.080  0.00  0.00    +0.000 C 
BRANCH  27  28
ATOM     28  C   UNL     1       0.194  11.010  21.738  0.00  0.00    +0.000 A 
ATOM     29  C   UNL     1       0.300  12.377  21.451  0.00  0.00    +0.000 A 
ATOM     30  C   UNL     1      -0.543  13.300  22.082  0.00  0.00    +0.000 A 
ATOM     31  C   UNL     1      -1.487  12.853  22.996  0.00  0.00    +0.000 A 
ATOM     32  C   UNL     1      -1.608  11.495  23.287  0.00  0.00    +0.000 A 
ATOM     33  C   UNL     1      -0.766  10.567  22.655  0.00  0.00    +0.000 A 
BRANCH  31  34
ATOM     34  O   UNL     1      -2.328  13.715  23.636  0.00  0.00    +0.000 OA
ATOM     35  H   UNL     1      -1.937  13.954  24.493  0.00  0.00    +0.000 HD
ENDBRANCH  31  34
ENDBRANCH  27  28
ENDBRANCH  24  26
ENDBRANCH   1  22
TORSDOF 8
ENDMDL
MODEL 9
REMARK VINA RESULT:      -7.8      3.204     11.325
REMARK  Name = 
REMARK  9 active torsions:
REMARK  status: ('A' for Active; 'I' for Inactive)
REMARK    1  A    between atoms: C_1  and  O_2
REMARK    2  A    between atoms: O_2  and  C_3
REMARK    3  A    between atoms: C_6  and  C_7
REMARK    4  A    between atoms: C_7  and  C_20
REMARK    5  A    between atoms: C_8  and  C_9
REMARK    6  A    between atoms: N_12  and  C_13
REMARK    7  A    between atoms: N_22  and  N_23
REMARK    8  A    between atoms: C_24  and  C_25
REMARK    9  A    between atoms: C_28  and  O_29
REMARK                            x       y       z     vdW  Elec       q    Type
REMARK                         _______ _______ _______ _____ _____    ______ ____
ROOT
ATOM      1  C   UNL     1       0.092  10.095  18.442  0.00  0.00    +0.000 C 
ATOM      2  C   UNL     1      -0.907   9.688  17.625  0.00  0.00    +0.000 C 
ENDROOT
BRANCH   1   6
ATOM      3  C   UNL     1       0.123  13.779  20.723  0.00  0.00    +0.000 A 
ATOM      4  C   UNL     1       0.624  13.740  19.420  0.00  0.00    +0.000 A 
ATOM      5  C   UNL     1       0.555  12.565  18.654  0.00  0.00    +0.000 A 
ATOM      6  C   UNL     1       0.027  11.384  19.197  0.00  0.00    +0.000 A 
ATOM      7  C   UNL     1      -0.493  11.436  20.502  0.00  0.00    +0.000 A 
ATOM      8  C   UNL     1      -0.449  12.624  21.257  0.00  0.00    +0.000 A 
BRANCH   3  10
ATOM      9  C   UNL     1      -0.095  16.146  20.693  0.00  0.00    +0.000 C 
ATOM     10  O   UNL     1       0.303  14.963  21.379  0.00  0.00    +0.000 OA
ENDBRANCH   3  10
ENDBRANCH   1   6
BRANCH   2  11
ATOM     11  C   UNL     1      -2.125  10.342  17.246  0.00  0.00    +0.000 A 
ATOM     12  C   UNL     1      -2.577  10.873  16.026  0.00  0.00    +0.000 A 
ATOM     13  N   UNL     1      -3.789  11.421  16.114  0.00  0.00    +0.000 NA
ATOM     14  N   UNL     1      -4.131  11.300  17.419  0.00  0.00    +0.000 N 
ATOM     15  C   UNL     1      -3.168  10.595  18.117  0.00  0.00    +0.000 A 
BRANCH  14  16
ATOM     16  C   UNL     1      -5.338  11.875  17.905  0.00  0.00    +0.000 A 
ATOM     17  C   UNL     1      -5.703  11.669  19.246  0.00  0.00    +0.000 A 
ATOM     18  C   UNL     1      -6.882  12.220  19.750  0.00  0.00    +0.000 A 
ATOM     19  C   UNL     1      -7.710  12.973  18.921  0.00  0.00    +0.000 A 
ATOM     20  C   UNL     1      -7.362  13.169  17.585  0.00  0.00    +0.000 A 
ATOM     21  C   UNL     1      -6.179  12.626  17.073  0.00  0.00    +0.000 A 
ENDBRANCH  14  16
ENDBRANCH   2  11
BRANCH   1  22
ATOM     22  C   UNL     1       1.272   9.170  18.726  0.00  0.00    +0.000 C 
ATOM     23  O   UNL     1       1.463   8.790  19.885  0.00  0.00    +0.000 OA
ATOM     24  N   UNL     1       2.100   8.815  17.659  0.00  0.00    +0.000 N 
ATOM     25  H   UNL     1       1.981   9.184  16.723  0.00  0.00    +0.000 HD
BRANCH  24  26
ATOM     26  N   UNL     1       3.179   7.996  17.899  0.00  0.00    +0.000 NA
ATOM     27  C   UNL     1       3.712   7.366  16.897  0.00  0.00    +0.000 C 
BRANCH  27  28
ATOM     28  C   UNL     1       4.899   6.484  17.085  0.00  0.00    +0.000 A 
ATOM     29  C   UNL     1       4.759   5.091  17.039  0.00  0.00    +0.000 A 
ATOM     30  C   UNL     1       5.869   4.260  17.234  0.00  0.00    +0.000 A 
ATOM     31  C   UNL     1       7.114   4.826  17.474  0.00  0.00    +0.000 A 
ATOM     32  C   UNL     1       7.270   6.210  17.517  0.00  0.00    +0.000 A 
ATOM     33  C   UNL     1       6.159   7.045  17.320  0.00  0.00    +0.000 A 
BRANCH  31  34
ATOM     34  O   UNL     1       8.223   4.057  17.671  0.00  0.00    +0.000 OA
ATOM     35  H   UNL     1       8.704   3.982  16.830  0.00  0.00    +0.000 HD
ENDBRANCH  31  34
ENDBRANCH  27  28
ENDBRANCH  24  26
ENDBRANCH   1  22
TORSDOF 8
ENDMDL
