MODEL 1
REMARK VINA RESULT:      -7.9      0.000      0.000
REMARK  Name = 
REMARK  4 active torsions:
REMARK  status: ('A' for Active; 'I' for Inactive)
REMARK    1  A    between atoms: C_2  and  C_14
REMARK    2  A    between atoms: N_3  and  C_4
REMARK    3  A    between atoms: C_7  and  C_8
REMARK    4  A    between atoms: C_17  and  C_18
REMARK                            x       y       z     vdW  Elec       q    Type
REMARK                         _______ _______ _______ _____ _____    ______ ____
ROOT
ATOM      1  O   UNL     1       1.576   8.791  19.168  0.00  0.00    +0.000 OA
ATOM      2  C   UNL     1       1.191   8.498  20.294  0.00  0.00    +0.000 C 
ATOM      3  N   UNL     1       1.279   7.260  20.907  0.00  0.00    +0.000 N 
ATOM      4  H   UNL     1       0.734   7.117  21.747  0.00  0.00    +0.000 HD
ENDROOT
BRANCH   3   5
ATOM      5  C   UNL     1       1.940   6.131  20.386  0.00  0.00    +0.000 A 
ATOM      6  C   UNL     1       3.093   6.218  19.606  0.00  0.00    +0.000 A 
ATOM      7  C   UNL     1       3.711   5.069  19.112  0.00  0.00    +0.000 A 
ATOM      8  C   UNL     1       3.186   3.804  19.391  0.00  0.00    +0.000 A 
ATOM      9  C   UNL     1       2.029   3.713  20.180  0.00  0.00    +0.000 A 
ATOM     10  C   UNL     1       1.417   4.867  20.681  0.00  0.00    +0.000 A 
BRANCH   8  11
ATOM     11  C   UNL     1       3.858   2.561  18.864  0.00  0.00    +0.000 C 
ATOM     12  F   UNL     1       2.987   1.562  18.550  0.00  0.00    +0.000 F 
ATOM     13  F   UNL     1       4.574   2.799  17.730  0.00  0.00    +0.000 F 
ATOM     14  F   UNL     1       4.736   2.024  19.755  0.00  0.00    +0.000 F 
ENDBRANCH   8  11
ENDBRANCH   3   5
BRANCH   2  15
ATOM     15  C   UNL     1       0.484   9.538  21.078  0.00  0.00    +0.000 A 
ATOM     16  C   UNL     1       0.461  10.840  20.571  0.00  0.00    +0.000 A 
ATOM     17  C   UNL     1      -0.195  11.853  21.273  0.00  0.00    +0.000 A 
ATOM     18  C   UNL     1      -0.840  11.593  22.497  0.00  0.00    +0.000 A 
ATOM     19  C   UNL     1      -0.768  10.281  23.005  0.00  0.00    +0.000 A 
ATOM     20  C   UNL     1      -0.113   9.259  22.309  0.00  0.00    +0.000 A 
BRANCH  18  21
ATOM     21  C   UNL     1      -1.559  12.650  23.235  0.00  0.00    +0.000 A 
ATOM     22  C   UNL     1      -2.915  12.562  23.546  0.00  0.00    +0.000 A 
ATOM     23  C   UNL     1      -3.525  13.600  24.246  0.00  0.00    +0.000 A 
ATOM     24  C   UNL     1      -2.768  14.699  24.623  0.00  0.00    +0.000 A 
ATOM     25  C   UNL     1      -1.427  14.712  24.288  0.00  0.00    +0.000 A 
ATOM     26  N   UNL     1      -0.809  13.717  23.614  0.00  0.00    +0.000 NA
ENDBRANCH  18  21
ENDBRANCH   2  15
TORSDOF 4
ENDMDL
MODEL 2
REMARK VINA RESULT:      -7.8      2.310      3.075
REMARK  Name = 
REMARK  4 active torsions:
REMARK  status: ('A' for Active; 'I' for Inactive)
REMARK    1  A    between atoms: C_2  and  C_14
REMARK    2  A    between atoms: N_3  and  C_4
REMARK    3  A    between atoms: C_7  and  C_8
REMARK    4  A    between atoms: C_17  and  C_18
REMARK                            x       y       z     vdW  Elec       q    Type
REMARK                         _______ _______ _______ _____ _____    ______ ____
ROOT
ATOM      1  O   UNL     1       2.059   6.119  20.321  0.00  0.00    +0.000 OA
ATOM      2  C   UNL     1       2.120   7.224  19.795  0.00  0.00    +0.000 C 
ATOM      3  N   UNL     1       2.842   7.566  18.665  0.00  0.00    +0.000 N 
ATOM      4  H   UNL     1       2.965   8.552  18.473  0.00  0.00    +0.000 HD
ENDROOT
BRANCH   3   5
ATOM      5  C   UNL     1       3.551   6.672  17.840  0.00  0.00    +0.000 A 
ATOM      6  C   UNL     1       3.259   5.309  17.771  0.00  0.00    +0.000 A 
ATOM      7  C   UNL     1       3.991   4.463  16.938  0.00  0.00    +0.000 A 
ATOM      8  C   UNL     1       5.033   4.965  16.152  0.00  0.00    +0.000 A 
ATOM      9  C   UNL     1       5.325   6.336  16.216  0.00  0.00    +0.000 A 
ATOM     10  C   UNL     1       4.582   7.184  17.046  0.00  0.00    +0.000 A 
BRANCH   8  11
ATOM     11  C   UNL     1       5.820   4.052  15.246  0.00  0.00    +0.000 C 
ATOM     12  F   UNL     1       5.350   4.016  13.968  0.00  0.00    +0.000 F 
ATOM     13  F   UNL     1       7.128   4.417  15.151  0.00  0.00    +0.000 F 
ATOM     14  F   UNL     1       5.822   2.761  15.679  0.00  0.00    +0.000 F 
ENDBRANCH   8  11
ENDBRANCH   3   5
BRANCH   2  15
ATOM     15  C   UNL     1       1.419   8.348  20.458  0.00  0.00    +0.000 A 
ATOM     16  C   UNL     1       1.052   9.446  19.676  0.00  0.00    +0.000 A 
ATOM     17  C   UNL     1       0.386  10.527  20.256  0.00  0.00    +0.000 A 
ATOM     18  C   UNL     1       0.074  10.541  21.629  0.00  0.00    +0.000 A 
ATOM     19  C   UNL     1       0.490   9.439  22.402  0.00  0.00    +0.000 A 
ATOM     20  C   UNL     1       1.157   8.351  21.830  0.00  0.00    +0.000 A 
BRANCH  18  21
ATOM     21  C   UNL     1      -0.652  11.667  22.248  0.00  0.00    +0.000 A 
ATOM     22  C   UNL     1      -1.824  11.494  22.982  0.00  0.00    +0.000 A 
ATOM     23  C   UNL     1      -2.454  12.605  23.538  0.00  0.00    +0.000 A 
ATOM     24  C   UNL     1      -1.897  13.862  23.352  0.00  0.00    +0.000 A 
ATOM     25  C   UNL     1      -0.728  13.955  22.621  0.00  0.00    +0.000 A 
ATOM     26  N   UNL     1      -0.095  12.893  22.076  0.00  0.00    +0.000 NA
ENDBRANCH  18  21
ENDBRANCH   2  15
TORSDOF 4
ENDMDL
MODEL 3
REMARK VINA RESULT:      -7.8      0.767      1.599
REMARK  Name = 
REMARK  4 active torsions:
REMARK  status: ('A' for Active; 'I' for Inactive)
REMARK    1  A    between atoms: C_2  and  C_14
REMARK    2  A    between atoms: N_3  and  C_4
REMARK    3  A    between atoms: C_7  and  C_8
REMARK    4  A    between atoms: C_17  and  C_18
REMARK                            x       y       z     vdW  Elec       q    Type
REMARK                         _______ _______ _______ _____ _____    ______ ____
ROOT
ATOM      1  O   UNL     1       1.844   8.697  19.399  0.00  0.00    +0.000 OA
ATOM      2  C   UNL     1       1.191   8.351  20.377  0.00  0.00    +0.000 C 
ATOM      3  N   UNL     1       1.065   7.068  20.879  0.00  0.00    +0.000 N 
ATOM      4  H   UNL     1       0.332   6.903  21.556  0.00  0.00    +0.000 HD
ENDROOT
BRANCH   3   5
ATOM      5  C   UNL     1       1.765   5.934  20.422  0.00  0.00    +0.000 A 
ATOM      6  C   UNL     1       3.056   5.998  19.898  0.00  0.00    +0.000 A 
ATOM      7  C   UNL     1       3.707   4.846  19.457  0.00  0.00    +0.000 A 
ATOM      8  C   UNL     1       3.077   3.600  19.534  0.00  0.00    +0.000 A 
ATOM      9  C   UNL     1       1.781   3.532  20.066  0.00  0.00    +0.000 A 
ATOM     10  C   UNL     1       1.134   4.688  20.516  0.00  0.00    +0.000 A 
BRANCH   8  11
ATOM     11  C   UNL     1       3.784   2.353  19.065  0.00  0.00    +0.000 C 
ATOM     12  F   UNL     1       4.498   2.529  17.918  0.00  0.00    +0.000 F 
ATOM     13  F   UNL     1       4.670   1.881  19.986  0.00  0.00    +0.000 F 
ATOM     14  F   UNL     1       2.923   1.328  18.814  0.00  0.00    +0.000 F 
ENDBRANCH   8  11
ENDBRANCH   3   5
BRANCH   2  15
ATOM     15  C   UNL     1       0.381   9.380  21.070  0.00  0.00    +0.000 A 
ATOM     16  C   UNL     1       0.106   9.195  22.427  0.00  0.00    +0.000 A 
ATOM     17  C   UNL     1      -0.651  10.139  23.123  0.00  0.00    +0.000 A 
ATOM     18  C   UNL     1      -1.152  11.288  22.482  0.00  0.00    +0.000 A 
ATOM     19  C   UNL     1      -0.893  11.431  21.105  0.00  0.00    +0.000 A 
ATOM     20  C   UNL     1      -0.136  10.490  20.399  0.00  0.00    +0.000 A 
BRANCH  18  21
ATOM     21  C   UNL     1      -1.931  12.306  23.214  0.00  0.00    +0.000 A 
ATOM     22  C   UNL     1      -1.433  13.578  23.493  0.00  0.00    +0.000 A 
ATOM     23  C   UNL     1      -2.228  14.487  24.187  0.00  0.00    +0.000 A 
ATOM     24  C   UNL     1      -3.501  14.107  24.584  0.00  0.00    +0.000 A 
ATOM     25  C   UNL     1      -3.931  12.833  24.264  0.00  0.00    +0.000 A 
ATOM     26  N   UNL     1      -3.183  11.935  23.587  0.00  0.00    +0.000 NA
ENDBRANCH  18  21
ENDBRANCH   2  15
TORSDOF 4
ENDMDL
MODEL 4
REMARK VINA RESULT:      -7.8      2.365      3.381
REMARK  Name = 
REMARK  4 active torsions:
REMARK  status: ('A' for Active; 'I' for Inactive)
REMARK    1  A    between atoms: C_2  and  C_14
REMARK    2  A    between atoms: N_3  and  C_4
REMARK    3  A    between atoms: C_7  and  C_8
REMARK    4  A    between atoms: C_17  and  C_18
REMARK                            x       y       z     vdW  Elec       q    Type
REMARK                         _______ _______ _______ _____ _____    ______ ____
ROOT
ATOM      1  O   UNL     1       2.183   6.137  20.220  0.00  0.00    +0.000 OA
ATOM      2  C   UNL     1       2.209   7.221  19.649  0.00  0.00    +0.000 C 
ATOM      3  N   UNL     1       2.911   7.538  18.500  0.00  0.00    +0.000 N 
ATOM      4  H   UNL     1       3.005   8.518  18.267  0.00  0.00    +0.000 HD
ENDROOT
BRANCH   3   5
ATOM      5  C   UNL     1       3.638   6.631  17.705  0.00  0.00    +0.000 A 
ATOM      6  C   UNL     1       3.482   5.248  17.795  0.00  0.00    +0.000 A 
ATOM      7  C   UNL     1       4.227   4.390  16.985  0.00  0.00    +0.000 A 
ATOM      8  C   UNL     1       5.145   4.901  16.063  0.00  0.00    +0.000 A 
ATOM      9  C   UNL     1       5.300   6.293  15.966  0.00  0.00    +0.000 A 
ATOM     10  C   UNL     1       4.544   7.151  16.774  0.00  0.00    +0.000 A 
BRANCH   8  11
ATOM     11  C   UNL     1       5.944   3.975  15.181  0.00  0.00    +0.000 C 
ATOM     12  F   UNL     1       7.264   4.303  15.100  0.00  0.00    +0.000 F 
ATOM     13  F   UNL     1       5.908   2.685  15.617  0.00  0.00    +0.000 F 
ATOM     14  F   UNL     1       5.487   3.950  13.899  0.00  0.00    +0.000 F 
ENDBRANCH   8  11
ENDBRANCH   3   5
BRANCH   2  15
ATOM     15  C   UNL     1       1.482   8.351  20.274  0.00  0.00    +0.000 A 
ATOM     16  C   UNL     1       1.087   8.222  21.607  0.00  0.00    +0.000 A 
ATOM     17  C   UNL     1       0.403   9.262  22.239  0.00  0.00    +0.000 A 
ATOM     18  C   UNL     1       0.092  10.452  21.555  0.00  0.00    +0.000 A 
ATOM     19  C   UNL     1       0.467  10.541  20.200  0.00  0.00    +0.000 A 
ATOM     20  C   UNL     1       1.154   9.505  19.559  0.00  0.00    +0.000 A 
BRANCH  18  21
ATOM     21  C   UNL     1      -0.608  11.569  22.220  0.00  0.00    +0.000 A 
ATOM     22  C   UNL     1      -1.731  11.380  23.025  0.00  0.00    +0.000 A 
ATOM     23  C   UNL     1      -2.338  12.483  23.620  0.00  0.00    +0.000 A 
ATOM     24  C   UNL     1      -1.811  13.747  23.401  0.00  0.00    +0.000 A 
ATOM     25  C   UNL     1      -0.690  13.855  22.599  0.00  0.00    +0.000 A 
ATOM     26  N   UNL     1      -0.079  12.802  22.014  0.00  0.00    +0.000 NA
ENDBRANCH  18  21
ENDBRANCH   2  15
TORSDOF 4
ENDMDL
MODEL 5
REMARK VINA RESULT:      -7.7      0.322      1.584
REMARK  Name = 
REMARK  4 active torsions:
REMARK  status: ('A' for Active; 'I' for Inactive)
REMARK    1  A    between atoms: C_2  and  C_14
REMARK    2  A    between atoms: N_3  and  C_4
REMARK    3  A    between atoms: C_7  and  C_8
REMARK    4  A    between atoms: C_17  and  C_18
REMARK                            x       y       z     vdW  Elec       q    Type
REMARK                         _______ _______ _______ _____ _____    ______ ____
ROOT
ATOM      1  O   UNL     1       1.935   8.554  19.359  0.00  0.00    +0.000 OA
ATOM      2  C   UNL     1       1.299   8.271  20.367  0.00  0.00    +0.000 C 
ATOM      3  N   UNL     1       1.134   7.012  20.918  0.00  0.00    +0.000 N 
ATOM      4  H   UNL     1       0.416   6.904  21.623  0.00  0.00    +0.000 HD
ENDROOT
BRANCH   3   5
ATOM      5  C   UNL     1       1.769   5.834  20.482  0.00  0.00    +0.000 A 
ATOM      6  C   UNL     1       1.179   4.573  20.576  0.00  0.00    +0.000 A 
ATOM      7  C   UNL     1       1.850   3.434  20.130  0.00  0.00    +0.000 A 
ATOM      8  C   UNL     1       3.130   3.534  19.576  0.00  0.00    +0.000 A 
ATOM      9  C   UNL     1       3.724   4.802  19.475  0.00  0.00    +0.000 A 
ATOM     10  C   UNL     1       3.044   5.943  19.915  0.00  0.00    +0.000 A 
BRANCH   8  11
ATOM     11  C   UNL     1       3.852   2.305  19.086  0.00  0.00    +0.000 C 
ATOM     12  F   UNL     1       4.772   1.824  19.970  0.00  0.00    +0.000 F 
ATOM     13  F   UNL     1       3.004   1.270  18.835  0.00  0.00    +0.000 F 
ATOM     14  F   UNL     1       4.530   2.524  17.926  0.00  0.00    +0.000 F 
ENDBRANCH   8  11
ENDBRANCH   3   5
BRANCH   2  15
ATOM     15  C   UNL     1       0.556   9.358  21.047  0.00  0.00    +0.000 A 
ATOM     16  C   UNL     1       0.117   9.135  22.354  0.00  0.00    +0.000 A 
ATOM     17  C   UNL     1      -0.584  10.131  23.036  0.00  0.00    +0.000 A 
ATOM     18  C   UNL     1      -0.866  11.370  22.430  0.00  0.00    +0.000 A 
ATOM     19  C   UNL     1      -0.445  11.554  21.098  0.00  0.00    +0.000 A 
ATOM     20  C   UNL     1       0.258  10.562  20.407  0.00  0.00    +0.000 A 
BRANCH  18  21
ATOM     21  C   UNL     1      -1.583  12.441  23.150  0.00  0.00    +0.000 A 
ATOM     22  C   UNL     1      -2.940  12.361  23.459  0.00  0.00    +0.000 A 
ATOM     23  C   UNL     1      -3.549  13.412  24.142  0.00  0.00    +0.000 A 
ATOM     24  C   UNL     1      -2.789  14.515  24.504  0.00  0.00    +0.000 A 
ATOM     25  C   UNL     1      -1.447  14.518  24.172  0.00  0.00    +0.000 A 
ATOM     26  N   UNL     1      -0.832  13.511  23.515  0.00  0.00    +0.000 NA
ENDBRANCH  18  21
ENDBRANCH   2  15
TORSDOF 4
ENDMDL
MODEL 6
REMARK VINA RESULT:      -7.7      0.735      1.042
REMARK  Name = 
REMARK  4 active torsions:
REMARK  status: ('A' for Active; 'I' for Inactive)
REMARK    1  A    between atoms: C_2  and  C_14
REMARK    2  A    between atoms: N_3  and  C_4
REMARK    3  A    between atoms: C_7  and  C_8
REMARK    4  A    between atoms: C_17  and  C_18
REMARK                            x       y       z     vdW  Elec       q    Type
REMARK                         _______ _______ _______ _____ _____    ______ ____
ROOT
ATOM      1  O   UNL     1       1.790   8.702  19.396  0.00  0.00    +0.000 OA
ATOM      2  C   UNL     1       1.235   8.341  20.428  0.00  0.00    +0.000 C 
ATOM      3  N   UNL     1       1.201   7.058  20.947  0.00  0.00    +0.000 N 
ATOM      4  H   UNL     1       0.534   6.873  21.684  0.00  0.00    +0.000 HD
ENDROOT
BRANCH   3   5
ATOM      5  C   UNL     1       1.903   5.947  20.440  0.00  0.00    +0.000 A 
ATOM      6  C   UNL     1       2.862   6.051  19.433  0.00  0.00    +0.000 A 
ATOM      7  C   UNL     1       3.530   4.919  18.963  0.00  0.00    +0.000 A 
ATOM      8  C   UNL     1       3.252   3.657  19.495  0.00  0.00    +0.000 A 
ATOM      9  C   UNL     1       2.290   3.551  20.512  0.00  0.00    +0.000 A 
ATOM     10  C   UNL     1       1.629   4.689  20.987  0.00  0.00    +0.000 A 
BRANCH   8  11
ATOM     11  C   UNL     1       3.979   2.435  18.993  0.00  0.00    +0.000 C 
ATOM     12  F   UNL     1       3.148   1.423  18.614  0.00  0.00    +0.000 F 
ATOM     13  F   UNL     1       4.757   2.703  17.909  0.00  0.00    +0.000 F 
ATOM     14  F   UNL     1       4.812   1.901  19.929  0.00  0.00    +0.000 F 
ENDBRANCH   8  11
ENDBRANCH   3   5
BRANCH   2  15
ATOM     15  C   UNL     1       0.447   9.345  21.180  0.00  0.00    +0.000 A 
ATOM     16  C   UNL     1       0.084  10.522  20.522  0.00  0.00    +0.000 A 
ATOM     17  C   UNL     1      -0.661  11.496  21.189  0.00  0.00    +0.000 A 
ATOM     18  C   UNL     1      -1.058  11.320  22.528  0.00  0.00    +0.000 A 
ATOM     19  C   UNL     1      -0.646  10.142  23.180  0.00  0.00    +0.000 A 
ATOM     20  C   UNL     1       0.101   9.161  22.520  0.00  0.00    +0.000 A 
BRANCH  18  21
ATOM     21  C   UNL     1      -1.868  12.331  23.236  0.00  0.00    +0.000 A 
ATOM     22  C   UNL     1      -1.401  13.616  23.505  0.00  0.00    +0.000 A 
ATOM     23  C   UNL     1      -2.224  14.517  24.177  0.00  0.00    +0.000 A 
ATOM     24  C   UNL     1      -3.495  14.116  24.562  0.00  0.00    +0.000 A 
ATOM     25  C   UNL     1      -3.893  12.829  24.252  0.00  0.00    +0.000 A 
ATOM     26  N   UNL     1      -3.117  11.938  23.597  0.00  0.00    +0.000 NA
ENDBRANCH  18  21
ENDBRANCH   2  15
TORSDOF 4
ENDMDL
MODEL 7
REMARK VINA RESULT:      -7.7      2.355      3.238
REMARK  Name = 
REMARK  4 active torsions:
REMARK  status: ('A' for Active; 'I' for Inactive)
REMARK    1  A    between atoms: C_2  and  C_14
REMARK    2  A    between atoms: N_3  and  C_4
REMARK    3  A    between atoms: C_7  and  C_8
REMARK    4  A    between atoms: C_17  and  C_18
REMARK                            x       y       z     vdW  Elec       q    Type
REMARK                         _______ _______ _______ _____ _____    ______ ____
ROOT
ATOM      1  O   UNL     1       2.272   9.237  17.062  0.00  0.00    +0.000 OA
ATOM      2  C   UNL     1       2.037   8.734  18.154  0.00  0.00    +0.000 C 
ATOM      3  N   UNL     1       2.491   7.512  18.620  0.00  0.00    +0.000 N 
ATOM      4  H   UNL     1       2.047   7.136  19.448  0.00  0.00    +0.000 HD
ENDROOT
BRANCH   3   5
ATOM      5  C   UNL     1       3.409   6.672  17.963  0.00  0.00    +0.000 A 
ATOM      6  C   UNL     1       3.195   5.305  17.784  0.00  0.00    +0.000 A 
ATOM      7  C   UNL     1       4.137   4.513  17.127  0.00  0.00    +0.000 A 
ATOM      8  C   UNL     1       5.317   5.076  16.630  0.00  0.00    +0.000 A 
ATOM      9  C   UNL     1       5.532   6.452  16.804  0.00  0.00    +0.000 A 
ATOM     10  C   UNL     1       4.581   7.244  17.456  0.00  0.00    +0.000 A 
BRANCH   8  11
ATOM     11  C   UNL     1       6.331   4.222  15.912  0.00  0.00    +0.000 C 
ATOM     12  F   UNL     1       7.505   4.085  16.590  0.00  0.00    +0.000 F 
ATOM     13  F   UNL     1       5.880   2.957  15.690  0.00  0.00    +0.000 F 
ATOM     14  F   UNL     1       6.663   4.722  14.690  0.00  0.00    +0.000 F 
ENDBRANCH   8  11
ENDBRANCH   3   5
BRANCH   2  15
ATOM     15  C   UNL     1       1.111   9.449  19.063  0.00  0.00    +0.000 A 
ATOM     16  C   UNL     1       0.386  10.526  18.548  0.00  0.00    +0.000 A 
ATOM     17  C   UNL     1      -0.501  11.229  19.366  0.00  0.00    +0.000 A 
ATOM     18  C   UNL     1      -0.683  10.876  20.717  0.00  0.00    +0.000 A 
ATOM     19  C   UNL     1       0.089   9.811  21.221  0.00  0.00    +0.000 A 
ATOM     20  C   UNL     1       0.980   9.101  20.409  0.00  0.00    +0.000 A 
BRANCH  18  21
ATOM     21  C   UNL     1      -1.636  11.595  21.584  0.00  0.00    +0.000 A 
ATOM     22  C   UNL     1      -1.650  11.449  22.970  0.00  0.00    +0.000 A 
ATOM     23  C   UNL     1      -2.580  12.162  23.724  0.00  0.00    +0.000 A 
ATOM     24  C   UNL     1      -3.472  13.005  23.077  0.00  0.00    +0.000 A 
ATOM     25  C   UNL     1      -3.392  13.106  21.701  0.00  0.00    +0.000 A 
ATOM     26  N   UNL     1      -2.497  12.430  20.947  0.00  0.00    +0.000 NA
ENDBRANCH  18  21
ENDBRANCH   2  15
TORSDOF 4
ENDMDL
MODEL 8
REMARK VINA RESULT:      -7.6      2.450      3.336
REMARK  Name = 
REMARK  4 active torsions:
REMARK  status: ('A' for Active; 'I' for Inactive)
REMARK    1  A    between atoms: C_2  and  C_14
REMARK    2  A    between atoms: N_3  and  C_4
REMARK    3  A    between atoms: C_7  and  C_8
REMARK    4  A    between atoms: C_17  and  C_18
REMARK                            x       y       z     vdW  Elec       q    Type
REMARK                         _______ _______ _______ _____ _____    ______ ____
ROOT
ATOM      1  O   UNL     1       2.315   6.341  20.385  0.00  0.00    +0.000 OA
ATOM      2  C   UNL     1       2.135   7.329  19.684  0.00  0.00    +0.000 C 
ATOM      3  N   UNL     1       2.720   7.596  18.459  0.00  0.00    +0.000 N 
ATOM      4  H   UNL     1       2.640   8.538  18.100  0.00  0.00    +0.000 HD
ENDROOT
BRANCH   3   5
ATOM      5  C   UNL     1       3.547   6.716  17.734  0.00  0.00    +0.000 A 
ATOM      6  C   UNL     1       3.341   5.337  17.698  0.00  0.00    +0.000 A 
ATOM      7  C   UNL     1       4.190   4.506  16.966  0.00  0.00    +0.000 A 
ATOM      8  C   UNL     1       5.266   5.041  16.250  0.00  0.00    +0.000 A 
ATOM      9  C   UNL     1       5.472   6.429  16.281  0.00  0.00    +0.000 A 
ATOM     10  C   UNL     1       4.613   7.260  17.009  0.00  0.00    +0.000 A 
BRANCH   8  11
ATOM     11  C   UNL     1       6.178   4.145  15.452  0.00  0.00    +0.000 C 
ATOM     12  F   UNL     1       7.491   4.255  15.800  0.00  0.00    +0.000 F 
ATOM     13  F   UNL     1       5.865   2.827  15.593  0.00  0.00    +0.000 F 
ATOM     14  F   UNL     1       6.125   4.401  14.116  0.00  0.00    +0.000 F 
ENDBRANCH   8  11
ENDBRANCH   3   5
BRANCH   2  15
ATOM     15  C   UNL     1       1.262   8.404  20.211  0.00  0.00    +0.000 A 
ATOM     16  C   UNL     1       1.009   9.506  19.392  0.00  0.00    +0.000 A 
ATOM     17  C   UNL     1       0.190  10.542  19.844  0.00  0.00    +0.000 A 
ATOM     18  C   UNL     1      -0.393  10.505  21.125  0.00  0.00    +0.000 A 
ATOM     19  C   UNL     1      -0.090   9.401  21.946  0.00  0.00    +0.000 A 
ATOM     20  C   UNL     1       0.729   8.358  21.501  0.00  0.00    +0.000 A 
BRANCH  18  21
ATOM     21  C   UNL     1      -1.281  11.582  21.605  0.00  0.00    +0.000 A 
ATOM     22  C   UNL     1      -1.478  11.849  22.959  0.00  0.00    +0.000 A 
ATOM     23  C   UNL     1      -2.331  12.883  23.335  0.00  0.00    +0.000 A 
ATOM     24  C   UNL     1      -2.966  13.628  22.353  0.00  0.00    +0.000 A 
ATOM     25  C   UNL     1      -2.716  13.312  21.031  0.00  0.00    +0.000 A 
ATOM     26  N   UNL     1      -1.889  12.318  20.639  0.00  0.00    +0.000 NA
ENDBRANCH  18  21
ENDBRANCH   2  15
TORSDOF 4
ENDMDL
MODEL 9
REMARK VINA RESULT:      -7.5      0.926      1.587
REMARK  Name = 
REMARK  4 active torsions:
REMARK  status: ('A' for Active; 'I' for Inactive)
REMARK    1  A    between atoms: C_2  and  C_14
REMARK    2  A    between atoms: N_3  and  C_4
REMARK    3  A    between atoms: C_7  and  C_8
REMARK    4  A    between atoms: C_17  and  C_18
REMARK                            x       y       z     vdW  Elec       q    Type
REMARK                         _______ _______ _______ _____ _____    ______ ____
ROOT
ATOM      1  O   UNL     1       1.452   9.186  19.067  0.00  0.00    +0.000 OA
ATOM      2  C   UNL     1       1.050   8.836  20.170  0.00  0.00    +0.000 C 
ATOM      3  N   UNL     1       1.226   7.598  20.764  0.00  0.00    +0.000 N 
ATOM      4  H   UNL     1       0.663   7.388  21.577  0.00  0.00    +0.000 HD
ENDROOT
BRANCH   3   5
ATOM      5  C   UNL     1       2.008   6.545  20.251  0.00  0.00    +0.000 A 
ATOM      6  C   UNL     1       2.929   6.716  19.218  0.00  0.00    +0.000 A 
ATOM      7  C   UNL     1       3.679   5.639  18.744  0.00  0.00    +0.000 A 
ATOM      8  C   UNL     1       3.525   4.365  19.298  0.00  0.00    +0.000 A 
ATOM      9  C   UNL     1       2.603   4.192  20.342  0.00  0.00    +0.000 A 
ATOM     10  C   UNL     1       1.858   5.276  20.821  0.00  0.00    +0.000 A 
BRANCH   8  11
ATOM     11  C   UNL     1       4.341   3.203  18.792  0.00  0.00    +0.000 C 
ATOM     12  F   UNL     1       4.421   2.168  19.674  0.00  0.00    +0.000 F 
ATOM     13  F   UNL     1       3.835   2.675  17.644  0.00  0.00    +0.000 F 
ATOM     14  F   UNL     1       5.627   3.552  18.509  0.00  0.00    +0.000 F 
ENDBRANCH   8  11
ENDBRANCH   3   5
BRANCH   2  15
ATOM     15  C   UNL     1       0.220   9.791  20.941  0.00  0.00    +0.000 A 
ATOM     16  C   UNL     1      -0.044   9.498  22.281  0.00  0.00    +0.000 A 
ATOM     17  C   UNL     1      -0.818  10.371  23.049  0.00  0.00    +0.000 A 
ATOM     18  C   UNL     1      -1.349  11.552  22.498  0.00  0.00    +0.000 A 
ATOM     19  C   UNL     1      -1.099  11.804  21.134  0.00  0.00    +0.000 A 
ATOM     20  C   UNL     1      -0.325  10.936  20.357  0.00  0.00    +0.000 A 
BRANCH  18  21
ATOM     21  C   UNL     1      -2.146  12.495  23.306  0.00  0.00    +0.000 A 
ATOM     22  C   UNL     1      -1.709  13.783  23.610  0.00  0.00    +0.000 A 
ATOM     23  C   UNL     1      -2.519  14.617  24.378  0.00  0.00    +0.000 A 
ATOM     24  C   UNL     1      -3.746  14.147  24.823  0.00  0.00    +0.000 A 
ATOM     25  C   UNL     1      -4.116  12.862  24.474  0.00  0.00    +0.000 A 
ATOM     26  N   UNL     1      -3.353  12.035  23.726  0.00  0.00    +0.000 NA
ENDBRANCH  18  21
ENDBRANCH   2  15
TORSDOF 4
ENDMDL
