MODEL 1
REMARK VINA RESULT:      -7.5      0.000      0.000
REMARK  Name = 
REMARK  11 active torsions:
REMARK  status: ('A' for Active; 'I' for Inactive)
REMARK    1  A    between atoms: C_1  and  C_2
REMARK    2  A    between atoms: C_2  and  N_3
REMARK    3  A    between atoms: C_7  and  C_8
REMARK    4  A    between atoms: C_11  and  O_12
REMARK    5  A    between atoms: O_12  and  C_13
REMARK    6  A    between atoms: C_14  and  S_15
REMARK    7  A    between atoms: S_15  and  N_18
REMARK    8  A    between atoms: N_18  and  C_19
REMARK    9  A    between atoms: C_22  and  C_23
REMARK   10  A    between atoms: C_23  and  O_25
REMARK   11  A    between atoms: O_25  and  C_26
REMARK                            x       y       z     vdW  Elec       q    Type
REMARK                         _______ _______ _______ _____ _____    ______ ____
ROOT
ATOM      1  C   UNL     1       2.781   6.782  19.084  0.00  0.00    +0.000 A 
ATOM      2  C   UNL     1       2.651   7.385  17.836  0.00  0.00    +0.000 A 
ATOM      3  C   UNL     1       1.938   8.563  17.725  0.00  0.00    +0.000 A 
ATOM      4  C   UNL     1       1.336   9.199  18.802  0.00  0.00    +0.000 A 
ATOM      5  C   UNL     1       1.391   8.556  20.059  0.00  0.00    +0.000 A 
ATOM      6  C   UNL     1       2.129   7.367  20.177  0.00  0.00    +0.000 A 
ENDROOT
BRANCH   1  11
ATOM      7  N   UNL     1       3.181   4.287  19.260  0.00  0.00    +0.000 N 
ATOM      8  N   UNL     1       4.218   3.475  19.520  0.00  0.00    +0.000 NA
ATOM      9  N   UNL     1       5.281   4.260  19.549  0.00  0.00    +0.000 NA
ATOM     10  N   UNL     1       4.928   5.569  19.353  0.00  0.00    +0.000 NA
ATOM     11  C   UNL     1       3.615   5.591  19.204  0.00  0.00    +0.000 A 
BRANCH   7  13
ATOM     12  C   UNL     1       1.065   3.641  20.418  0.00  0.00    +0.000 C 
ATOM     13  C   UNL     1       1.841   3.764  19.125  0.00  0.00    +0.000 C 
ENDBRANCH   7  13
ENDBRANCH   1  11
BRANCH   5  14
ATOM     14  S   UNL     1       0.697   9.257  21.559  0.00  0.00    +0.000 S 
ATOM     15  O   UNL     1      -0.643   8.665  21.723  0.00  0.00    +0.000 OA
ATOM     16  O   UNL     1       1.685   9.107  22.585  0.00  0.00    +0.000 OA
BRANCH  14  17
ATOM     17  N   UNL     1       0.469  10.913  21.281  0.00  0.00    +0.000 N 
ATOM     18  H   UNL     1       0.887  11.224  20.405  0.00  0.00    +0.000 HD
BRANCH  17  19
ATOM     19  C   UNL     1      -0.795  11.459  21.622  0.00  0.00    +0.000 A 
ATOM     20  C   UNL     1      -1.610  12.010  20.630  0.00  0.00    +0.000 A 
ATOM     21  C   UNL     1      -2.821  12.609  20.989  0.00  0.00    +0.000 A 
ATOM     22  C   UNL     1      -3.234  12.655  22.324  0.00  0.00    +0.000 A 
ATOM     23  C   UNL     1      -2.412  12.097  23.311  0.00  0.00    +0.000 A 
ATOM     24  C   UNL     1      -1.196  11.513  22.955  0.00  0.00    +0.000 A 
BRANCH  22  25
ATOM     25  C   UNL     1      -4.542  13.296  22.635  0.00  0.00    +0.000 C 
ATOM     26  O   UNL     1      -4.715  14.494  22.612  0.00  0.00    +0.000 OA
BRANCH  25  27
ATOM     27  O   UNL     1      -5.492  12.362  22.932  0.00  0.00    +0.000 OA
ATOM     28  C   UNL     1      -6.172  12.614  24.163  0.00  0.00    +0.000 C 
ENDBRANCH  25  27
ENDBRANCH  22  25
ENDBRANCH  17  19
ENDBRANCH  14  17
ENDBRANCH   5  14
BRANCH   4  29
ATOM     29  O   UNL     1       0.687  10.394  18.552  0.00  0.00    +0.000 OA
ATOM     30  C   UNL     1      -0.618  10.268  17.923  0.00  0.00    +0.000 C 
ENDBRANCH   4  29
TORSDOF 8
ENDMDL
MODEL 2
REMARK VINA RESULT:      -7.4      0.735      1.184
REMARK  Name = 
REMARK  11 active torsions:
REMARK  status: ('A' for Active; 'I' for Inactive)
REMARK    1  A    between atoms: C_1  and  C_2
REMARK    2  A    between atoms: C_2  and  N_3
REMARK    3  A    between atoms: C_7  and  C_8
REMARK    4  A    between atoms: C_11  and  O_12
REMARK    5  A    between atoms: O_12  and  C_13
REMARK    6  A    between atoms: C_14  and  S_15
REMARK    7  A    between atoms: S_15  and  N_18
REMARK    8  A    between atoms: N_18  and  C_19
REMARK    9  A    between atoms: C_22  and  C_23
REMARK   10  A    between atoms: C_23  and  O_25
REMARK   11  A    between atoms: O_25  and  C_26
REMARK                            x       y       z     vdW  Elec       q    Type
REMARK                         _______ _______ _______ _____ _____    ______ ____
ROOT
ATOM      1  C   UNL     1       2.674   6.948  19.047  0.00  0.00    +0.000 A 
ATOM      2  C   UNL     1       2.666   7.649  17.844  0.00  0.00    +0.000 A 
ATOM      3  C   UNL     1       2.068   8.894  17.790  0.00  0.00    +0.000 A 
ATOM      4  C   UNL     1       1.468   9.503  18.883  0.00  0.00    +0.000 A 
ATOM      5  C   UNL     1       1.397   8.769  20.088  0.00  0.00    +0.000 A 
ATOM      6  C   UNL     1       2.019   7.511  20.149  0.00  0.00    +0.000 A 
ENDROOT
BRANCH   1  11
ATOM      7  N   UNL     1       2.833   4.423  19.169  0.00  0.00    +0.000 N 
ATOM      8  N   UNL     1       3.795   3.509  19.374  0.00  0.00    +0.000 NA
ATOM      9  N   UNL     1       4.930   4.186  19.372  0.00  0.00    +0.000 NA
ATOM     10  N   UNL     1       4.700   5.527  19.210  0.00  0.00    +0.000 NA
ATOM     11  C   UNL     1       3.391   5.679  19.115  0.00  0.00    +0.000 A 
BRANCH   7  13
ATOM     12  C   UNL     1       0.855   3.461  20.350  0.00  0.00    +0.000 C 
ATOM     13  C   UNL     1       1.445   4.036  19.080  0.00  0.00    +0.000 C 
ENDBRANCH   7  13
ENDBRANCH   1  11
BRANCH   5  14
ATOM     14  S   UNL     1       0.688   9.422  21.602  0.00  0.00    +0.000 S 
ATOM     15  O   UNL     1      -0.650   8.817  21.739  0.00  0.00    +0.000 OA
ATOM     16  O   UNL     1       1.669   9.248  22.631  0.00  0.00    +0.000 OA
BRANCH  14  17
ATOM     17  N   UNL     1       0.451  11.084  21.372  0.00  0.00    +0.000 N 
ATOM     18  H   UNL     1       0.889  11.426  20.517  0.00  0.00    +0.000 HD
BRANCH  17  19
ATOM     19  C   UNL     1      -0.825  11.608  21.697  0.00  0.00    +0.000 A 
ATOM     20  C   UNL     1      -1.279  11.578  23.017  0.00  0.00    +0.000 A 
ATOM     21  C   UNL     1      -2.568  12.032  23.313  0.00  0.00    +0.000 A 
ATOM     22  C   UNL     1      -3.406  12.526  22.308  0.00  0.00    +0.000 A 
ATOM     23  C   UNL     1      -2.941  12.556  20.987  0.00  0.00    +0.000 A 
ATOM     24  C   UNL     1      -1.660  12.088  20.690  0.00  0.00    +0.000 A 
BRANCH  22  25
ATOM     25  C   UNL     1      -4.762  13.006  22.695  0.00  0.00    +0.000 C 
ATOM     26  O   UNL     1      -4.946  13.921  23.466  0.00  0.00    +0.000 OA
BRANCH  25  27
ATOM     27  O   UNL     1      -5.737  12.290  22.064  0.00  0.00    +0.000 OA
ATOM     28  C   UNL     1      -7.049  12.821  22.259  0.00  0.00    +0.000 C 
ENDBRANCH  25  27
ENDBRANCH  22  25
ENDBRANCH  17  19
ENDBRANCH  14  17
ENDBRANCH   5  14
BRANCH   4  29
ATOM     29  O   UNL     1       0.942  10.768  18.694  0.00  0.00    +0.000 OA
ATOM     30  C   UNL     1       1.915  11.802  18.384  0.00  0.00    +0.000 C 
ENDBRANCH   4  29
TORSDOF 8
ENDMDL
MODEL 3
REMARK VINA RESULT:      -7.3      0.515      1.215
REMARK  Name = 
REMARK  11 active torsions:
REMARK  status: ('A' for Active; 'I' for Inactive)
REMARK    1  A    between atoms: C_1  and  C_2
REMARK    2  A    between atoms: C_2  and  N_3
REMARK    3  A    between atoms: C_7  and  C_8
REMARK    4  A    between atoms: C_11  and  O_12
REMARK    5  A    between atoms: O_12  and  C_13
REMARK    6  A    between atoms: C_14  and  S_15
REMARK    7  A    between atoms: S_15  and  N_18
REMARK    8  A    between atoms: N_18  and  C_19
REMARK    9  A    between atoms: C_22  and  C_23
REMARK   10  A    between atoms: C_23  and  O_25
REMARK   11  A    between atoms: O_25  and  C_26
REMARK                            x       y       z     vdW  Elec       q    Type
REMARK                         _______ _______ _______ _____ _____    ______ ____
ROOT
ATOM      1  C   UNL     1       2.660   6.782  19.189  0.00  0.00    +0.000 A 
ATOM      2  C   UNL     1       2.536   7.371  17.934  0.00  0.00    +0.000 A 
ATOM      3  C   UNL     1       1.868   8.574  17.813  0.00  0.00    +0.000 A 
ATOM      4  C   UNL     1       1.307   9.250  18.888  0.00  0.00    +0.000 A 
ATOM      5  C   UNL     1       1.355   8.625  20.154  0.00  0.00    +0.000 A 
ATOM      6  C   UNL     1       2.047   7.409  20.281  0.00  0.00    +0.000 A 
ENDROOT
BRANCH   1  11
ATOM      7  N   UNL     1       2.981   4.316  19.667  0.00  0.00    +0.000 N 
ATOM      8  N   UNL     1       4.015   3.473  19.828  0.00  0.00    +0.000 NA
ATOM      9  N   UNL     1       5.090   4.171  19.509  0.00  0.00    +0.000 NA
ATOM     10  N   UNL     1       4.759   5.462  19.188  0.00  0.00    +0.000 NA
ATOM     11  C   UNL     1       3.448   5.561  19.317  0.00  0.00    +0.000 A 
BRANCH   7  13
ATOM     12  C   UNL     1       1.436   2.968  21.093  0.00  0.00    +0.000 C 
ATOM     13  C   UNL     1       1.624   3.881  19.901  0.00  0.00    +0.000 C 
ENDBRANCH   7  13
ENDBRANCH   1  11
BRANCH   5  14
ATOM     14  S   UNL     1       0.710   9.376  21.651  0.00  0.00    +0.000 S 
ATOM     15  O   UNL     1      -0.633   8.807  21.867  0.00  0.00    +0.000 OA
ATOM     16  O   UNL     1       1.723   9.240  22.655  0.00  0.00    +0.000 OA
BRANCH  14  17
ATOM     17  N   UNL     1       0.496  11.027  21.335  0.00  0.00    +0.000 N 
ATOM     18  H   UNL     1       0.912  11.311  20.449  0.00  0.00    +0.000 HD
BRANCH  17  19
ATOM     19  C   UNL     1      -0.760  11.593  21.669  0.00  0.00    +0.000 A 
ATOM     20  C   UNL     1      -1.190  11.608  22.998  0.00  0.00    +0.000 A 
ATOM     21  C   UNL     1      -2.462  12.104  23.305  0.00  0.00    +0.000 A 
ATOM     22  C   UNL     1      -3.304  12.595  22.302  0.00  0.00    +0.000 A 
ATOM     23  C   UNL     1      -2.863  12.578  20.973  0.00  0.00    +0.000 A 
ATOM     24  C   UNL     1      -1.601  12.069  20.665  0.00  0.00    +0.000 A 
BRANCH  22  25
ATOM     25  C   UNL     1      -4.639  13.121  22.700  0.00  0.00    +0.000 C 
ATOM     26  O   UNL     1      -5.580  12.407  22.965  0.00  0.00    +0.000 OA
BRANCH  25  27
ATOM     27  O   UNL     1      -4.644  14.485  22.731  0.00  0.00    +0.000 OA
ATOM     28  C   UNL     1      -5.475  15.028  23.759  0.00  0.00    +0.000 C 
ENDBRANCH  25  27
ENDBRANCH  22  25
ENDBRANCH  17  19
ENDBRANCH  14  17
ENDBRANCH   5  14
BRANCH   4  29
ATOM     29  O   UNL     1       0.702  10.465  18.627  0.00  0.00    +0.000 OA
ATOM     30  C   UNL     1      -0.553  10.387  17.898  0.00  0.00    +0.000 C 
ENDBRANCH   4  29
TORSDOF 8
ENDMDL
MODEL 4
REMARK VINA RESULT:      -7.2      3.485      5.662
REMARK  Name = 
REMARK  11 active torsions:
REMARK  status: ('A' for Active; 'I' for Inactive)
REMARK    1  A    between atoms: C_1  and  C_2
REMARK    2  A    between atoms: C_2  and  N_3
REMARK    3  A    between atoms: C_7  and  C_8
REMARK    4  A    between atoms: C_11  and  O_12
REMARK    5  A    between atoms: O_12  and  C_13
REMARK    6  A    between atoms: C_14  and  S_15
REMARK    7  A    between atoms: S_15  and  N_18
REMARK    8  A    between atoms: N_18  and  C_19
REMARK    9  A    between atoms: C_22  and  C_23
REMARK   10  A    between atoms: C_23  and  O_25
REMARK   11  A    between atoms: O_25  and  C_26
REMARK                            x       y       z     vdW  Elec       q    Type
REMARK                         _______ _______ _______ _____ _____    ______ ____
ROOT
ATOM      1  C   UNL     1       4.933   3.968  17.389  0.00  0.00    +0.000 A 
ATOM      2  C   UNL     1       4.642   2.619  17.207  0.00  0.00    +0.000 A 
ATOM      3  C   UNL     1       3.614   2.044  17.930  0.00  0.00    +0.000 A 
ATOM      4  C   UNL     1       2.834   2.744  18.840  0.00  0.00    +0.000 A 
ATOM      5  C   UNL     1       3.171   4.092  19.094  0.00  0.00    +0.000 A 
ATOM      6  C   UNL     1       4.205   4.682  18.349  0.00  0.00    +0.000 A 
ENDROOT
BRANCH   1  11
ATOM      7  N   UNL     1       6.762   5.647  16.889  0.00  0.00    +0.000 N 
ATOM      8  N   UNL     1       7.475   6.032  15.818  0.00  0.00    +0.000 NA
ATOM      9  N   UNL     1       7.167   5.173  14.862  0.00  0.00    +0.000 NA
ATOM     10  N   UNL     1       6.233   4.270  15.299  0.00  0.00    +0.000 NA
ATOM     11  C   UNL     1       5.957   4.584  16.552  0.00  0.00    +0.000 A 
BRANCH   7  13
ATOM     12  C   UNL     1       7.736   5.673  19.188  0.00  0.00    +0.000 C 
ATOM     13  C   UNL     1       6.871   6.349  18.146  0.00  0.00    +0.000 C 
ENDBRANCH   7  13
ENDBRANCH   1  11
BRANCH   5  14
ATOM     14  S   UNL     1       2.245   5.147  20.213  0.00  0.00    +0.000 S 
ATOM     15  O   UNL     1       0.889   5.276  19.650  0.00  0.00    +0.000 OA
ATOM     16  O   UNL     1       2.433   4.622  21.533  0.00  0.00    +0.000 OA
BRANCH  14  17
ATOM     17  N   UNL     1       2.949   6.687  20.151  0.00  0.00    +0.000 N 
ATOM     18  H   UNL     1       3.843   6.689  19.661  0.00  0.00    +0.000 HD
BRANCH  17  19
ATOM     19  C   UNL     1       2.083   7.786  19.916  0.00  0.00    +0.000 A 
ATOM     20  C   UNL     1       1.255   8.256  20.937  0.00  0.00    +0.000 A 
ATOM     21  C   UNL     1       0.355   9.293  20.672  0.00  0.00    +0.000 A 
ATOM     22  C   UNL     1       0.280   9.874  19.402  0.00  0.00    +0.000 A 
ATOM     23  C   UNL     1       1.117   9.398  18.385  0.00  0.00    +0.000 A 
ATOM     24  C   UNL     1       2.004   8.353  18.646  0.00  0.00    +0.000 A 
BRANCH  22  25
ATOM     25  C   UNL     1      -0.691  10.983  19.192  0.00  0.00    +0.000 C 
ATOM     26  O   UNL     1      -0.910  11.838  20.020  0.00  0.00    +0.000 OA
BRANCH  25  27
ATOM     27  O   UNL     1      -1.275  10.901  17.961  0.00  0.00    +0.000 OA
ATOM     28  C   UNL     1      -2.624  11.371  17.939  0.00  0.00    +0.000 C 
ENDBRANCH  25  27
ENDBRANCH  22  25
ENDBRANCH  17  19
ENDBRANCH  14  17
ENDBRANCH   5  14
BRANCH   4  29
ATOM     29  O   UNL     1       1.813   2.051  19.464  0.00  0.00    +0.000 OA
ATOM     30  C   UNL     1       0.546   2.041  18.750  0.00  0.00    +0.000 C 
ENDBRANCH   4  29
TORSDOF 8
ENDMDL
MODEL 5
REMARK VINA RESULT:      -7.2      3.705      5.667
REMARK  Name = 
REMARK  11 active torsions:
REMARK  status: ('A' for Active; 'I' for Inactive)
REMARK    1  A    between atoms: C_1  and  C_2
REMARK    2  A    between atoms: C_2  and  N_3
REMARK    3  A    between atoms: C_7  and  C_8
REMARK    4  A    between atoms: C_11  and  O_12
REMARK    5  A    between atoms: O_12  and  C_13
REMARK    6  A    between atoms: C_14  and  S_15
REMARK    7  A    between atoms: S_15  and  N_18
REMARK    8  A    between atoms: N_18  and  C_19
REMARK    9  A    between atoms: C_22  and  C_23
REMARK   10  A    between atoms: C_23  and  O_25
REMARK   11  A    between atoms: O_25  and  C_26
REMARK                            x       y       z     vdW  Elec       q    Type
REMARK                         _______ _______ _______ _____ _____    ______ ____
ROOT
ATOM      1  C   UNL     1       4.886   4.422  17.659  0.00  0.00    +0.000 A 
ATOM      2  C   UNL     1       4.651   3.117  17.235  0.00  0.00    +0.000 A 
ATOM      3  C   UNL     1       3.638   2.385  17.824  0.00  0.00    +0.000 A 
ATOM      4  C   UNL     1       2.819   2.882  18.828  0.00  0.00    +0.000 A 
ATOM      5  C   UNL     1       3.099   4.176  19.324  0.00  0.00    +0.000 A 
ATOM      6  C   UNL     1       4.118   4.926  18.716  0.00  0.00    +0.000 A 
ENDROOT
BRANCH   1  11
ATOM      7  N   UNL     1       6.550   4.874  15.803  0.00  0.00    +0.000 N 
ATOM      8  N   UNL     1       7.512   5.774  15.545  0.00  0.00    +0.000 NA
ATOM      9  N   UNL     1       7.398   6.691  16.490  0.00  0.00    +0.000 NA
ATOM     10  N   UNL     1       6.404   6.363  17.374  0.00  0.00    +0.000 NA
ATOM     11  C   UNL     1       5.895   5.214  16.964  0.00  0.00    +0.000 A 
BRANCH   7  13
ATOM     12  C   UNL     1       5.808   4.042  13.569  0.00  0.00    +0.000 C 
ATOM     13  C   UNL     1       6.352   3.729  14.945  0.00  0.00    +0.000 C 
ENDBRANCH   7  13
ENDBRANCH   1  11
BRANCH   5  14
ATOM     14  S   UNL     1       2.118   4.980  20.594  0.00  0.00    +0.000 S 
ATOM     15  O   UNL     1       0.748   5.097  20.062  0.00  0.00    +0.000 OA
ATOM     16  O   UNL     1       2.360   4.275  21.817  0.00  0.00    +0.000 OA
BRANCH  14  17
ATOM     17  N   UNL     1       2.712   6.557  20.766  0.00  0.00    +0.000 N 
ATOM     18  H   UNL     1       3.721   6.611  20.633  0.00  0.00    +0.000 HD
BRANCH  17  19
ATOM     19  C   UNL     1       1.932   7.607  20.217  0.00  0.00    +0.000 A 
ATOM     20  C   UNL     1       2.093   7.973  18.879  0.00  0.00    +0.000 A 
ATOM     21  C   UNL     1       1.370   9.056  18.369  0.00  0.00    +0.000 A 
ATOM     22  C   UNL     1       0.479   9.770  19.177  0.00  0.00    +0.000 A 
ATOM     23  C   UNL     1       0.322   9.394  20.516  0.00  0.00    +0.000 A 
ATOM     24  C   UNL     1       1.055   8.323  21.029  0.00  0.00    +0.000 A 
BRANCH  22  25
ATOM     25  C   UNL     1      -0.269  10.905  18.566  0.00  0.00    +0.000 C 
ATOM     26  O   UNL     1       0.001  12.066  18.777  0.00  0.00    +0.000 OA
BRANCH  25  27
ATOM     27  O   UNL     1      -1.268  10.456  17.753  0.00  0.00    +0.000 OA
ATOM     28  C   UNL     1      -2.549  11.005  18.068  0.00  0.00    +0.000 C 
ENDBRANCH  25  27
ENDBRANCH  22  25
ENDBRANCH  17  19
ENDBRANCH  14  17
ENDBRANCH   5  14
BRANCH   4  29
ATOM     29  O   UNL     1       1.819   2.053  19.300  0.00  0.00    +0.000 OA
ATOM     30  C   UNL     1       0.554   2.142  18.589  0.00  0.00    +0.000 C 
ENDBRANCH   4  29
TORSDOF 8
ENDMDL
MODEL 6
REMARK VINA RESULT:      -7.2      3.208      5.567
REMARK  Name = 
REMARK  11 active torsions:
REMARK  status: ('A' for Active; 'I' for Inactive)
REMARK    1  A    between atoms: C_1  and  C_2
REMARK    2  A    between atoms: C_2  and  N_3
REMARK    3  A    between atoms: C_7  and  C_8
REMARK    4  A    between atoms: C_11  and  O_12
REMARK    5  A    between atoms: O_12  and  C_13
REMARK    6  A    between atoms: C_14  and  S_15
REMARK    7  A    between atoms: S_15  and  N_18
REMARK    8  A    between atoms: N_18  and  C_19
REMARK    9  A    between atoms: C_22  and  C_23
REMARK   10  A    between atoms: C_23  and  O_25
REMARK   11  A    between atoms: O_25  and  C_26
REMARK                            x       y       z     vdW  Elec       q    Type
REMARK                         _______ _______ _______ _____ _____    ______ ____
ROOT
ATOM      1  C   UNL     1       4.965   3.959  17.402  0.00  0.00    +0.000 A 
ATOM      2  C   UNL     1       4.672   2.614  17.189  0.00  0.00    +0.000 A 
ATOM      3  C   UNL     1       3.644   2.025  17.900  0.00  0.00    +0.000 A 
ATOM      4  C   UNL     1       2.866   2.704  18.826  0.00  0.00    +0.000 A 
ATOM      5  C   UNL     1       3.205   4.046  19.111  0.00  0.00    +0.000 A 
ATOM      6  C   UNL     1       4.238   4.651  18.378  0.00  0.00    +0.000 A 
ENDROOT
BRANCH   1  11
ATOM      7  N   UNL     1       6.776   5.664  16.927  0.00  0.00    +0.000 N 
ATOM      8  N   UNL     1       7.494   6.065  15.865  0.00  0.00    +0.000 NA
ATOM      9  N   UNL     1       7.206   5.207  14.902  0.00  0.00    +0.000 NA
ATOM     10  N   UNL     1       6.280   4.289  15.325  0.00  0.00    +0.000 NA
ATOM     11  C   UNL     1       5.988   4.592  16.577  0.00  0.00    +0.000 A 
BRANCH   7  13
ATOM     12  C   UNL     1       7.808   5.745  19.199  0.00  0.00    +0.000 C 
ATOM     13  C   UNL     1       6.864   6.360  18.189  0.00  0.00    +0.000 C 
ENDBRANCH   7  13
ENDBRANCH   1  11
BRANCH   5  14
ATOM     14  S   UNL     1       2.281   5.077  20.255  0.00  0.00    +0.000 S 
ATOM     15  O   UNL     1       0.908   5.170  19.727  0.00  0.00    +0.000 OA
ATOM     16  O   UNL     1       2.518   4.557  21.568  0.00  0.00    +0.000 OA
BRANCH  14  17
ATOM     17  N   UNL     1       2.942   6.635  20.175  0.00  0.00    +0.000 N 
ATOM     18  H   UNL     1       3.839   6.654  19.690  0.00  0.00    +0.000 HD
BRANCH  17  19
ATOM     19  C   UNL     1       2.048   7.705  19.920  0.00  0.00    +0.000 A 
ATOM     20  C   UNL     1       1.991   8.283  18.649  0.00  0.00    +0.000 A 
ATOM     21  C   UNL     1       1.158   9.384  18.430  0.00  0.00    +0.000 A 
ATOM     22  C   UNL     1       0.371   9.908  19.461  0.00  0.00    +0.000 A 
ATOM     23  C   UNL     1       0.432   9.321  20.730  0.00  0.00    +0.000 A 
ATOM     24  C   UNL     1       1.276   8.232  20.953  0.00  0.00    +0.000 A 
BRANCH  22  25
ATOM     25  C   UNL     1      -0.504  11.074  19.155  0.00  0.00    +0.000 C 
ATOM     26  O   UNL     1      -1.042  11.235  18.083  0.00  0.00    +0.000 OA
BRANCH  25  27
ATOM     27  O   UNL     1      -0.613  11.906  20.232  0.00  0.00    +0.000 OA
ATOM     28  C   UNL     1      -1.960  12.274  20.532  0.00  0.00    +0.000 C 
ENDBRANCH  25  27
ENDBRANCH  22  25
ENDBRANCH  17  19
ENDBRANCH  14  17
ENDBRANCH   5  14
BRANCH   4  29
ATOM     29  O   UNL     1       1.845   1.999  19.436  0.00  0.00    +0.000 OA
ATOM     30  C   UNL     1       0.557   2.071  18.765  0.00  0.00    +0.000 C 
ENDBRANCH   4  29
TORSDOF 8
ENDMDL
MODEL 7
REMARK VINA RESULT:      -7.2      3.597      5.390
REMARK  Name = 
REMARK  11 active torsions:
REMARK  status: ('A' for Active; 'I' for Inactive)
REMARK    1  A    between atoms: C_1  and  C_2
REMARK    2  A    between atoms: C_2  and  N_3
REMARK    3  A    between atoms: C_7  and  C_8
REMARK    4  A    between atoms: C_11  and  O_12
REMARK    5  A    between atoms: O_12  and  C_13
REMARK    6  A    between atoms: C_14  and  S_15
REMARK    7  A    between atoms: S_15  and  N_18
REMARK    8  A    between atoms: N_18  and  C_19
REMARK    9  A    between atoms: C_22  and  C_23
REMARK   10  A    between atoms: C_23  and  O_25
REMARK   11  A    between atoms: O_25  and  C_26
REMARK                            x       y       z     vdW  Elec       q    Type
REMARK                         _______ _______ _______ _____ _____    ______ ____
ROOT
ATOM      1  C   UNL     1       4.568   5.175  17.467  0.00  0.00    +0.000 A 
ATOM      2  C   UNL     1       4.059   4.206  16.607  0.00  0.00    +0.000 A 
ATOM      3  C   UNL     1       2.892   3.547  16.944  0.00  0.00    +0.000 A 
ATOM      4  C   UNL     1       2.177   3.801  18.105  0.00  0.00    +0.000 A 
ATOM      5  C   UNL     1       2.725   4.724  19.025  0.00  0.00    +0.000 A 
ATOM      6  C   UNL     1       3.902   5.406  18.678  0.00  0.00    +0.000 A 
ENDROOT
BRANCH   1  11
ATOM      7  N   UNL     1       6.753   5.491  16.226  0.00  0.00    +0.000 N 
ATOM      8  N   UNL     1       7.742   6.399  16.195  0.00  0.00    +0.000 NA
ATOM      9  N   UNL     1       7.317   7.408  16.934  0.00  0.00    +0.000 NA
ATOM     10  N   UNL     1       6.086   7.137  17.471  0.00  0.00    +0.000 NA
ATOM     11  C   UNL     1       5.747   5.929  17.056  0.00  0.00    +0.000 A 
BRANCH   7  13
ATOM     12  C   UNL     1       6.570   4.352  14.012  0.00  0.00    +0.000 C 
ATOM     13  C   UNL     1       6.858   4.251  15.494  0.00  0.00    +0.000 C 
ENDBRANCH   7  13
ENDBRANCH   1  11
BRANCH   5  14
ATOM     14  S   UNL     1       1.912   5.192  20.556  0.00  0.00    +0.000 S 
ATOM     15  O   UNL     1       0.467   5.250  20.269  0.00  0.00    +0.000 OA
ATOM     16  O   UNL     1       2.412   4.320  21.577  0.00  0.00    +0.000 OA
BRANCH  14  17
ATOM     17  N   UNL     1       2.402   6.772  20.923  0.00  0.00    +0.000 N 
ATOM     18  H   UNL     1       3.414   6.884  20.892  0.00  0.00    +0.000 HD
BRANCH  17  19
ATOM     19  C   UNL     1       1.619   7.831  20.398  0.00  0.00    +0.000 A 
ATOM     20  C   UNL     1       1.860   8.307  19.107  0.00  0.00    +0.000 A 
ATOM     21  C   UNL     1       1.129   9.398  18.628  0.00  0.00    +0.000 A 
ATOM     22  C   UNL     1       0.153  10.014  19.418  0.00  0.00    +0.000 A 
ATOM     23  C   UNL     1      -0.084   9.528  20.710  0.00  0.00    +0.000 A 
ATOM     24  C   UNL     1       0.656   8.448  21.194  0.00  0.00    +0.000 A 
BRANCH  22  25
ATOM     25  C   UNL     1      -0.598  11.164  18.841  0.00  0.00    +0.000 C 
ATOM     26  O   UNL     1      -1.788  11.135  18.621  0.00  0.00    +0.000 OA
BRANCH  25  27
ATOM     27  O   UNL     1       0.227  12.226  18.611  0.00  0.00    +0.000 OA
ATOM     28  C   UNL     1       0.353  13.103  19.732  0.00  0.00    +0.000 C 
ENDBRANCH  25  27
ENDBRANCH  22  25
ENDBRANCH  17  19
ENDBRANCH  14  17
ENDBRANCH   5  14
BRANCH   4  29
ATOM     29  O   UNL     1       1.004   3.095  18.296  0.00  0.00    +0.000 OA
ATOM     30  C   UNL     1       1.134   1.883  19.089  0.00  0.00    +0.000 C 
ENDBRANCH   4  29
TORSDOF 8
ENDMDL
MODEL 8
REMARK VINA RESULT:      -7.2      7.119     10.257
REMARK  Name = 
REMARK  11 active torsions:
REMARK  status: ('A' for Active; 'I' for Inactive)
REMARK    1  A    between atoms: C_1  and  C_2
REMARK    2  A    between atoms: C_2  and  N_3
REMARK    3  A    between atoms: C_7  and  C_8
REMARK    4  A    between atoms: C_11  and  O_12
REMARK    5  A    between atoms: O_12  and  C_13
REMARK    6  A    between atoms: C_14  and  S_15
REMARK    7  A    between atoms: S_15  and  N_18
REMARK    8  A    between atoms: N_18  and  C_19
REMARK    9  A    between atoms: C_22  and  C_23
REMARK   10  A    between atoms: C_23  and  O_25
REMARK   11  A    between atoms: O_25  and  C_26
REMARK                            x       y       z     vdW  Elec       q    Type
REMARK                         _______ _______ _______ _____ _____    ______ ____
ROOT
ATOM      1  C   UNL     1       3.318   4.777  19.592  0.00  0.00    +0.000 A 
ATOM      2  C   UNL     1       2.597   5.539  18.677  0.00  0.00    +0.000 A 
ATOM      3  C   UNL     1       3.275   6.357  17.793  0.00  0.00    +0.000 A 
ATOM      4  C   UNL     1       4.658   6.463  17.756  0.00  0.00    +0.000 A 
ATOM      5  C   UNL     1       5.398   5.758  18.732  0.00  0.00    +0.000 A 
ATOM      6  C   UNL     1       4.712   4.915  19.620  0.00  0.00    +0.000 A 
ENDROOT
BRANCH   1  11
ATOM      7  N   UNL     1       1.938   2.706  20.062  0.00  0.00    +0.000 N 
ATOM      8  N   UNL     1       1.266   2.189  21.103  0.00  0.00    +0.000 NA
ATOM      9  N   UNL     1       1.568   2.959  22.134  0.00  0.00    +0.000 NA
ATOM     10  N   UNL     1       2.390   3.987  21.752  0.00  0.00    +0.000 NA
ATOM     11  C   UNL     1       2.596   3.848  20.455  0.00  0.00    +0.000 A 
BRANCH   7  13
ATOM     12  C   UNL     1       3.205   1.740  18.139  0.00  0.00    +0.000 C 
ATOM     13  C   UNL     1       1.869   2.095  18.754  0.00  0.00    +0.000 C 
ENDBRANCH   7  13
ENDBRANCH   1  11
BRANCH   5  14
ATOM     14  S   UNL     1       7.192   5.759  18.802  0.00  0.00    +0.000 S 
ATOM     15  O   UNL     1       7.643   6.987  18.121  0.00  0.00    +0.000 OA
ATOM     16  O   UNL     1       7.555   5.513  20.166  0.00  0.00    +0.000 OA
BRANCH  14  17
ATOM     17  N   UNL     1       7.733   4.454  17.866  0.00  0.00    +0.000 N 
ATOM     18  H   UNL     1       7.848   3.602  18.413  0.00  0.00    +0.000 HD
BRANCH  17  19
ATOM     19  C   UNL     1       7.182   4.317  16.567  0.00  0.00    +0.000 A 
ATOM     20  C   UNL     1       6.079   3.486  16.358  0.00  0.00    +0.000 A 
ATOM     21  C   UNL     1       5.591   3.303  15.060  0.00  0.00    +0.000 A 
ATOM     22  C   UNL     1       6.183   3.949  13.970  0.00  0.00    +0.000 A 
ATOM     23  C   UNL     1       7.287   4.783  14.190  0.00  0.00    +0.000 A 
ATOM     24  C   UNL     1       7.784   4.953  15.483  0.00  0.00    +0.000 A 
BRANCH  22  25
ATOM     25  C   UNL     1       5.604   3.720  12.617  0.00  0.00    +0.000 C 
ATOM     26  O   UNL     1       4.416   3.764  12.389  0.00  0.00    +0.000 OA
BRANCH  25  27
ATOM     27  O   UNL     1       6.581   3.471  11.698  0.00  0.00    +0.000 OA
ATOM     28  C   UNL     1       6.741   2.082  11.399  0.00  0.00    +0.000 C 
ENDBRANCH  25  27
ENDBRANCH  22  25
ENDBRANCH  17  19
ENDBRANCH  14  17
ENDBRANCH   5  14
BRANCH   4  29
ATOM     29  O   UNL     1       5.205   7.291  16.793  0.00  0.00    +0.000 OA
ATOM     30  C   UNL     1       4.753   7.040  15.433  0.00  0.00    +0.000 C 
ENDBRANCH   4  29
TORSDOF 8
ENDMDL
MODEL 9
REMARK VINA RESULT:      -7.2      1.914      2.159
REMARK  Name = 
REMARK  11 active torsions:
REMARK  status: ('A' for Active; 'I' for Inactive)
REMARK    1  A    between atoms: C_1  and  C_2
REMARK    2  A    between atoms: C_2  and  N_3
REMARK    3  A    between atoms: C_7  and  C_8
REMARK    4  A    between atoms: C_11  and  O_12
REMARK    5  A    between atoms: O_12  and  C_13
REMARK    6  A    between atoms: C_14  and  S_15
REMARK    7  A    between atoms: S_15  and  N_18
REMARK    8  A    between atoms: N_18  and  C_19
REMARK    9  A    between atoms: C_22  and  C_23
REMARK   10  A    between atoms: C_23  and  O_25
REMARK   11  A    between atoms: O_25  and  C_26
REMARK                            x       y       z     vdW  Elec       q    Type
REMARK                         _______ _______ _______ _____ _____    ______ ____
ROOT
ATOM      1  C   UNL     1       2.843   6.767  19.029  0.00  0.00    +0.000 A 
ATOM      2  C   UNL     1       3.002   7.455  17.829  0.00  0.00    +0.000 A 
ATOM      3  C   UNL     1       2.409   8.693  17.675  0.00  0.00    +0.000 A 
ATOM      4  C   UNL     1       1.654   9.309  18.663  0.00  0.00    +0.000 A 
ATOM      5  C   UNL     1       1.417   8.587  19.854  0.00  0.00    +0.000 A 
ATOM      6  C   UNL     1       2.032   7.336  20.019  0.00  0.00    +0.000 A 
ENDROOT
BRANCH   1  11
ATOM      7  N   UNL     1       2.987   4.261  19.368  0.00  0.00    +0.000 N 
ATOM      8  N   UNL     1       3.941   3.363  19.664  0.00  0.00    +0.000 NA
ATOM      9  N   UNL     1       5.080   4.032  19.617  0.00  0.00    +0.000 NA
ATOM     10  N   UNL     1       4.859   5.356  19.339  0.00  0.00    +0.000 NA
ATOM     11  C   UNL     1       3.552   5.505  19.214  0.00  0.00    +0.000 A 
BRANCH   7  13
ATOM     12  C   UNL     1       1.028   3.279  20.566  0.00  0.00    +0.000 C 
ATOM     13  C   UNL     1       1.597   3.874  19.296  0.00  0.00    +0.000 C 
ENDBRANCH   7  13
ENDBRANCH   1  11
BRANCH   5  14
ATOM     14  S   UNL     1       0.493   9.251  21.243  0.00  0.00    +0.000 S 
ATOM     15  O   UNL     1      -0.347   8.153  21.757  0.00  0.00    +0.000 OA
ATOM     16  O   UNL     1       1.439   9.900  22.101  0.00  0.00    +0.000 OA
BRANCH  14  17
ATOM     17  N   UNL     1      -0.561  10.427  20.631  0.00  0.00    +0.000 N 
ATOM     18  H   UNL     1      -1.416  10.025  20.249  0.00  0.00    +0.000 HD
BRANCH  17  19
ATOM     19  C   UNL     1      -0.689  11.630  21.370  0.00  0.00    +0.000 A 
ATOM     20  C   UNL     1      -0.007  12.779  20.962  0.00  0.00    +0.000 A 
ATOM     21  C   UNL     1      -0.085  13.939  21.740  0.00  0.00    +0.000 A 
ATOM     22  C   UNL     1      -0.843  13.969  22.914  0.00  0.00    +0.000 A 
ATOM     23  C   UNL     1      -1.526  12.813  23.314  0.00  0.00    +0.000 A 
ATOM     24  C   UNL     1      -1.436  11.651  22.546  0.00  0.00    +0.000 A 
BRANCH  22  25
ATOM     25  C   UNL     1      -0.893  15.240  23.688  0.00  0.00    +0.000 C 
ATOM     26  O   UNL     1      -0.945  16.331  23.166  0.00  0.00    +0.000 OA
BRANCH  25  27
ATOM     27  O   UNL     1      -0.880  15.002  25.031  0.00  0.00    +0.000 OA
ATOM     28  C   UNL     1      -1.928  15.668  25.738  0.00  0.00    +0.000 C 
ENDBRANCH  25  27
ENDBRANCH  22  25
ENDBRANCH  17  19
ENDBRANCH  14  17
ENDBRANCH   5  14
BRANCH   4  29
ATOM     29  O   UNL     1       1.151  10.567  18.385  0.00  0.00    +0.000 OA
ATOM     30  C   UNL     1       2.151  11.609  18.217  0.00  0.00    +0.000 C 
ENDBRANCH   4  29
TORSDOF 8
ENDMDL
