MODEL 1
REMARK VINA RESULT:      -8.5      0.000      0.000
REMARK  Name = 
REMARK  6 active torsions:
REMARK  status: ('A' for Active; 'I' for Inactive)
REMARK    1  A    between atoms: C_5  and  C_6
REMARK    2  A    between atoms: C_6  and  N_7
REMARK    3  A    between atoms: N_7  and  C_8
REMARK    4  A    between atoms: N_16  and  C_17
REMARK    5  A    between atoms: C_17  and  C_18
REMARK    6  A    between atoms: C_18  and  C_20
REMARK                            x       y       z     vdW  Elec       q    Type
REMARK                         _______ _______ _______ _____ _____    ______ ____
ROOT
ATOM      1  C   UNL     1       1.593   8.400  20.193  0.00  0.00    +0.000 A 
ATOM      2  N   UNL     1       1.529   8.762  18.888  0.00  0.00    +0.000 NA
ATOM      3  C   UNL     1       0.842   9.874  18.549  0.00  0.00    +0.000 A 
ATOM      4  N   UNL     1       0.184  10.723  19.357  0.00  0.00    +0.000 NA
ATOM      5  C   UNL     1       0.280  10.340  20.643  0.00  0.00    +0.000 A 
ATOM      6  C   UNL     1       0.943   9.225  21.122  0.00  0.00    +0.000 A 
ATOM      7  C   UNL     1       0.725   9.263  22.516  0.00  0.00    +0.000 A 
ATOM      8  N   UNL     1      -0.023  10.303  22.902  0.00  0.00    +0.000 NA
ATOM      9  N   UNL     1      -0.281  10.945  21.738  0.00  0.00    +0.000 N 
ENDROOT
BRANCH   1  10
ATOM     10  N   UNL     1       2.246   7.231  20.573  0.00  0.00    +0.000 N 
ATOM     11  H   UNL     1       3.017   6.986  19.966  0.00  0.00    +0.000 HD
BRANCH  10  12
ATOM     12  C   UNL     1       1.396   6.112  20.940  0.00  0.00    +0.000 C 
BRANCH  12  17
ATOM     13  F   UNL     1       2.330   1.879  17.307  0.00  0.00    +0.000 F 
ATOM     14  C   UNL     1       2.106   2.885  18.164  0.00  0.00    +0.000 A 
ATOM     15  C   UNL     1       1.228   2.693  19.226  0.00  0.00    +0.000 A 
ATOM     16  C   UNL     1       0.990   3.737  20.126  0.00  0.00    +0.000 A 
ATOM     17  C   UNL     1       1.634   4.977  19.966  0.00  0.00    +0.000 A 
ATOM     18  C   UNL     1       2.516   5.150  18.887  0.00  0.00    +0.000 A 
ATOM     19  C   UNL     1       2.744   4.106  17.995  0.00  0.00    +0.000 A 
ATOM     20  F   UNL     1       3.588   4.290  16.970  0.00  0.00    +0.000 F 
ENDBRANCH  12  17
ENDBRANCH  10  12
ENDBRANCH   1  10
BRANCH   9  21
ATOM     21  C   UNL     1      -1.187  12.072  21.726  0.00  0.00    +0.000 C 
BRANCH  21  22
ATOM     22  C   UNL     1      -1.690  12.494  23.110  0.00  0.00    +0.000 C 
ATOM     23 CL   UNL     1      -1.014  14.082  23.607  0.00  0.00    +0.000 Cl
BRANCH  22  24
ATOM     24  C   UNL     1      -3.210  12.576  23.140  0.00  0.00    +0.000 A 
ATOM     25  C   UNL     1      -3.935  12.769  21.952  0.00  0.00    +0.000 A 
ATOM     26  C   UNL     1      -5.329  12.891  21.980  0.00  0.00    +0.000 A 
ATOM     27  C   UNL     1      -6.009  12.821  23.194  0.00  0.00    +0.000 A 
ATOM     28 BR   UNL     1      -7.888  13.013  23.237  0.00  0.00    +0.000 Br
ATOM     29  C   UNL     1      -5.311  12.612  24.380  0.00  0.00    +0.000 A 
ATOM     30  C   UNL     1      -3.921  12.485  24.351  0.00  0.00    +0.000 A 
ENDBRANCH  22  24
ENDBRANCH  21  22
ENDBRANCH   9  21
TORSDOF 6
ENDMDL
MODEL 2
REMARK VINA RESULT:      -8.3      6.247      8.740
REMARK  Name = 
REMARK  6 active torsions:
REMARK  status: ('A' for Active; 'I' for Inactive)
REMARK    1  A    between atoms: C_5  and  C_6
REMARK    2  A    between atoms: C_6  and  N_7
REMARK    3  A    between atoms: N_7  and  C_8
REMARK    4  A    between atoms: N_16  and  C_17
REMARK    5  A    between atoms: C_17  and  C_18
REMARK    6  A    between atoms: C_18  and  C_20
REMARK                            x       y       z     vdW  Elec       q    Type
REMARK                         _______ _______ _______ _____ _____    ______ ____
ROOT
ATOM      1  C   UNL     1       7.245   4.889  16.898  0.00  0.00    +0.000 A 
ATOM      2  N   UNL     1       7.932   5.646  17.789  0.00  0.00    +0.000 NA
ATOM      3  C   UNL     1       7.444   5.789  19.041  0.00  0.00    +0.000 A 
ATOM      4  N   UNL     1       6.324   5.258  19.561  0.00  0.00    +0.000 NA
ATOM      5  C   UNL     1       5.677   4.507  18.653  0.00  0.00    +0.000 A 
ATOM      6  C   UNL     1       6.062   4.284  17.344  0.00  0.00    +0.000 A 
ATOM      7  C   UNL     1       5.045   3.459  16.817  0.00  0.00    +0.000 A 
ATOM      8  N   UNL     1       4.082   3.181  17.704  0.00  0.00    +0.000 NA
ATOM      9  N   UNL     1       4.493   3.834  18.817  0.00  0.00    +0.000 N 
ENDROOT
BRANCH   1  10
ATOM     10  N   UNL     1       7.689   4.764  15.584  0.00  0.00    +0.000 N 
ATOM     11  H   UNL     1       8.690   4.877  15.486  0.00  0.00    +0.000 HD
BRANCH  10  12
ATOM     12  C   UNL     1       6.908   5.455  14.574  0.00  0.00    +0.000 C 
BRANCH  12  17
ATOM     13  F   UNL     1       5.149   1.656  10.770  0.00  0.00    +0.000 F 
ATOM     14  C   UNL     1       5.568   2.560  11.667  0.00  0.00    +0.000 A 
ATOM     15  C   UNL     1       4.632   3.222  12.455  0.00  0.00    +0.000 A 
ATOM     16  C   UNL     1       5.060   4.165  13.395  0.00  0.00    +0.000 A 
ATOM     17  C   UNL     1       6.429   4.445  13.551  0.00  0.00    +0.000 A 
ATOM     18  C   UNL     1       7.357   3.767  12.745  0.00  0.00    +0.000 A 
ATOM     19  C   UNL     1       6.921   2.832  11.810  0.00  0.00    +0.000 A 
ATOM     20  F   UNL     1       7.822   2.195  11.048  0.00  0.00    +0.000 F 
ENDBRANCH  12  17
ENDBRANCH  10  12
ENDBRANCH   1  10
BRANCH   9  21
ATOM     21  C   UNL     1       3.634   3.880  19.980  0.00  0.00    +0.000 C 
BRANCH  21  22
ATOM     22  C   UNL     1       2.191   4.301  19.684  0.00  0.00    +0.000 C 
ATOM     23 CL   UNL     1       1.080   3.851  21.021  0.00  0.00    +0.000 Cl
BRANCH  22  24
ATOM     24  C   UNL     1       2.095   5.803  19.449  0.00  0.00    +0.000 A 
ATOM     25  C   UNL     1       1.714   6.663  20.492  0.00  0.00    +0.000 A 
ATOM     26  C   UNL     1       1.580   8.038  20.269  0.00  0.00    +0.000 A 
ATOM     27  C   UNL     1       1.827   8.564  19.003  0.00  0.00    +0.000 A 
ATOM     28 BR   UNL     1       1.619  10.416  18.692  0.00  0.00    +0.000 Br
ATOM     29  C   UNL     1       2.222   7.731  17.960  0.00  0.00    +0.000 A 
ATOM     30  C   UNL     1       2.361   6.360  18.185  0.00  0.00    +0.000 A 
ENDBRANCH  22  24
ENDBRANCH  21  22
ENDBRANCH   9  21
TORSDOF 6
ENDMDL
MODEL 3
REMARK VINA RESULT:      -8.3      7.098     10.112
REMARK  Name = 
REMARK  6 active torsions:
REMARK  status: ('A' for Active; 'I' for Inactive)
REMARK    1  A    between atoms: C_5  and  C_6
REMARK    2  A    between atoms: C_6  and  N_7
REMARK    3  A    between atoms: N_7  and  C_8
REMARK    4  A    between atoms: N_16  and  C_17
REMARK    5  A    between atoms: C_17  and  C_18
REMARK    6  A    between atoms: C_18  and  C_20
REMARK                            x       y       z     vdW  Elec       q    Type
REMARK                         _______ _______ _______ _____ _____    ______ ____
ROOT
ATOM      1  C   UNL     1       7.778   7.304  17.965  0.00  0.00    +0.000 A 
ATOM      2  N   UNL     1       8.310   6.798  19.104  0.00  0.00    +0.000 NA
ATOM      3  C   UNL     1       7.785   5.670  19.629  0.00  0.00    +0.000 A 
ATOM      4  N   UNL     1       6.763   4.933  19.160  0.00  0.00    +0.000 NA
ATOM      5  C   UNL     1       6.269   5.457  18.024  0.00  0.00    +0.000 A 
ATOM      6  C   UNL     1       6.708   6.604  17.388  0.00  0.00    +0.000 A 
ATOM      7  C   UNL     1       5.856   6.729  16.269  0.00  0.00    +0.000 A 
ATOM      8  N   UNL     1       4.941   5.756  16.195  0.00  0.00    +0.000 NA
ATOM      9  N   UNL     1       5.216   4.992  17.280  0.00  0.00    +0.000 N 
ENDROOT
BRANCH   1  10
ATOM     10  N   UNL     1       8.258   8.494  17.425  0.00  0.00    +0.000 N 
ATOM     11  H   UNL     1       9.269   8.544  17.400  0.00  0.00    +0.000 HD
BRANCH  10  12
ATOM     12  C   UNL     1       7.610   9.711  17.878  0.00  0.00    +0.000 C 
BRANCH  12  17
ATOM     13  F   UNL     1      11.589  13.644  18.713  0.00  0.00    +0.000 F 
ATOM     14  C   UNL     1      10.644  12.713  18.521  0.00  0.00    +0.000 A 
ATOM     15  C   UNL     1       9.538  13.016  17.735  0.00  0.00    +0.000 A 
ATOM     16  C   UNL     1       8.549  12.049  17.527  0.00  0.00    +0.000 A 
ATOM     17  C   UNL     1       8.667  10.773  18.105  0.00  0.00    +0.000 A 
ATOM     18  C   UNL     1       9.792  10.487  18.896  0.00  0.00    +0.000 A 
ATOM     19  C   UNL     1      10.770  11.457  19.099  0.00  0.00    +0.000 A 
ATOM     20  F   UNL     1      11.835  11.167  19.858  0.00  0.00    +0.000 F 
ENDBRANCH  12  17
ENDBRANCH  10  12
ENDBRANCH   1  10
BRANCH   9  21
ATOM     21  C   UNL     1       4.343   3.891  17.622  0.00  0.00    +0.000 C 
BRANCH  21  22
ATOM     22  C   UNL     1       2.849   4.226  17.562  0.00  0.00    +0.000 C 
ATOM     23 CL   UNL     1       1.831   2.783  17.890  0.00  0.00    +0.000 Cl
BRANCH  22  24
ATOM     24  C   UNL     1       2.492   5.318  18.561  0.00  0.00    +0.000 A 
ATOM     25  C   UNL     1       2.106   4.985  19.871  0.00  0.00    +0.000 A 
ATOM     26  C   UNL     1       1.732   5.982  20.778  0.00  0.00    +0.000 A 
ATOM     27  C   UNL     1       1.742   7.319  20.386  0.00  0.00    +0.000 A 
ATOM     28 BR   UNL     1       1.211   8.664  21.601  0.00  0.00    +0.000 Br
ATOM     29  C   UNL     1       2.138   7.671  19.099  0.00  0.00    +0.000 A 
ATOM     30  C   UNL     1       2.515   6.676  18.195  0.00  0.00    +0.000 A 
ENDBRANCH  22  24
ENDBRANCH  21  22
ENDBRANCH   9  21
TORSDOF 6
ENDMDL
MODEL 4
REMARK VINA RESULT:      -8.1      2.401      3.006
REMARK  Name = 
REMARK  6 active torsions:
REMARK  status: ('A' for Active; 'I' for Inactive)
REMARK    1  A    between atoms: C_5  and  C_6
REMARK    2  A    between atoms: C_6  and  N_7
REMARK    3  A    between atoms: N_7  and  C_8
REMARK    4  A    between atoms: N_16  and  C_17
REMARK    5  A    between atoms: C_17  and  C_18
REMARK    6  A    between atoms: C_18  and  C_20
REMARK                            x       y       z     vdW  Elec       q    Type
REMARK                         _______ _______ _______ _____ _____    ______ ____
ROOT
ATOM      1  C   UNL     1       2.059   7.485  19.780  0.00  0.00    +0.000 A 
ATOM      2  N   UNL     1       2.713   7.492  18.592  0.00  0.00    +0.000 NA
ATOM      3  C   UNL     1       2.533   8.534  17.751  0.00  0.00    +0.000 A 
ATOM      4  N   UNL     1       1.767   9.624  17.931  0.00  0.00    +0.000 NA
ATOM      5  C   UNL     1       1.145   9.587  19.122  0.00  0.00    +0.000 A 
ATOM      6  C   UNL     1       1.236   8.583  20.068  0.00  0.00    +0.000 A 
ATOM      7  C   UNL     1       0.385   9.009  21.111  0.00  0.00    +0.000 A 
ATOM      8  N   UNL     1      -0.211  10.179  20.857  0.00  0.00    +0.000 NA
ATOM      9  N   UNL     1       0.270  10.510  19.635  0.00  0.00    +0.000 N 
ENDROOT
BRANCH   1  10
ATOM     10  N   UNL     1       2.178   6.403  20.648  0.00  0.00    +0.000 N 
ATOM     11  H   UNL     1       3.134   6.098  20.780  0.00  0.00    +0.000 HD
BRANCH  10  12
ATOM     12  C   UNL     1       1.226   5.323  20.461  0.00  0.00    +0.000 C 
BRANCH  12  17
ATOM     13  F   UNL     1       3.844   0.972  17.970  0.00  0.00    +0.000 F 
ATOM     14  C   UNL     1       3.228   2.006  18.560  0.00  0.00    +0.000 A 
ATOM     15  C   UNL     1       2.149   2.610  17.923  0.00  0.00    +0.000 A 
ATOM     16  C   UNL     1       1.499   3.688  18.532  0.00  0.00    +0.000 A 
ATOM     17  C   UNL     1       1.928   4.164  19.784  0.00  0.00    +0.000 A 
ATOM     18  C   UNL     1       3.020   3.541  20.410  0.00  0.00    +0.000 A 
ATOM     19  C   UNL     1       3.662   2.470  19.794  0.00  0.00    +0.000 A 
ATOM     20  F   UNL     1       4.703   1.889  20.406  0.00  0.00    +0.000 F 
ENDBRANCH  12  17
ENDBRANCH  10  12
ENDBRANCH   1  10
BRANCH   9  21
ATOM     21  C   UNL     1      -0.250  11.673  18.950  0.00  0.00    +0.000 C 
BRANCH  21  22
ATOM     22  C   UNL     1      -1.506  11.406  18.114  0.00  0.00    +0.000 C 
ATOM     23 CL   UNL     1      -1.673   9.665  17.705  0.00  0.00    +0.000 Cl
BRANCH  22  24
ATOM     24  C   UNL     1      -2.760  11.861  18.848  0.00  0.00    +0.000 A 
ATOM     25  C   UNL     1      -4.033  11.596  18.314  0.00  0.00    +0.000 A 
ATOM     26  C   UNL     1      -5.186  12.053  18.962  0.00  0.00    +0.000 A 
ATOM     27  C   UNL     1      -5.077  12.776  20.148  0.00  0.00    +0.000 A 
ATOM     28 BR   UNL     1      -6.632  13.417  21.009  0.00  0.00    +0.000 Br
ATOM     29  C   UNL     1      -3.827  13.033  20.703  0.00  0.00    +0.000 A 
ATOM     30  C   UNL     1      -2.677  12.573  20.059  0.00  0.00    +0.000 A 
ENDBRANCH  22  24
ENDBRANCH  21  22
ENDBRANCH   9  21
TORSDOF 6
ENDMDL
MODEL 5
REMARK VINA RESULT:      -8.1      2.843      4.223
REMARK  Name = 
REMARK  6 active torsions:
REMARK  status: ('A' for Active; 'I' for Inactive)
REMARK    1  A    between atoms: C_5  and  C_6
REMARK    2  A    between atoms: C_6  and  N_7
REMARK    3  A    between atoms: N_7  and  C_8
REMARK    4  A    between atoms: N_16  and  C_17
REMARK    5  A    between atoms: C_17  and  C_18
REMARK    6  A    between atoms: C_18  and  C_20
REMARK                            x       y       z     vdW  Elec       q    Type
REMARK                         _______ _______ _______ _____ _____    ______ ____
ROOT
ATOM      1  C   UNL     1       2.254   6.715  19.516  0.00  0.00    +0.000 A 
ATOM      2  N   UNL     1       1.749   6.549  20.763  0.00  0.00    +0.000 NA
ATOM      3  C   UNL     1       1.114   7.583  21.356  0.00  0.00    +0.000 A 
ATOM      4  N   UNL     1       0.891   8.814  20.863  0.00  0.00    +0.000 NA
ATOM      5  C   UNL     1       1.395   8.937  19.622  0.00  0.00    +0.000 A 
ATOM      6  C   UNL     1       2.069   7.965  18.907  0.00  0.00    +0.000 A 
ATOM      7  C   UNL     1       2.403   8.597  17.690  0.00  0.00    +0.000 A 
ATOM      8  N   UNL     1       1.990   9.868  17.628  0.00  0.00    +0.000 NA
ATOM      9  N   UNL     1       1.377  10.050  18.822  0.00  0.00    +0.000 N 
ENDROOT
BRANCH   1  10
ATOM     10  N   UNL     1       2.962   5.689  18.895  0.00  0.00    +0.000 N 
ATOM     11  H   UNL     1       2.429   4.834  18.801  0.00  0.00    +0.000 HD
BRANCH  10  12
ATOM     12  C   UNL     1       4.331   5.496  19.337  0.00  0.00    +0.000 C 
BRANCH  12  17
ATOM     13  F   UNL     1       7.629   4.841  14.789  0.00  0.00    +0.000 F 
ATOM     14  C   UNL     1       6.843   4.992  15.865  0.00  0.00    +0.000 A 
ATOM     15  C   UNL     1       7.305   4.576  17.109  0.00  0.00    +0.000 A 
ATOM     16  C   UNL     1       6.494   4.732  18.237  0.00  0.00    +0.000 A 
ATOM     17  C   UNL     1       5.216   5.309  18.122  0.00  0.00    +0.000 A 
ATOM     18  C   UNL     1       4.769   5.721  16.856  0.00  0.00    +0.000 A 
ATOM     19  C   UNL     1       5.583   5.559  15.739  0.00  0.00    +0.000 A 
ATOM     20  F   UNL     1       5.138   5.957  14.539  0.00  0.00    +0.000 F 
ENDBRANCH  12  17
ENDBRANCH  10  12
ENDBRANCH   1  10
BRANCH   9  21
ATOM     21  C   UNL     1       0.902  11.366  19.191  0.00  0.00    +0.000 C 
BRANCH  21  22
ATOM     22  C   UNL     1      -0.578  11.614  18.880  0.00  0.00    +0.000 C 
ATOM     23 CL   UNL     1      -1.331  10.201  18.067  0.00  0.00    +0.000 Cl
BRANCH  22  24
ATOM     24  C   UNL     1      -1.359  11.927  20.148  0.00  0.00    +0.000 A 
ATOM     25  C   UNL     1      -0.847  11.568  21.406  0.00  0.00    +0.000 A 
ATOM     26  C   UNL     1      -1.583  11.812  22.571  0.00  0.00    +0.000 A 
ATOM     27  C   UNL     1      -2.835  12.417  22.488  0.00  0.00    +0.000 A 
ATOM     28 BR   UNL     1      -3.843  12.723  24.057  0.00  0.00    +0.000 Br
ATOM     29  C   UNL     1      -3.352  12.797  21.253  0.00  0.00    +0.000 A 
ATOM     30  C   UNL     1      -2.616  12.558  20.092  0.00  0.00    +0.000 A 
ENDBRANCH  22  24
ENDBRANCH  21  22
ENDBRANCH   9  21
TORSDOF 6
ENDMDL
MODEL 6
REMARK VINA RESULT:      -8.1      2.115      2.490
REMARK  Name = 
REMARK  6 active torsions:
REMARK  status: ('A' for Active; 'I' for Inactive)
REMARK    1  A    between atoms: C_5  and  C_6
REMARK    2  A    between atoms: C_6  and  N_7
REMARK    3  A    between atoms: N_7  and  C_8
REMARK    4  A    between atoms: N_16  and  C_17
REMARK    5  A    between atoms: C_17  and  C_18
REMARK    6  A    between atoms: C_18  and  C_20
REMARK                            x       y       z     vdW  Elec       q    Type
REMARK                         _______ _______ _______ _____ _____    ______ ____
ROOT
ATOM      1  C   UNL     1       1.288   8.758  20.479  0.00  0.00    +0.000 A 
ATOM      2  N   UNL     1       1.177   9.290  19.236  0.00  0.00    +0.000 NA
ATOM      3  C   UNL     1       0.459  10.421  19.069  0.00  0.00    +0.000 A 
ATOM      4  N   UNL     1      -0.190  11.139  20.002  0.00  0.00    +0.000 NA
ATOM      5  C   UNL     1      -0.048  10.589  21.222  0.00  0.00    +0.000 A 
ATOM      6  C   UNL     1       0.651   9.436  21.528  0.00  0.00    +0.000 A 
ATOM      7  C   UNL     1       0.475   9.282  22.920  0.00  0.00    +0.000 A 
ATOM      8  N   UNL     1      -0.280  10.244  23.463  0.00  0.00    +0.000 NA
ATOM      9  N   UNL     1      -0.586  11.029  22.403  0.00  0.00    +0.000 N 
ENDROOT
BRANCH   1  10
ATOM     10  N   UNL     1       1.975   7.564  20.681  0.00  0.00    +0.000 N 
ATOM     11  H   UNL     1       2.543   7.564  21.518  0.00  0.00    +0.000 HD
BRANCH  10  12
ATOM     12  C   UNL     1       2.627   6.995  19.515  0.00  0.00    +0.000 C 
BRANCH  12  17
ATOM     13  F   UNL     1       0.636   1.759  18.733  0.00  0.00    +0.000 F 
ATOM     14  C   UNL     1       1.113   2.997  18.921  0.00  0.00    +0.000 A 
ATOM     15  C   UNL     1       1.532   3.740  17.823  0.00  0.00    +0.000 A 
ATOM     16  C   UNL     1       2.028   5.035  18.009  0.00  0.00    +0.000 A 
ATOM     17  C   UNL     1       2.104   5.590  19.299  0.00  0.00    +0.000 A 
ATOM     18  C   UNL     1       1.676   4.822  20.395  0.00  0.00    +0.000 A 
ATOM     19  C   UNL     1       1.186   3.534  20.199  0.00  0.00    +0.000 A 
ATOM     20  F   UNL     1       0.784   2.816  21.257  0.00  0.00    +0.000 F 
ENDBRANCH  12  17
ENDBRANCH  10  12
ENDBRANCH   1  10
BRANCH   9  21
ATOM     21  C   UNL     1      -1.514  12.127  22.568  0.00  0.00    +0.000 C 
BRANCH  21  22
ATOM     22  C   UNL     1      -0.872  13.429  23.058  0.00  0.00    +0.000 C 
ATOM     23 CL   UNL     1       0.176  14.167  21.800  0.00  0.00    +0.000 Cl
BRANCH  22  24
ATOM     24  C   UNL     1      -1.932  14.441  23.471  0.00  0.00    +0.000 A 
ATOM     25  C   UNL     1      -1.653  15.818  23.438  0.00  0.00    +0.000 A 
ATOM     26  C   UNL     1      -2.609  16.748  23.860  0.00  0.00    +0.000 A 
ATOM     27  C   UNL     1      -3.850  16.312  24.318  0.00  0.00    +0.000 A 
ATOM     28 BR   UNL     1      -5.131  17.566  24.914  0.00  0.00    +0.000 Br
ATOM     29  C   UNL     1      -4.153  14.954  24.342  0.00  0.00    +0.000 A 
ATOM     30  C   UNL     1      -3.201  14.026  23.916  0.00  0.00    +0.000 A 
ENDBRANCH  22  24
ENDBRANCH  21  22
ENDBRANCH   9  21
TORSDOF 6
ENDMDL
MODEL 7
REMARK VINA RESULT:      -8.0      4.178      5.807
REMARK  Name = 
REMARK  6 active torsions:
REMARK  status: ('A' for Active; 'I' for Inactive)
REMARK    1  A    between atoms: C_5  and  C_6
REMARK    2  A    between atoms: C_6  and  N_7
REMARK    3  A    between atoms: N_7  and  C_8
REMARK    4  A    between atoms: N_16  and  C_17
REMARK    5  A    between atoms: C_17  and  C_18
REMARK    6  A    between atoms: C_18  and  C_20
REMARK                            x       y       z     vdW  Elec       q    Type
REMARK                         _______ _______ _______ _____ _____    ______ ____
ROOT
ATOM      1  C   UNL     1       3.289   5.021  18.114  0.00  0.00    +0.000 A 
ATOM      2  N   UNL     1       3.180   4.018  19.020  0.00  0.00    +0.000 NA
ATOM      3  C   UNL     1       2.658   4.287  20.236  0.00  0.00    +0.000 A 
ATOM      4  N   UNL     1       2.200   5.462  20.703  0.00  0.00    +0.000 NA
ATOM      5  C   UNL     1       2.313   6.428  19.774  0.00  0.00    +0.000 A 
ATOM      6  C   UNL     1       2.833   6.289  18.500  0.00  0.00    +0.000 A 
ATOM      7  C   UNL     1       2.748   7.585  17.946  0.00  0.00    +0.000 A 
ATOM      8  N   UNL     1       2.230   8.484  18.791  0.00  0.00    +0.000 NA
ATOM      9  N   UNL     1       1.973   7.750  19.900  0.00  0.00    +0.000 N 
ENDROOT
BRANCH   1  10
ATOM     10  N   UNL     1       3.872   4.792  16.870  0.00  0.00    +0.000 N 
ATOM     11  H   UNL     1       3.229   4.407  16.191  0.00  0.00    +0.000 HD
BRANCH  10  12
ATOM     12  C   UNL     1       5.180   4.162  16.881  0.00  0.00    +0.000 C 
BRANCH  12  17
ATOM     13  F   UNL     1       8.903   7.819  19.062  0.00  0.00    +0.000 F 
ATOM     14  C   UNL     1       8.024   6.952  18.540  0.00  0.00    +0.000 A 
ATOM     15  C   UNL     1       7.934   5.670  19.071  0.00  0.00    +0.000 A 
ATOM     16  C   UNL     1       7.018   4.759  18.534  0.00  0.00    +0.000 A 
ATOM     17  C   UNL     1       6.186   5.133  17.464  0.00  0.00    +0.000 A 
ATOM     18  C   UNL     1       6.293   6.433  16.942  0.00  0.00    +0.000 A 
ATOM     19  C   UNL     1       7.210   7.330  17.482  0.00  0.00    +0.000 A 
ATOM     20  F   UNL     1       7.299   8.566  16.969  0.00  0.00    +0.000 F 
ENDBRANCH  12  17
ENDBRANCH  10  12
ENDBRANCH   1  10
BRANCH   9  21
ATOM     21  C   UNL     1       1.515   8.408  21.105  0.00  0.00    +0.000 C 
BRANCH  21  22
ATOM     22  C   UNL     1       0.064   8.897  21.046  0.00  0.00    +0.000 C 
ATOM     23 CL   UNL     1      -0.725   8.829  22.659  0.00  0.00    +0.000 Cl
BRANCH  22  24
ATOM     24  C   UNL     1      -0.012  10.324  20.521  0.00  0.00    +0.000 A 
ATOM     25  C   UNL     1      -0.797  10.627  19.396  0.00  0.00    +0.000 A 
ATOM     26  C   UNL     1      -0.833  11.928  18.882  0.00  0.00    +0.000 A 
ATOM     27  C   UNL     1      -0.087  12.936  19.488  0.00  0.00    +0.000 A 
ATOM     28 BR   UNL     1      -0.114  14.687  18.779  0.00  0.00    +0.000 Br
ATOM     29  C   UNL     1       0.682  12.661  20.614  0.00  0.00    +0.000 A 
ATOM     30  C   UNL     1       0.714  11.364  21.130  0.00  0.00    +0.000 A 
ENDBRANCH  22  24
ENDBRANCH  21  22
ENDBRANCH   9  21
TORSDOF 6
ENDMDL
MODEL 8
REMARK VINA RESULT:      -8.0      7.299      9.789
REMARK  Name = 
REMARK  6 active torsions:
REMARK  status: ('A' for Active; 'I' for Inactive)
REMARK    1  A    between atoms: C_5  and  C_6
REMARK    2  A    between atoms: C_6  and  N_7
REMARK    3  A    between atoms: N_7  and  C_8
REMARK    4  A    between atoms: N_16  and  C_17
REMARK    5  A    between atoms: C_17  and  C_18
REMARK    6  A    between atoms: C_18  and  C_20
REMARK                            x       y       z     vdW  Elec       q    Type
REMARK                         _______ _______ _______ _____ _____    ______ ____
ROOT
ATOM      1  C   UNL     1       5.232   3.783  16.973  0.00  0.00    +0.000 A 
ATOM      2  N   UNL     1       5.568   3.914  15.666  0.00  0.00    +0.000 NA
ATOM      3  C   UNL     1       6.541   4.785  15.323  0.00  0.00    +0.000 A 
ATOM      4  N   UNL     1       7.269   5.577  16.129  0.00  0.00    +0.000 NA
ATOM      5  C   UNL     1       6.917   5.412  17.417  0.00  0.00    +0.000 A 
ATOM      6  C   UNL     1       5.938   4.563  17.900  0.00  0.00    +0.000 A 
ATOM      7  C   UNL     1       5.947   4.779  19.295  0.00  0.00    +0.000 A 
ATOM      8  N   UNL     1       6.844   5.694  19.678  0.00  0.00    +0.000 NA
ATOM      9  N   UNL     1       7.423   6.065  18.510  0.00  0.00    +0.000 N 
ENDROOT
BRANCH   1  10
ATOM     10  N   UNL     1       4.197   2.935  17.358  0.00  0.00    +0.000 N 
ATOM     11  H   UNL     1       4.339   1.974  17.073  0.00  0.00    +0.000 HD
BRANCH  10  12
ATOM     12  C   UNL     1       2.849   3.429  17.142  0.00  0.00    +0.000 C 
BRANCH  12  17
ATOM     13  F   UNL     1       1.540   7.113  21.230  0.00  0.00    +0.000 F 
ATOM     14  C   UNL     1       1.857   6.242  20.262  0.00  0.00    +0.000 A 
ATOM     15  C   UNL     1       1.748   4.878  20.511  0.00  0.00    +0.000 A 
ATOM     16  C   UNL     1       2.073   3.961  19.506  0.00  0.00    +0.000 A 
ATOM     17  C   UNL     1       2.506   4.410  18.245  0.00  0.00    +0.000 A 
ATOM     18  C   UNL     1       2.609   5.791  18.015  0.00  0.00    +0.000 A 
ATOM     19  C   UNL     1       2.286   6.695  19.023  0.00  0.00    +0.000 A 
ATOM     20  F   UNL     1       2.393   8.010  18.785  0.00  0.00    +0.000 F 
ENDBRANCH  12  17
ENDBRANCH  10  12
ENDBRANCH   1  10
BRANCH   9  21
ATOM     21  C   UNL     1       8.376   7.154  18.496  0.00  0.00    +0.000 C 
BRANCH  21  22
ATOM     22  C   UNL     1       7.943   8.361  17.658  0.00  0.00    +0.000 C 
ATOM     23 CL   UNL     1       6.155   8.505  17.574  0.00  0.00    +0.000 Cl
BRANCH  22  24
ATOM     24  C   UNL     1       8.514   9.654  18.225  0.00  0.00    +0.000 A 
ATOM     25  C   UNL     1       9.185   9.655  19.459  0.00  0.00    +0.000 A 
ATOM     26  C   UNL     1       9.670  10.848  20.006  0.00  0.00    +0.000 A 
ATOM     27  C   UNL     1       9.491  12.049  19.323  0.00  0.00    +0.000 A 
ATOM     28 BR   UNL     1      10.122  13.665  20.072  0.00  0.00    +0.000 Br
ATOM     29  C   UNL     1       8.845  12.067  18.090  0.00  0.00    +0.000 A 
ATOM     30  C   UNL     1       8.365  10.876  17.543  0.00  0.00    +0.000 A 
ENDBRANCH  22  24
ENDBRANCH  21  22
ENDBRANCH   9  21
TORSDOF 6
ENDMDL
MODEL 9
REMARK VINA RESULT:      -8.0      4.008      5.991
REMARK  Name = 
REMARK  6 active torsions:
REMARK  status: ('A' for Active; 'I' for Inactive)
REMARK    1  A    between atoms: C_5  and  C_6
REMARK    2  A    between atoms: C_6  and  N_7
REMARK    3  A    between atoms: N_7  and  C_8
REMARK    4  A    between atoms: N_16  and  C_17
REMARK    5  A    between atoms: C_17  and  C_18
REMARK    6  A    between atoms: C_18  and  C_20
REMARK                            x       y       z     vdW  Elec       q    Type
REMARK                         _______ _______ _______ _____ _____    ______ ____
ROOT
ATOM      1  C   UNL     1       3.360   4.790  17.941  0.00  0.00    +0.000 A 
ATOM      2  N   UNL     1       3.174   3.854  18.905  0.00  0.00    +0.000 NA
ATOM      3  C   UNL     1       2.642   4.229  20.088  0.00  0.00    +0.000 A 
ATOM      4  N   UNL     1       2.242   5.455  20.468  0.00  0.00    +0.000 NA
ATOM      5  C   UNL     1       2.431   6.352  19.484  0.00  0.00    +0.000 A 
ATOM      6  C   UNL     1       2.969   6.104  18.235  0.00  0.00    +0.000 A 
ATOM      7  C   UNL     1       2.970   7.364  17.599  0.00  0.00    +0.000 A 
ATOM      8  N   UNL     1       2.486   8.342  18.373  0.00  0.00    +0.000 NA
ATOM      9  N   UNL     1       2.164   7.697  19.519  0.00  0.00    +0.000 N 
ENDROOT
BRANCH   1  10
ATOM     10  N   UNL     1       3.956   4.450  16.729  0.00  0.00    +0.000 N 
ATOM     11  H   UNL     1       3.341   3.939  16.109  0.00  0.00    +0.000 HD
BRANCH  10  12
ATOM     12  C   UNL     1       5.305   3.920  16.804  0.00  0.00    +0.000 C 
BRANCH  12  17
ATOM     13  F   UNL     1       8.760   7.891  18.877  0.00  0.00    +0.000 F 
ATOM     14  C   UNL     1       7.937   6.951  18.390  0.00  0.00    +0.000 A 
ATOM     15  C   UNL     1       7.299   7.168  17.173  0.00  0.00    +0.000 A 
ATOM     16  C   UNL     1       6.441   6.191  16.656  0.00  0.00    +0.000 A 
ATOM     17  C   UNL     1       6.222   4.992  17.357  0.00  0.00    +0.000 A 
ATOM     18  C   UNL     1       6.875   4.794  18.585  0.00  0.00    +0.000 A 
ATOM     19  C   UNL     1       7.725   5.773  19.092  0.00  0.00    +0.000 A 
ATOM     20  F   UNL     1       8.338   5.566  20.266  0.00  0.00    +0.000 F 
ENDBRANCH  12  17
ENDBRANCH  10  12
ENDBRANCH   1  10
BRANCH   9  21
ATOM     21  C   UNL     1       1.719   8.455  20.669  0.00  0.00    +0.000 C 
BRANCH  21  22
ATOM     22  C   UNL     1       0.254   8.900  20.604  0.00  0.00    +0.000 C 
ATOM     23 CL   UNL     1      -0.608   8.574  22.146  0.00  0.00    +0.000 Cl
BRANCH  22  24
ATOM     24  C   UNL     1       0.146  10.384  20.284  0.00  0.00    +0.000 A 
ATOM     25  C   UNL     1       0.158  11.337  21.317  0.00  0.00    +0.000 A 
ATOM     26  C   UNL     1       0.012  12.699  21.031  0.00  0.00    +0.000 A 
ATOM     27  C   UNL     1      -0.145  13.120  19.712  0.00  0.00    +0.000 A 
ATOM     28 BR   UNL     1      -0.369  14.956  19.327  0.00  0.00    +0.000 Br
ATOM     29  C   UNL     1      -0.142  12.194  18.673  0.00  0.00    +0.000 A 
ATOM     30  C   UNL     1       0.009  10.835  18.958  0.00  0.00    +0.000 A 
ENDBRANCH  22  24
ENDBRANCH  21  22
ENDBRANCH   9  21
TORSDOF 6
ENDMDL
