MODEL 1
REMARK VINA RESULT:      -9.0      0.000      0.000
REMARK  Name = 
REMARK  4 active torsions:
REMARK  status: ('A' for Active; 'I' for Inactive)
REMARK    1  A    between atoms: C_1  and  S_2
REMARK    2  A    between atoms: S_2  and  C_5
REMARK    3  A    between atoms: C_8  and  C_9
REMARK    4  A    between atoms: C_16  and  C_17
REMARK                            x       y       z     vdW  Elec       q    Type
REMARK                         _______ _______ _______ _____ _____    ______ ____
ROOT
ATOM      1  C   UNL     1       3.660   6.502  17.570  0.00  0.00    +0.000 A 
ATOM      2  S   UNL     1       4.799   7.323  16.486  0.00  0.00    +0.000 S 
ATOM      3  C   UNL     1       5.424   5.771  16.048  0.00  0.00    +0.000 A 
ATOM      4  N   UNL     1       6.367   5.344  15.259  0.00  0.00    +0.000 NA
ATOM      5  C   UNL     1       6.272   3.990  15.456  0.00  0.00    +0.000 A 
ATOM      6  N   UNL     1       5.328   3.576  16.315  0.00  0.00    +0.000 NA
ATOM      7  N   UNL     1       4.780   4.750  16.695  0.00  0.00    +0.000 N 
ATOM      8  C   UNL     1       3.773   5.153  17.562  0.00  0.00    +0.000 A 
ENDROOT
BRANCH   8   9
ATOM      9  C   UNL     1       2.962   4.222  18.347  0.00  0.00    +0.000 A 
ATOM     10  C   UNL     1       1.698   3.811  17.900  0.00  0.00    +0.000 A 
ATOM     11  C   UNL     1       0.935   2.913  18.654  0.00  0.00    +0.000 A 
ATOM     12  C   UNL     1       1.431   2.416  19.858  0.00  0.00    +0.000 A 
ATOM     13  C   UNL     1       2.684   2.825  20.298  0.00  0.00    +0.000 A 
ATOM     14  F   UNL     1       3.163   2.351  21.456  0.00  0.00    +0.000 F 
ATOM     15  C   UNL     1       3.451   3.720  19.558  0.00  0.00    +0.000 A 
ENDBRANCH   8   9
BRANCH   1  19
ATOM     16  C   UNL     1       1.150   9.019  19.906  0.00  0.00    +0.000 A 
ATOM     17  C   UNL     1       1.409   9.342  18.571  0.00  0.00    +0.000 A 
ATOM     18  C   UNL     1       2.213   8.497  17.805  0.00  0.00    +0.000 A 
ATOM     19  C   UNL     1       2.764   7.337  18.367  0.00  0.00    +0.000 A 
ATOM     20  C   UNL     1       2.488   7.019  19.703  0.00  0.00    +0.000 A 
ATOM     21  C   UNL     1       1.683   7.861  20.477  0.00  0.00    +0.000 A 
BRANCH  16  23
ATOM     22  C   UNL     1      -0.385   9.149  22.238  0.00  0.00    +0.000 C 
ATOM     23  S   UNL     1       0.226  10.156  20.916  0.00  0.00    +0.000 S 
ATOM     24  O   UNL     1      -0.908  10.608  20.133  0.00  0.00    +0.000 OA
ATOM     25  O   UNL     1       1.170  11.107  21.472  0.00  0.00    +0.000 OA
ENDBRANCH  16  23
ENDBRANCH   1  19
TORSDOF 3
ENDMDL
MODEL 2
REMARK VINA RESULT:      -8.8      0.888      1.309
REMARK  Name = 
REMARK  4 active torsions:
REMARK  status: ('A' for Active; 'I' for Inactive)
REMARK    1  A    between atoms: C_1  and  S_2
REMARK    2  A    between atoms: S_2  and  C_5
REMARK    3  A    between atoms: C_8  and  C_9
REMARK    4  A    between atoms: C_16  and  C_17
REMARK                            x       y       z     vdW  Elec       q    Type
REMARK                         _______ _______ _______ _____ _____    ______ ____
ROOT
ATOM      1  C   UNL     1       3.722   6.440  17.515  0.00  0.00    +0.000 A 
ATOM      2  S   UNL     1       4.760   7.278  16.346  0.00  0.00    +0.000 S 
ATOM      3  C   UNL     1       5.449   5.747  15.934  0.00  0.00    +0.000 A 
ATOM      4  N   UNL     1       6.375   5.341  15.114  0.00  0.00    +0.000 NA
ATOM      5  C   UNL     1       6.366   3.992  15.366  0.00  0.00    +0.000 A 
ATOM      6  N   UNL     1       5.489   3.562  16.285  0.00  0.00    +0.000 NA
ATOM      7  N   UNL     1       4.895   4.719  16.649  0.00  0.00    +0.000 N 
ATOM      8  C   UNL     1       3.910   5.100  17.550  0.00  0.00    +0.000 A 
ENDROOT
BRANCH   8   9
ATOM      9  C   UNL     1       3.191   4.157  18.409  0.00  0.00    +0.000 A 
ATOM     10  C   UNL     1       3.731   3.742  19.634  0.00  0.00    +0.000 A 
ATOM     11  C   UNL     1       3.031   2.848  20.452  0.00  0.00    +0.000 A 
ATOM     12  C   UNL     1       1.786   2.365  20.052  0.00  0.00    +0.000 A 
ATOM     13  C   UNL     1       1.254   2.779  18.838  0.00  0.00    +0.000 A 
ATOM     14  F   UNL     1       0.058   2.316  18.449  0.00  0.00    +0.000 F 
ATOM     15  C   UNL     1       1.941   3.666  18.015  0.00  0.00    +0.000 A 
ENDBRANCH   8   9
BRANCH   1  19
ATOM     16  C   UNL     1       1.194   8.902  19.890  0.00  0.00    +0.000 A 
ATOM     17  C   UNL     1       1.450   9.247  18.560  0.00  0.00    +0.000 A 
ATOM     18  C   UNL     1       2.260   8.420  17.781  0.00  0.00    +0.000 A 
ATOM     19  C   UNL     1       2.820   7.256  18.325  0.00  0.00    +0.000 A 
ATOM     20  C   UNL     1       2.547   6.915  19.657  0.00  0.00    +0.000 A 
ATOM     21  C   UNL     1       1.737   7.739  20.443  0.00  0.00    +0.000 A 
BRANCH  16  23
ATOM     22  C   UNL     1      -0.410   8.969  22.178  0.00  0.00    +0.000 C 
ATOM     23  S   UNL     1       0.262  10.016  20.918  0.00  0.00    +0.000 S 
ATOM     24  O   UNL     1      -0.838  10.523  20.120  0.00  0.00    +0.000 OA
ATOM     25  O   UNL     1       1.207  10.923  21.541  0.00  0.00    +0.000 OA
ENDBRANCH  16  23
ENDBRANCH   1  19
TORSDOF 3
ENDMDL
MODEL 3
REMARK VINA RESULT:      -8.6      0.793      1.071
REMARK  Name = 
REMARK  4 active torsions:
REMARK  status: ('A' for Active; 'I' for Inactive)
REMARK    1  A    between atoms: C_1  and  S_2
REMARK    2  A    between atoms: S_2  and  C_5
REMARK    3  A    between atoms: C_8  and  C_9
REMARK    4  A    between atoms: C_16  and  C_17
REMARK                            x       y       z     vdW  Elec       q    Type
REMARK                         _______ _______ _______ _____ _____    ______ ____
ROOT
ATOM      1  C   UNL     1       3.480   6.537  17.738  0.00  0.00    +0.000 A 
ATOM      2  S   UNL     1       4.665   7.260  16.635  0.00  0.00    +0.000 S 
ATOM      3  C   UNL     1       5.256   5.669  16.305  0.00  0.00    +0.000 A 
ATOM      4  N   UNL     1       6.203   5.169  15.565  0.00  0.00    +0.000 NA
ATOM      5  C   UNL     1       6.066   3.832  15.841  0.00  0.00    +0.000 A 
ATOM      6  N   UNL     1       5.092   3.497  16.701  0.00  0.00    +0.000 NA
ATOM      7  N   UNL     1       4.569   4.706  16.997  0.00  0.00    +0.000 N 
ATOM      8  C   UNL     1       3.555   5.188  17.814  0.00  0.00    +0.000 A 
ENDROOT
BRANCH   8   9
ATOM      9  C   UNL     1       2.701   4.328  18.635  0.00  0.00    +0.000 A 
ATOM     10  C   UNL     1       1.469   3.862  18.152  0.00  0.00    +0.000 A 
ATOM     11  C   UNL     1       0.666   3.032  18.942  0.00  0.00    +0.000 A 
ATOM     12  C   UNL     1       1.088   2.660  20.216  0.00  0.00    +0.000 A 
ATOM     13  C   UNL     1       2.309   3.122  20.691  0.00  0.00    +0.000 A 
ATOM     14  F   UNL     1       2.717   2.767  21.917  0.00  0.00    +0.000 F 
ATOM     15  C   UNL     1       3.116   3.950  19.916  0.00  0.00    +0.000 A 
ENDBRANCH   8   9
BRANCH   1  19
ATOM     16  C   UNL     1       0.990   9.261  19.854  0.00  0.00    +0.000 A 
ATOM     17  C   UNL     1       1.238   9.459  18.494  0.00  0.00    +0.000 A 
ATOM     18  C   UNL     1       2.035   8.547  17.801  0.00  0.00    +0.000 A 
ATOM     19  C   UNL     1       2.591   7.443  18.463  0.00  0.00    +0.000 A 
ATOM     20  C   UNL     1       2.325   7.249  19.825  0.00  0.00    +0.000 A 
ATOM     21  C   UNL     1       1.528   8.159  20.525  0.00  0.00    +0.000 A 
BRANCH  16  23
ATOM     22  C   UNL     1       1.111  11.921  20.702  0.00  0.00    +0.000 C 
ATOM     23  S   UNL     1       0.075  10.486  20.763  0.00  0.00    +0.000 S 
ATOM     24  O   UNL     1       0.005  10.040  22.142  0.00  0.00    +0.000 OA
ATOM     25  O   UNL     1      -1.133  10.770  20.012  0.00  0.00    +0.000 OA
ENDBRANCH  16  23
ENDBRANCH   1  19
TORSDOF 3
ENDMDL
MODEL 4
REMARK VINA RESULT:      -8.6      1.250      1.957
REMARK  Name = 
REMARK  4 active torsions:
REMARK  status: ('A' for Active; 'I' for Inactive)
REMARK    1  A    between atoms: C_1  and  S_2
REMARK    2  A    between atoms: S_2  and  C_5
REMARK    3  A    between atoms: C_8  and  C_9
REMARK    4  A    between atoms: C_16  and  C_17
REMARK                            x       y       z     vdW  Elec       q    Type
REMARK                         _______ _______ _______ _____ _____    ______ ____
ROOT
ATOM      1  C   UNL     1       3.868   6.304  17.443  0.00  0.00    +0.000 A 
ATOM      2  S   UNL     1       4.847   7.202  16.268  0.00  0.00    +0.000 S 
ATOM      3  C   UNL     1       5.476   5.691  15.710  0.00  0.00    +0.000 A 
ATOM      4  N   UNL     1       6.338   5.326  14.807  0.00  0.00    +0.000 NA
ATOM      5  C   UNL     1       6.317   3.964  14.967  0.00  0.00    +0.000 A 
ATOM      6  N   UNL     1       5.491   3.487  15.911  0.00  0.00    +0.000 NA
ATOM      7  N   UNL     1       4.947   4.626  16.390  0.00  0.00    +0.000 N 
ATOM      8  C   UNL     1       4.029   4.962  17.376  0.00  0.00    +0.000 A 
ENDROOT
BRANCH   8   9
ATOM      9  C   UNL     1       3.347   3.975  18.215  0.00  0.00    +0.000 A 
ATOM     10  C   UNL     1       3.981   3.419  19.336  0.00  0.00    +0.000 A 
ATOM     11  C   UNL     1       3.315   2.484  20.136  0.00  0.00    +0.000 A 
ATOM     12  C   UNL     1       2.012   2.100  19.824  0.00  0.00    +0.000 A 
ATOM     13  C   UNL     1       1.388   2.653  18.714  0.00  0.00    +0.000 A 
ATOM     14  F   UNL     1       0.136   2.285  18.410  0.00  0.00    +0.000 F 
ATOM     15  C   UNL     1       2.039   3.582  17.909  0.00  0.00    +0.000 A 
ENDBRANCH   8   9
BRANCH   1  19
ATOM     16  C   UNL     1       1.352   8.472  20.101  0.00  0.00    +0.000 A 
ATOM     17  C   UNL     1       1.945   7.280  20.523  0.00  0.00    +0.000 A 
ATOM     18  C   UNL     1       2.790   6.588  19.653  0.00  0.00    +0.000 A 
ATOM     19  C   UNL     1       3.037   7.078  18.363  0.00  0.00    +0.000 A 
ATOM     20  C   UNL     1       2.444   8.281  17.956  0.00  0.00    +0.000 A 
ATOM     21  C   UNL     1       1.597   8.978  18.821  0.00  0.00    +0.000 A 
BRANCH  16  23
ATOM     22  C   UNL     1      -0.731  10.336  20.063  0.00  0.00    +0.000 C 
ATOM     23  S   UNL     1       0.182   9.290  21.163  0.00  0.00    +0.000 S 
ATOM     24  O   UNL     1       0.937  10.137  22.067  0.00  0.00    +0.000 OA
ATOM     25  O   UNL     1      -0.720   8.276  21.675  0.00  0.00    +0.000 OA
ENDBRANCH  16  23
ENDBRANCH   1  19
TORSDOF 3
ENDMDL
MODEL 5
REMARK VINA RESULT:      -8.6      0.767      1.377
REMARK  Name = 
REMARK  4 active torsions:
REMARK  status: ('A' for Active; 'I' for Inactive)
REMARK    1  A    between atoms: C_1  and  S_2
REMARK    2  A    between atoms: S_2  and  C_5
REMARK    3  A    between atoms: C_8  and  C_9
REMARK    4  A    between atoms: C_16  and  C_17
REMARK                            x       y       z     vdW  Elec       q    Type
REMARK                         _______ _______ _______ _____ _____    ______ ____
ROOT
ATOM      1  C   UNL     1       3.790   6.445  17.473  0.00  0.00    +0.000 A 
ATOM      2  S   UNL     1       4.899   7.247  16.346  0.00  0.00    +0.000 S 
ATOM      3  C   UNL     1       5.459   5.684  15.861  0.00  0.00    +0.000 A 
ATOM      4  N   UNL     1       6.350   5.241  15.023  0.00  0.00    +0.000 NA
ATOM      5  C   UNL     1       6.227   3.887  15.210  0.00  0.00    +0.000 A 
ATOM      6  N   UNL     1       5.313   3.489  16.108  0.00  0.00    +0.000 NA
ATOM      7  N   UNL     1       4.818   4.674  16.527  0.00  0.00    +0.000 N 
ATOM      8  C   UNL     1       3.864   5.093  17.445  0.00  0.00    +0.000 A 
ENDROOT
BRANCH   8   9
ATOM      9  C   UNL     1       3.066   4.175  18.258  0.00  0.00    +0.000 A 
ATOM     10  C   UNL     1       1.778   3.791  17.858  0.00  0.00    +0.000 A 
ATOM     11  C   UNL     1       1.027   2.905  18.638  0.00  0.00    +0.000 A 
ATOM     12  C   UNL     1       1.558   2.394  19.821  0.00  0.00    +0.000 A 
ATOM     13  C   UNL     1       2.834   2.777  20.214  0.00  0.00    +0.000 A 
ATOM     14  F   UNL     1       3.348   2.289  21.352  0.00  0.00    +0.000 F 
ATOM     15  C   UNL     1       3.590   3.659  19.448  0.00  0.00    +0.000 A 
ENDBRANCH   8   9
BRANCH   1  19
ATOM     16  C   UNL     1       1.266   8.832  19.928  0.00  0.00    +0.000 A 
ATOM     17  C   UNL     1       1.854   7.677  20.451  0.00  0.00    +0.000 A 
ATOM     18  C   UNL     1       2.701   6.914  19.647  0.00  0.00    +0.000 A 
ATOM     19  C   UNL     1       2.957   7.294  18.322  0.00  0.00    +0.000 A 
ATOM     20  C   UNL     1       2.370   8.460  17.813  0.00  0.00    +0.000 A 
ATOM     21  C   UNL     1       1.520   9.230  18.613  0.00  0.00    +0.000 A 
BRANCH  16  23
ATOM     22  C   UNL     1      -0.938  10.538  19.716  0.00  0.00    +0.000 C 
ATOM     23  S   UNL     1       0.094   9.738  20.913  0.00  0.00    +0.000 S 
ATOM     24  O   UNL     1       0.830  10.762  21.629  0.00  0.00    +0.000 OA
ATOM     25  O   UNL     1      -0.714   8.767  21.627  0.00  0.00    +0.000 OA
ENDBRANCH  16  23
ENDBRANCH   1  19
TORSDOF 3
ENDMDL
MODEL 6
REMARK VINA RESULT:      -8.5      1.216      1.632
REMARK  Name = 
REMARK  4 active torsions:
REMARK  status: ('A' for Active; 'I' for Inactive)
REMARK    1  A    between atoms: C_1  and  S_2
REMARK    2  A    between atoms: S_2  and  C_5
REMARK    3  A    between atoms: C_8  and  C_9
REMARK    4  A    between atoms: C_16  and  C_17
REMARK                            x       y       z     vdW  Elec       q    Type
REMARK                         _______ _______ _______ _____ _____    ______ ____
ROOT
ATOM      1  C   UNL     1       3.454   6.571  17.783  0.00  0.00    +0.000 A 
ATOM      2  S   UNL     1       4.557   7.298  16.600  0.00  0.00    +0.000 S 
ATOM      3  C   UNL     1       5.171   5.715  16.272  0.00  0.00    +0.000 A 
ATOM      4  N   UNL     1       6.088   5.224  15.491  0.00  0.00    +0.000 NA
ATOM      5  C   UNL     1       6.003   3.890  15.803  0.00  0.00    +0.000 A 
ATOM      6  N   UNL     1       5.086   3.550  16.723  0.00  0.00    +0.000 NA
ATOM      7  N   UNL     1       4.549   4.752  17.022  0.00  0.00    +0.000 N 
ATOM      8  C   UNL     1       3.569   5.226  17.883  0.00  0.00    +0.000 A 
ENDROOT
BRANCH   8   9
ATOM      9  C   UNL     1       2.785   4.363  18.768  0.00  0.00    +0.000 A 
ATOM     10  C   UNL     1       3.074   4.282  20.138  0.00  0.00    +0.000 A 
ATOM     11  C   UNL     1       2.312   3.461  20.977  0.00  0.00    +0.000 A 
ATOM     12  C   UNL     1       1.254   2.719  20.454  0.00  0.00    +0.000 A 
ATOM     13  C   UNL     1       0.971   2.803  19.097  0.00  0.00    +0.000 A 
ATOM     14  F   UNL     1      -0.044   2.089  18.590  0.00  0.00    +0.000 F 
ATOM     15  C   UNL     1       1.723   3.613  18.252  0.00  0.00    +0.000 A 
ENDBRANCH   8   9
BRANCH   1  19
ATOM     16  C   UNL     1       1.016   9.273  19.986  0.00  0.00    +0.000 A 
ATOM     17  C   UNL     1       1.265   9.508  18.631  0.00  0.00    +0.000 A 
ATOM     18  C   UNL     1       2.045   8.603  17.910  0.00  0.00    +0.000 A 
ATOM     19  C   UNL     1       2.583   7.470  18.537  0.00  0.00    +0.000 A 
ATOM     20  C   UNL     1       2.317   7.240  19.894  0.00  0.00    +0.000 A 
ATOM     21  C   UNL     1       1.537   8.143  20.622  0.00  0.00    +0.000 A 
BRANCH  16  23
ATOM     22  C   UNL     1      -1.041  11.154  19.779  0.00  0.00    +0.000 C 
ATOM     23  S   UNL     1       0.125  10.487  20.933  0.00  0.00    +0.000 S 
ATOM     24  O   UNL     1       1.062  11.537  21.283  0.00  0.00    +0.000 OA
ATOM     25  O   UNL     1      -0.613   9.777  21.961  0.00  0.00    +0.000 OA
ENDBRANCH  16  23
ENDBRANCH   1  19
TORSDOF 3
ENDMDL
MODEL 7
REMARK VINA RESULT:      -8.3      3.929      5.731
REMARK  Name = 
REMARK  4 active torsions:
REMARK  status: ('A' for Active; 'I' for Inactive)
REMARK    1  A    between atoms: C_1  and  S_2
REMARK    2  A    between atoms: S_2  and  C_5
REMARK    3  A    between atoms: C_8  and  C_9
REMARK    4  A    between atoms: C_16  and  C_17
REMARK                            x       y       z     vdW  Elec       q    Type
REMARK                         _______ _______ _______ _____ _____    ______ ____
ROOT
ATOM      1  C   UNL     1       5.383   4.347  15.711  0.00  0.00    +0.000 A 
ATOM      2  S   UNL     1       4.983   3.650  14.131  0.00  0.00    +0.000 S 
ATOM      3  C   UNL     1       6.435   4.353  13.507  0.00  0.00    +0.000 A 
ATOM      4  N   UNL     1       7.017   4.391  12.344  0.00  0.00    +0.000 NA
ATOM      5  C   UNL     1       8.121   5.152  12.635  0.00  0.00    +0.000 A 
ATOM      6  N   UNL     1       8.239   5.572  13.904  0.00  0.00    +0.000 NA
ATOM      7  N   UNL     1       7.130   5.043  14.464  0.00  0.00    +0.000 N 
ATOM      8  C   UNL     1       6.544   5.045  15.723  0.00  0.00    +0.000 A 
ENDROOT
BRANCH   8   9
ATOM      9  C   UNL     1       7.125   5.720  16.884  0.00  0.00    +0.000 A 
ATOM     10  C   UNL     1       7.530   4.994  18.013  0.00  0.00    +0.000 A 
ATOM     11  C   UNL     1       8.094   5.649  19.114  0.00  0.00    +0.000 A 
ATOM     12  C   UNL     1       8.258   7.032  19.093  0.00  0.00    +0.000 A 
ATOM     13  C   UNL     1       7.855   7.748  17.973  0.00  0.00    +0.000 A 
ATOM     14  F   UNL     1       8.010   9.079  17.951  0.00  0.00    +0.000 F 
ATOM     15  C   UNL     1       7.292   7.109  16.873  0.00  0.00    +0.000 A 
ENDBRANCH   8   9
BRANCH   1  19
ATOM     16  C   UNL     1       2.531   3.700  18.800  0.00  0.00    +0.000 A 
ATOM     17  C   UNL     1       3.204   2.613  18.236  0.00  0.00    +0.000 A 
ATOM     18  C   UNL     1       4.157   2.836  17.241  0.00  0.00    +0.000 A 
ATOM     19  C   UNL     1       4.434   4.139  16.802  0.00  0.00    +0.000 A 
ATOM     20  C   UNL     1       3.760   5.221  17.383  0.00  0.00    +0.000 A 
ATOM     21  C   UNL     1       2.805   5.005  18.380  0.00  0.00    +0.000 A 
BRANCH  16  23
ATOM     22  C   UNL     1       2.045   2.550  21.301  0.00  0.00    +0.000 C 
ATOM     23  S   UNL     1       1.233   3.407  19.981  0.00  0.00    +0.000 S 
ATOM     24  O   UNL     1       0.287   2.495  19.367  0.00  0.00    +0.000 OA
ATOM     25  O   UNL     1       0.802   4.699  20.480  0.00  0.00    +0.000 OA
ENDBRANCH  16  23
ENDBRANCH   1  19
TORSDOF 3
ENDMDL
MODEL 8
REMARK VINA RESULT:      -8.2      3.870      5.617
REMARK  Name = 
REMARK  4 active torsions:
REMARK  status: ('A' for Active; 'I' for Inactive)
REMARK    1  A    between atoms: C_1  and  S_2
REMARK    2  A    between atoms: S_2  and  C_5
REMARK    3  A    between atoms: C_8  and  C_9
REMARK    4  A    between atoms: C_16  and  C_17
REMARK                            x       y       z     vdW  Elec       q    Type
REMARK                         _______ _______ _______ _____ _____    ______ ____
ROOT
ATOM      1  C   UNL     1       5.382   4.399  15.668  0.00  0.00    +0.000 A 
ATOM      2  S   UNL     1       4.990   3.698  14.088  0.00  0.00    +0.000 S 
ATOM      3  C   UNL     1       6.455   4.381  13.475  0.00  0.00    +0.000 A 
ATOM      4  N   UNL     1       7.050   4.406  12.318  0.00  0.00    +0.000 NA
ATOM      5  C   UNL     1       8.160   5.156  12.616  0.00  0.00    +0.000 A 
ATOM      6  N   UNL     1       8.270   5.581  13.884  0.00  0.00    +0.000 NA
ATOM      7  N   UNL     1       7.149   5.068  14.436  0.00  0.00    +0.000 N 
ATOM      8  C   UNL     1       6.550   5.083  15.688  0.00  0.00    +0.000 A 
ENDROOT
BRANCH   8   9
ATOM      9  C   UNL     1       7.127   5.758  16.852  0.00  0.00    +0.000 A 
ATOM     10  C   UNL     1       7.531   5.032  17.981  0.00  0.00    +0.000 A 
ATOM     11  C   UNL     1       8.091   5.686  19.084  0.00  0.00    +0.000 A 
ATOM     12  C   UNL     1       8.252   7.070  19.065  0.00  0.00    +0.000 A 
ATOM     13  C   UNL     1       7.851   7.787  17.945  0.00  0.00    +0.000 A 
ATOM     14  F   UNL     1       8.003   9.118  17.924  0.00  0.00    +0.000 F 
ATOM     15  C   UNL     1       7.292   7.148  16.843  0.00  0.00    +0.000 A 
ENDBRANCH   8   9
BRANCH   1  19
ATOM     16  C   UNL     1       2.667   3.894  18.904  0.00  0.00    +0.000 A 
ATOM     17  C   UNL     1       2.842   5.158  18.334  0.00  0.00    +0.000 A 
ATOM     18  C   UNL     1       3.715   5.310  17.256  0.00  0.00    +0.000 A 
ATOM     19  C   UNL     1       4.419   4.208  16.751  0.00  0.00    +0.000 A 
ATOM     20  C   UNL     1       4.227   2.943  17.324  0.00  0.00    +0.000 A 
ATOM     21  C   UNL     1       3.354   2.784  18.404  0.00  0.00    +0.000 A 
BRANCH  16  23
ATOM     22  C   UNL     1       2.641   2.759  21.458  0.00  0.00    +0.000 C 
ATOM     23  S   UNL     1       1.648   3.722  20.352  0.00  0.00    +0.000 S 
ATOM     24  O   UNL     1       0.493   2.927  19.977  0.00  0.00    +0.000 OA
ATOM     25  O   UNL     1       1.485   5.044  20.926  0.00  0.00    +0.000 OA
ENDBRANCH  16  23
ENDBRANCH   1  19
TORSDOF 3
ENDMDL
MODEL 9
REMARK VINA RESULT:      -8.2      3.639      5.520
REMARK  Name = 
REMARK  4 active torsions:
REMARK  status: ('A' for Active; 'I' for Inactive)
REMARK    1  A    between atoms: C_1  and  S_2
REMARK    2  A    between atoms: S_2  and  C_5
REMARK    3  A    between atoms: C_8  and  C_9
REMARK    4  A    between atoms: C_16  and  C_17
REMARK                            x       y       z     vdW  Elec       q    Type
REMARK                         _______ _______ _______ _____ _____    ______ ____
ROOT
ATOM      1  C   UNL     1       5.414   4.412  15.751  0.00  0.00    +0.000 A 
ATOM      2  S   UNL     1       4.997   3.627  14.217  0.00  0.00    +0.000 S 
ATOM      3  C   UNL     1       6.422   4.326  13.529  0.00  0.00    +0.000 A 
ATOM      4  N   UNL     1       6.980   4.316  12.353  0.00  0.00    +0.000 NA
ATOM      5  C   UNL     1       8.074   5.112  12.583  0.00  0.00    +0.000 A 
ATOM      6  N   UNL     1       8.208   5.598  13.826  0.00  0.00    +0.000 NA
ATOM      7  N   UNL     1       7.121   5.077  14.435  0.00  0.00    +0.000 N 
ATOM      8  C   UNL     1       6.560   5.132  15.704  0.00  0.00    +0.000 A 
ENDROOT
BRANCH   8   9
ATOM      9  C   UNL     1       7.149   5.877  16.817  0.00  0.00    +0.000 A 
ATOM     10  C   UNL     1       7.301   7.269  16.753  0.00  0.00    +0.000 A 
ATOM     11  C   UNL     1       7.857   7.973  17.827  0.00  0.00    +0.000 A 
ATOM     12  C   UNL     1       8.262   7.291  18.973  0.00  0.00    +0.000 A 
ATOM     13  C   UNL     1       8.110   5.911  19.033  0.00  0.00    +0.000 A 
ATOM     14  F   UNL     1       8.501   5.252  20.132  0.00  0.00    +0.000 F 
ATOM     15  C   UNL     1       7.561   5.200  17.971  0.00  0.00    +0.000 A 
ENDBRANCH   8   9
BRANCH   1  19
ATOM     16  C   UNL     1       2.637   3.867  18.927  0.00  0.00    +0.000 A 
ATOM     17  C   UNL     1       3.331   2.768  18.414  0.00  0.00    +0.000 A 
ATOM     18  C   UNL     1       4.259   2.959  17.390  0.00  0.00    +0.000 A 
ATOM     19  C   UNL     1       4.491   4.241  16.871  0.00  0.00    +0.000 A 
ATOM     20  C   UNL     1       3.796   5.337  17.401  0.00  0.00    +0.000 A 
ATOM     21  C   UNL     1       2.865   5.152  18.428  0.00  0.00    +0.000 A 
BRANCH  16  23
ATOM     22  C   UNL     1       2.214   2.784  21.469  0.00  0.00    +0.000 C 
ATOM     23  S   UNL     1       1.369   3.607  20.148  0.00  0.00    +0.000 S 
ATOM     24  O   UNL     1       0.407   2.680  19.582  0.00  0.00    +0.000 OA
ATOM     25  O   UNL     1       0.952   4.912  20.623  0.00  0.00    +0.000 OA
ENDBRANCH  16  23
ENDBRANCH   1  19
TORSDOF 3
ENDMDL
