MODEL 1
REMARK VINA RESULT:      -7.7      0.000      0.000
REMARK  Name = 
REMARK  10 active torsions:
REMARK  status: ('A' for Active; 'I' for Inactive)
REMARK    1  A    between atoms: C_1  and  C_2
REMARK    2  A    between atoms: C_2  and  C_3
REMARK    3  A    between atoms: C_3  and  C_4
REMARK    4  A    between atoms: C_4  and  C_5
REMARK    5  A    between atoms: C_5  and  C_6
REMARK    6  A    between atoms: C_6  and  C_7
REMARK    7  A    between atoms: C_7  and  O_8
REMARK    8  A    between atoms: O_8  and  C_9
REMARK    9  A    between atoms: C_12  and  C_13
REMARK   10  A    between atoms: C_13  and  C_14
REMARK                            x       y       z     vdW  Elec       q    Type
REMARK                         _______ _______ _______ _____ _____    ______ ____
ROOT
ATOM      1  C   UNL     1       5.579   5.408  15.540  0.00  0.00    +0.000 A 
ATOM      2  C   UNL     1       5.233   4.079  15.771  0.00  0.00    +0.000 A 
ATOM      3  C   UNL     1       4.382   3.733  16.817  0.00  0.00    +0.000 A 
ATOM      4  C   UNL     1       3.863   4.697  17.690  0.00  0.00    +0.000 A 
ATOM      5  C   UNL     1       4.194   6.041  17.435  0.00  0.00    +0.000 A 
ATOM      6  C   UNL     1       5.047   6.390  16.374  0.00  0.00    +0.000 A 
ENDROOT
BRANCH   4   7
ATOM      7  C   UNL     1       2.961   4.272  18.839  0.00  0.00    +0.000 C 
ATOM      8  C   UNL     1       2.775   5.334  19.937  0.00  0.00    +0.000 C 
ATOM      9  N   UNL     1       1.649   3.842  18.400  0.00  0.00    +0.000 N 
ATOM     10  C   UNL     1       1.290   2.638  18.951  0.00  0.00    +0.000 C 
ATOM     11  O   UNL     1       0.188   2.128  18.861  0.00  0.00    +0.000 OA
ATOM     12  N   UNL     1       2.358   2.124  19.602  0.00  0.00    +0.000 N 
ATOM     13  C   UNL     1       3.425   2.970  19.528  0.00  0.00    +0.000 C 
ATOM     14  O   UNL     1       4.525   2.746  20.011  0.00  0.00    +0.000 OA
ATOM     15  H   UNL     1       0.977   4.425  17.919  0.00  0.00    +0.000 HD
ATOM     16  H   UNL     1       2.367   1.230  20.059  0.00  0.00    +0.000 HD
ENDBRANCH   4   7
BRANCH   1  17
ATOM     17  O   UNL     1       6.413   5.835  14.533  0.00  0.00    +0.000 OA
BRANCH  17  18
ATOM     18  C   UNL     1       7.299   4.824  14.049  0.00  0.00    +0.000 C 
BRANCH  18  19
ATOM     19  C   UNL     1       7.190   4.655  12.540  0.00  0.00    +0.000 C 
BRANCH  19  20
ATOM     20  C   UNL     1       6.503   3.320  12.245  0.00  0.00    +0.000 C 
BRANCH  20  21
ATOM     21  C   UNL     1       4.988   3.457  12.166  0.00  0.00    +0.000 C 
BRANCH  21  22
ATOM     22  C   UNL     1       4.455   2.857  10.865  0.00  0.00    +0.000 C 
BRANCH  22  24
ATOM     23  C   UNL     1       2.902   4.294   9.502  0.00  0.00    +0.000 C 
ATOM     24  C   UNL     1       3.006   3.276  10.625  0.00  0.00    +0.000 C 
ENDBRANCH  22  24
ENDBRANCH  21  22
ENDBRANCH  20  21
ENDBRANCH  19  20
ENDBRANCH  18  19
ENDBRANCH  17  18
ENDBRANCH   1  17
TORSDOF 8
ENDMDL
MODEL 2
REMARK VINA RESULT:      -7.6      0.301      1.055
REMARK  Name = 
REMARK  10 active torsions:
REMARK  status: ('A' for Active; 'I' for Inactive)
REMARK    1  A    between atoms: C_1  and  C_2
REMARK    2  A    between atoms: C_2  and  C_3
REMARK    3  A    between atoms: C_3  and  C_4
REMARK    4  A    between atoms: C_4  and  C_5
REMARK    5  A    between atoms: C_5  and  C_6
REMARK    6  A    between atoms: C_6  and  C_7
REMARK    7  A    between atoms: C_7  and  O_8
REMARK    8  A    between atoms: O_8  and  C_9
REMARK    9  A    between atoms: C_12  and  C_13
REMARK   10  A    between atoms: C_13  and  C_14
REMARK                            x       y       z     vdW  Elec       q    Type
REMARK                         _______ _______ _______ _____ _____    ______ ____
ROOT
ATOM      1  C   UNL     1       5.510   5.582  15.848  0.00  0.00    +0.000 A 
ATOM      2  C   UNL     1       5.133   6.455  16.865  0.00  0.00    +0.000 A 
ATOM      3  C   UNL     1       4.296   6.034  17.895  0.00  0.00    +0.000 A 
ATOM      4  C   UNL     1       3.783   4.732  17.938  0.00  0.00    +0.000 A 
ATOM      5  C   UNL     1       4.190   3.846  16.922  0.00  0.00    +0.000 A 
ATOM      6  C   UNL     1       5.040   4.270  15.886  0.00  0.00    +0.000 A 
ENDROOT
BRANCH   4   7
ATOM      7  C   UNL     1       2.848   4.321  19.065  0.00  0.00    +0.000 C 
ATOM      8  C   UNL     1       2.684   5.372  20.178  0.00  0.00    +0.000 C 
ATOM      9  N   UNL     1       1.528   3.947  18.599  0.00  0.00    +0.000 N 
ATOM     10  C   UNL     1       1.117   2.748  19.124  0.00  0.00    +0.000 C 
ATOM     11  O   UNL     1      -0.001   2.280  19.008  0.00  0.00    +0.000 OA
ATOM     12  N   UNL     1       2.156   2.185  19.783  0.00  0.00    +0.000 N 
ATOM     13  C   UNL     1       3.254   2.993  19.739  0.00  0.00    +0.000 C 
ATOM     14  O   UNL     1       4.336   2.721  20.235  0.00  0.00    +0.000 OA
ATOM     15  H   UNL     1       0.886   4.561  18.118  0.00  0.00    +0.000 HD
ATOM     16  H   UNL     1       2.125   1.284  20.225  0.00  0.00    +0.000 HD
ENDBRANCH   4   7
BRANCH   1  17
ATOM     17  O   UNL     1       6.328   5.917  14.794  0.00  0.00    +0.000 OA
BRANCH  17  18
ATOM     18  C   UNL     1       7.159   4.843  14.345  0.00  0.00    +0.000 C 
BRANCH  18  19
ATOM     19  C   UNL     1       7.051   4.639  12.841  0.00  0.00    +0.000 C 
BRANCH  19  20
ATOM     20  C   UNL     1       6.271   3.350  12.575  0.00  0.00    +0.000 C 
BRANCH  20  21
ATOM     21  C   UNL     1       4.814   3.621  12.221  0.00  0.00    +0.000 C 
BRANCH  21  22
ATOM     22  C   UNL     1       4.468   3.028  10.854  0.00  0.00    +0.000 C 
BRANCH  22  24
ATOM     23  C   UNL     1       2.889   4.326   9.386  0.00  0.00    +0.000 C 
ATOM     24  C   UNL     1       3.008   3.297  10.497  0.00  0.00    +0.000 C 
ENDBRANCH  22  24
ENDBRANCH  21  22
ENDBRANCH  20  21
ENDBRANCH  19  20
ENDBRANCH  18  19
ENDBRANCH  17  18
ENDBRANCH   1  17
TORSDOF 8
ENDMDL
MODEL 3
REMARK VINA RESULT:      -7.4      3.683      6.437
REMARK  Name = 
REMARK  10 active torsions:
REMARK  status: ('A' for Active; 'I' for Inactive)
REMARK    1  A    between atoms: C_1  and  C_2
REMARK    2  A    between atoms: C_2  and  C_3
REMARK    3  A    between atoms: C_3  and  C_4
REMARK    4  A    between atoms: C_4  and  C_5
REMARK    5  A    between atoms: C_5  and  C_6
REMARK    6  A    between atoms: C_6  and  C_7
REMARK    7  A    between atoms: C_7  and  O_8
REMARK    8  A    between atoms: O_8  and  C_9
REMARK    9  A    between atoms: C_12  and  C_13
REMARK   10  A    between atoms: C_13  and  C_14
REMARK                            x       y       z     vdW  Elec       q    Type
REMARK                         _______ _______ _______ _____ _____    ______ ____
ROOT
ATOM      1  C   UNL     1       5.207   6.127  17.266  0.00  0.00    +0.000 A 
ATOM      2  C   UNL     1       4.039   6.400  17.975  0.00  0.00    +0.000 A 
ATOM      3  C   UNL     1       3.286   5.372  18.534  0.00  0.00    +0.000 A 
ATOM      4  C   UNL     1       3.654   4.028  18.388  0.00  0.00    +0.000 A 
ATOM      5  C   UNL     1       4.850   3.761  17.695  0.00  0.00    +0.000 A 
ATOM      6  C   UNL     1       5.614   4.800  17.135  0.00  0.00    +0.000 A 
ENDROOT
BRANCH   4   7
ATOM      7  C   UNL     1       2.786   2.934  18.990  0.00  0.00    +0.000 C 
ATOM      8  C   UNL     1       3.024   1.530  18.406  0.00  0.00    +0.000 C 
ATOM      9  N   UNL     1       2.901   2.849  20.432  0.00  0.00    +0.000 N 
ATOM     10  C   UNL     1       1.675   2.819  21.046  0.00  0.00    +0.000 C 
ATOM     11  O   UNL     1       1.491   2.605  22.231  0.00  0.00    +0.000 OA
ATOM     12  N   UNL     1       0.720   3.063  20.120  0.00  0.00    +0.000 N 
ATOM     13  C   UNL     1       1.274   3.230  18.885  0.00  0.00    +0.000 C 
ATOM     14  O   UNL     1       0.644   3.482  17.869  0.00  0.00    +0.000 OA
ATOM     15  H   UNL     1       3.750   2.630  20.936  0.00  0.00    +0.000 HD
ATOM     16  H   UNL     1      -0.261   3.133  20.321  0.00  0.00    +0.000 HD
ENDBRANCH   4   7
BRANCH   1  17
ATOM     17  O   UNL     1       6.007   7.080  16.680  0.00  0.00    +0.000 OA
BRANCH  17  18
ATOM     18  C   UNL     1       7.406   6.844  16.851  0.00  0.00    +0.000 C 
BRANCH  18  19
ATOM     19  C   UNL     1       7.938   7.503  18.115  0.00  0.00    +0.000 C 
BRANCH  19  20
ATOM     20  C   UNL     1       8.094   9.004  17.857  0.00  0.00    +0.000 C 
BRANCH  20  21
ATOM     21  C   UNL     1       9.006   9.671  18.879  0.00  0.00    +0.000 C 
BRANCH  21  22
ATOM     22  C   UNL     1       9.486  11.032  18.372  0.00  0.00    +0.000 C 
BRANCH  22  24
ATOM     23  C   UNL     1      10.160  11.738  20.692  0.00  0.00    +0.000 C 
ATOM     24  C   UNL     1      10.611  11.574  19.250  0.00  0.00    +0.000 C 
ENDBRANCH  22  24
ENDBRANCH  21  22
ENDBRANCH  20  21
ENDBRANCH  19  20
ENDBRANCH  18  19
ENDBRANCH  17  18
ENDBRANCH   1  17
TORSDOF 8
ENDMDL
MODEL 4
REMARK VINA RESULT:      -7.4      3.277      7.002
REMARK  Name = 
REMARK  10 active torsions:
REMARK  status: ('A' for Active; 'I' for Inactive)
REMARK    1  A    between atoms: C_1  and  C_2
REMARK    2  A    between atoms: C_2  and  C_3
REMARK    3  A    between atoms: C_3  and  C_4
REMARK    4  A    between atoms: C_4  and  C_5
REMARK    5  A    between atoms: C_5  and  C_6
REMARK    6  A    between atoms: C_6  and  C_7
REMARK    7  A    between atoms: C_7  and  O_8
REMARK    8  A    between atoms: O_8  and  C_9
REMARK    9  A    between atoms: C_12  and  C_13
REMARK   10  A    between atoms: C_13  and  C_14
REMARK                            x       y       z     vdW  Elec       q    Type
REMARK                         _______ _______ _______ _____ _____    ______ ____
ROOT
ATOM      1  C   UNL     1       3.243   2.673  18.702  0.00  0.00    +0.000 A 
ATOM      2  C   UNL     1       3.015   3.010  17.370  0.00  0.00    +0.000 A 
ATOM      3  C   UNL     1       3.878   3.866  16.692  0.00  0.00    +0.000 A 
ATOM      4  C   UNL     1       4.990   4.438  17.322  0.00  0.00    +0.000 A 
ATOM      5  C   UNL     1       5.231   4.071  18.659  0.00  0.00    +0.000 A 
ATOM      6  C   UNL     1       4.363   3.202  19.342  0.00  0.00    +0.000 A 
ENDROOT
BRANCH   4   7
ATOM      7  C   UNL     1       5.891   5.391  16.552  0.00  0.00    +0.000 C 
ATOM      8  C   UNL     1       5.735   5.329  15.022  0.00  0.00    +0.000 C 
ATOM      9  N   UNL     1       5.740   6.772  16.966  0.00  0.00    +0.000 N 
ATOM     10  C   UNL     1       6.950   7.370  17.215  0.00  0.00    +0.000 C 
ATOM     11  O   UNL     1       7.111   8.557  17.435  0.00  0.00    +0.000 OA
ATOM     12  N   UNL     1       7.917   6.426  17.173  0.00  0.00    +0.000 N 
ATOM     13  C   UNL     1       7.390   5.205  16.872  0.00  0.00    +0.000 C 
ATOM     14  O   UNL     1       8.036   4.171  16.791  0.00  0.00    +0.000 OA
ATOM     15  H   UNL     1       4.889   7.312  16.890  0.00  0.00    +0.000 HD
ATOM     16  H   UNL     1       8.888   6.600  17.360  0.00  0.00    +0.000 HD
ENDBRANCH   4   7
BRANCH   1  17
ATOM     17  O   UNL     1       2.441   1.839  19.446  0.00  0.00    +0.000 OA
BRANCH  17  18
ATOM     18  C   UNL     1       1.091   2.294  19.567  0.00  0.00    +0.000 C 
BRANCH  18  19
ATOM     19  C   UNL     1       0.932   3.289  20.708  0.00  0.00    +0.000 C 
BRANCH  19  20
ATOM     20  C   UNL     1       0.996   4.706  20.134  0.00  0.00    +0.000 C 
BRANCH  20  21
ATOM     21  C   UNL     1       2.009   5.577  20.866  0.00  0.00    +0.000 C 
BRANCH  21  22
ATOM     22  C   UNL     1       2.247   6.886  20.111  0.00  0.00    +0.000 C 
BRANCH  22  24
ATOM     23  C   UNL     1       2.374   7.938  17.828  0.00  0.00    +0.000 C 
ATOM     24  C   UNL     1       2.366   6.635  18.609  0.00  0.00    +0.000 C 
ENDBRANCH  22  24
ENDBRANCH  21  22
ENDBRANCH  20  21
ENDBRANCH  19  20
ENDBRANCH  18  19
ENDBRANCH  17  18
ENDBRANCH   1  17
TORSDOF 8
ENDMDL
MODEL 5
REMARK VINA RESULT:      -7.4      3.910      6.511
REMARK  Name = 
REMARK  10 active torsions:
REMARK  status: ('A' for Active; 'I' for Inactive)
REMARK    1  A    between atoms: C_1  and  C_2
REMARK    2  A    between atoms: C_2  and  C_3
REMARK    3  A    between atoms: C_3  and  C_4
REMARK    4  A    between atoms: C_4  and  C_5
REMARK    5  A    between atoms: C_5  and  C_6
REMARK    6  A    between atoms: C_6  and  C_7
REMARK    7  A    between atoms: C_7  and  O_8
REMARK    8  A    between atoms: O_8  and  C_9
REMARK    9  A    between atoms: C_12  and  C_13
REMARK   10  A    between atoms: C_13  and  C_14
REMARK                            x       y       z     vdW  Elec       q    Type
REMARK                         _______ _______ _______ _____ _____    ______ ____
ROOT
ATOM      1  C   UNL     1       5.345   6.285  17.390  0.00  0.00    +0.000 A 
ATOM      2  C   UNL     1       5.726   4.951  17.277  0.00  0.00    +0.000 A 
ATOM      3  C   UNL     1       4.912   3.931  17.764  0.00  0.00    +0.000 A 
ATOM      4  C   UNL     1       3.698   4.205  18.405  0.00  0.00    +0.000 A 
ATOM      5  C   UNL     1       3.305   5.554  18.492  0.00  0.00    +0.000 A 
ATOM      6  C   UNL     1       4.124   6.582  17.994  0.00  0.00    +0.000 A 
ENDROOT
BRANCH   4   7
ATOM      7  C   UNL     1       2.853   3.063  18.949  0.00  0.00    +0.000 C 
ATOM      8  C   UNL     1       3.197   1.678  18.372  0.00  0.00    +0.000 C 
ATOM      9  N   UNL     1       2.889   2.971  20.395  0.00  0.00    +0.000 N 
ATOM     10  C   UNL     1       1.632   2.872  20.936  0.00  0.00    +0.000 C 
ATOM     11  O   UNL     1       1.390   2.639  22.107  0.00  0.00    +0.000 OA
ATOM     12  N   UNL     1       0.722   3.076  19.957  0.00  0.00    +0.000 N 
ATOM     13  C   UNL     1       1.337   3.282  18.757  0.00  0.00    +0.000 C 
ATOM     14  O   UNL     1       0.755   3.511  17.708  0.00  0.00    +0.000 OA
ATOM     15  H   UNL     1       3.717   2.790  20.946  0.00  0.00    +0.000 HD
ATOM     16  H   UNL     1      -0.272   3.094  20.101  0.00  0.00    +0.000 HD
ENDBRANCH   4   7
BRANCH   1  17
ATOM     17  O   UNL     1       6.089   7.352  16.940  0.00  0.00    +0.000 OA
BRANCH  17  18
ATOM     18  C   UNL     1       7.501   7.139  17.005  0.00  0.00    +0.000 C 
BRANCH  18  19
ATOM     19  C   UNL     1       8.112   7.785  18.240  0.00  0.00    +0.000 C 
BRANCH  19  20
ATOM     20  C   UNL     1       8.231   9.291  17.998  0.00  0.00    +0.000 C 
BRANCH  20  21
ATOM     21  C   UNL     1       9.102   9.974  19.044  0.00  0.00    +0.000 C 
BRANCH  21  22
ATOM     22  C   UNL     1      10.027  11.003  18.394  0.00  0.00    +0.000 C 
BRANCH  22  24
ATOM     23  C   UNL     1      12.241  11.708  19.361  0.00  0.00    +0.000 C 
ATOM     24  C   UNL     1      10.731  11.849  19.452  0.00  0.00    +0.000 C 
ENDBRANCH  22  24
ENDBRANCH  21  22
ENDBRANCH  20  21
ENDBRANCH  19  20
ENDBRANCH  18  19
ENDBRANCH  17  18
ENDBRANCH   1  17
TORSDOF 8
ENDMDL
MODEL 6
REMARK VINA RESULT:      -7.4      2.959      6.894
REMARK  Name = 
REMARK  10 active torsions:
REMARK  status: ('A' for Active; 'I' for Inactive)
REMARK    1  A    between atoms: C_1  and  C_2
REMARK    2  A    between atoms: C_2  and  C_3
REMARK    3  A    between atoms: C_3  and  C_4
REMARK    4  A    between atoms: C_4  and  C_5
REMARK    5  A    between atoms: C_5  and  C_6
REMARK    6  A    between atoms: C_6  and  C_7
REMARK    7  A    between atoms: C_7  and  O_8
REMARK    8  A    between atoms: O_8  and  C_9
REMARK    9  A    between atoms: C_12  and  C_13
REMARK   10  A    between atoms: C_13  and  C_14
REMARK                            x       y       z     vdW  Elec       q    Type
REMARK                         _______ _______ _______ _____ _____    ______ ____
ROOT
ATOM      1  C   UNL     1       2.951   2.866  19.274  0.00  0.00    +0.000 A 
ATOM      2  C   UNL     1       2.806   2.847  17.889  0.00  0.00    +0.000 A 
ATOM      3  C   UNL     1       3.830   3.293  17.057  0.00  0.00    +0.000 A 
ATOM      4  C   UNL     1       5.029   3.798  17.575  0.00  0.00    +0.000 A 
ATOM      5  C   UNL     1       5.180   3.789  18.974  0.00  0.00    +0.000 A 
ATOM      6  C   UNL     1       4.149   3.332  19.813  0.00  0.00    +0.000 A 
ENDROOT
BRANCH   4   7
ATOM      7  C   UNL     1       6.109   4.303  16.631  0.00  0.00    +0.000 C 
ATOM      8  C   UNL     1       7.490   4.502  17.282  0.00  0.00    +0.000 C 
ATOM      9  N   UNL     1       6.278   3.463  15.462  0.00  0.00    +0.000 N 
ATOM     10  C   UNL     1       6.281   4.192  14.300  0.00  0.00    +0.000 C 
ATOM     11  O   UNL     1       6.549   3.750  13.197  0.00  0.00    +0.000 OA
ATOM     12  N   UNL     1       5.939   5.468  14.588  0.00  0.00    +0.000 N 
ATOM     13  C   UNL     1       5.734   5.625  15.927  0.00  0.00    +0.000 C 
ATOM     14  O   UNL     1       5.396   6.671  16.460  0.00  0.00    +0.000 OA
ATOM     15  H   UNL     1       6.566   2.494  15.479  0.00  0.00    +0.000 HD
ATOM     16  H   UNL     1       5.832   6.195  13.904  0.00  0.00    +0.000 HD
ENDBRANCH   4   7
BRANCH   1  17
ATOM     17  O   UNL     1       1.991   2.448  20.166  0.00  0.00    +0.000 OA
BRANCH  17  18
ATOM     18  C   UNL     1       1.514   3.483  21.028  0.00  0.00    +0.000 C 
BRANCH  18  19
ATOM     19  C   UNL     1       0.947   4.655  20.241  0.00  0.00    +0.000 C 
BRANCH  19  20
ATOM     20  C   UNL     1       1.555   5.951  20.783  0.00  0.00    +0.000 C 
BRANCH  20  21
ATOM     21  C   UNL     1       2.683   6.469  19.900  0.00  0.00    +0.000 C 
BRANCH  21  22
ATOM     22  C   UNL     1       2.237   6.550  18.439  0.00  0.00    +0.000 C 
BRANCH  22  24
ATOM     23  C   UNL     1       1.615   8.971  18.151  0.00  0.00    +0.000 C 
ATOM     24  C   UNL     1       2.630   7.890  17.822  0.00  0.00    +0.000 C 
ENDBRANCH  22  24
ENDBRANCH  21  22
ENDBRANCH  20  21
ENDBRANCH  19  20
ENDBRANCH  18  19
ENDBRANCH  17  18
ENDBRANCH   1  17
TORSDOF 8
ENDMDL
MODEL 7
REMARK VINA RESULT:      -7.2      4.132      6.581
REMARK  Name = 
REMARK  10 active torsions:
REMARK  status: ('A' for Active; 'I' for Inactive)
REMARK    1  A    between atoms: C_1  and  C_2
REMARK    2  A    between atoms: C_2  and  C_3
REMARK    3  A    between atoms: C_3  and  C_4
REMARK    4  A    between atoms: C_4  and  C_5
REMARK    5  A    between atoms: C_5  and  C_6
REMARK    6  A    between atoms: C_6  and  C_7
REMARK    7  A    between atoms: C_7  and  O_8
REMARK    8  A    between atoms: O_8  and  C_9
REMARK    9  A    between atoms: C_12  and  C_13
REMARK   10  A    between atoms: C_13  and  C_14
REMARK                            x       y       z     vdW  Elec       q    Type
REMARK                         _______ _______ _______ _____ _____    ______ ____
ROOT
ATOM      1  C   UNL     1       5.870   6.303  17.267  0.00  0.00    +0.000 A 
ATOM      2  C   UNL     1       4.541   6.195  16.865  0.00  0.00    +0.000 A 
ATOM      3  C   UNL     1       3.710   5.213  17.397  0.00  0.00    +0.000 A 
ATOM      4  C   UNL     1       4.179   4.284  18.335  0.00  0.00    +0.000 A 
ATOM      5  C   UNL     1       5.515   4.416  18.758  0.00  0.00    +0.000 A 
ATOM      6  C   UNL     1       6.352   5.411  18.225  0.00  0.00    +0.000 A 
ENDROOT
BRANCH   4   7
ATOM      7  C   UNL     1       3.245   3.209  18.869  0.00  0.00    +0.000 C 
ATOM      8  C   UNL     1       3.475   1.806  18.277  0.00  0.00    +0.000 C 
ATOM      9  N   UNL     1       3.275   3.100  20.313  0.00  0.00    +0.000 N 
ATOM     10  C   UNL     1       2.014   3.098  20.856  0.00  0.00    +0.000 C 
ATOM     11  O   UNL     1       1.756   2.873  22.024  0.00  0.00    +0.000 OA
ATOM     12  N   UNL     1       1.123   3.385  19.880  0.00  0.00    +0.000 N 
ATOM     13  C   UNL     1       1.752   3.552  18.682  0.00  0.00    +0.000 C 
ATOM     14  O   UNL     1       1.189   3.838  17.636  0.00  0.00    +0.000 OA
ATOM     15  H   UNL     1       4.086   2.847  20.861  0.00  0.00    +0.000 HD
ATOM     16  H   UNL     1       0.134   3.481  20.026  0.00  0.00    +0.000 HD
ENDBRANCH   4   7
BRANCH   1  17
ATOM     17  O   UNL     1       6.758   7.239  16.791  0.00  0.00    +0.000 OA
BRANCH  17  18
ATOM     18  C   UNL     1       7.780   7.593  17.725  0.00  0.00    +0.000 C 
BRANCH  18  19
ATOM     19  C   UNL     1       7.946   9.102  17.834  0.00  0.00    +0.000 C 
BRANCH  19  20
ATOM     20  C   UNL     1       9.005   9.403  18.897  0.00  0.00    +0.000 C 
BRANCH  20  21
ATOM     21  C   UNL     1       9.318  10.891  18.991  0.00  0.00    +0.000 C 
BRANCH  21  22
ATOM     22  C   UNL     1      10.137  11.351  17.783  0.00  0.00    +0.000 C 
BRANCH  22  24
ATOM     23  C   UNL     1      12.000  12.989  17.363  0.00  0.00    +0.000 C 
ATOM     24  C   UNL     1      11.523  11.824  18.213  0.00  0.00    +0.000 C 
ENDBRANCH  22  24
ENDBRANCH  21  22
ENDBRANCH  20  21
ENDBRANCH  19  20
ENDBRANCH  18  19
ENDBRANCH  17  18
ENDBRANCH   1  17
TORSDOF 8
ENDMDL
MODEL 8
REMARK VINA RESULT:      -7.2      3.365      7.076
REMARK  Name = 
REMARK  10 active torsions:
REMARK  status: ('A' for Active; 'I' for Inactive)
REMARK    1  A    between atoms: C_1  and  C_2
REMARK    2  A    between atoms: C_2  and  C_3
REMARK    3  A    between atoms: C_3  and  C_4
REMARK    4  A    between atoms: C_4  and  C_5
REMARK    5  A    between atoms: C_5  and  C_6
REMARK    6  A    between atoms: C_6  and  C_7
REMARK    7  A    between atoms: C_7  and  O_8
REMARK    8  A    between atoms: O_8  and  C_9
REMARK    9  A    between atoms: C_12  and  C_13
REMARK   10  A    between atoms: C_13  and  C_14
REMARK                            x       y       z     vdW  Elec       q    Type
REMARK                         _______ _______ _______ _____ _____    ______ ____
ROOT
ATOM      1  C   UNL     1       3.571   2.849  18.990  0.00  0.00    +0.000 A 
ATOM      2  C   UNL     1       4.607   3.615  19.519  0.00  0.00    +0.000 A 
ATOM      3  C   UNL     1       5.298   4.528  18.727  0.00  0.00    +0.000 A 
ATOM      4  C   UNL     1       4.999   4.696  17.369  0.00  0.00    +0.000 A 
ATOM      5  C   UNL     1       3.932   3.940  16.847  0.00  0.00    +0.000 A 
ATOM      6  C   UNL     1       3.231   3.023  17.649  0.00  0.00    +0.000 A 
ENDROOT
BRANCH   4   7
ATOM      7  C   UNL     1       5.799   5.683  16.533  0.00  0.00    +0.000 C 
ATOM      8  C   UNL     1       5.364   5.777  15.059  0.00  0.00    +0.000 C 
ATOM      9  N   UNL     1       5.805   7.021  17.088  0.00  0.00    +0.000 N 
ATOM     10  C   UNL     1       7.071   7.543  17.160  0.00  0.00    +0.000 C 
ATOM     11  O   UNL     1       7.338   8.695  17.451  0.00  0.00    +0.000 OA
ATOM     12  N   UNL     1       7.959   6.569  16.856  0.00  0.00    +0.000 N 
ATOM     13  C   UNL     1       7.317   5.405  16.551  0.00  0.00    +0.000 C 
ATOM     14  O   UNL     1       7.877   4.359  16.260  0.00  0.00    +0.000 OA
ATOM     15  H   UNL     1       4.986   7.600  17.220  0.00  0.00    +0.000 HD
ATOM     16  H   UNL     1       8.956   6.685  16.875  0.00  0.00    +0.000 HD
ENDBRANCH   4   7
BRANCH   1  17
ATOM     17  O   UNL     1       2.840   1.925  19.700  0.00  0.00    +0.000 OA
BRANCH  17  18
ATOM     18  C   UNL     1       2.216   2.458  20.870  0.00  0.00    +0.000 C 
BRANCH  18  19
ATOM     19  C   UNL     1       0.830   3.007  20.568  0.00  0.00    +0.000 C 
BRANCH  19  20
ATOM     20  C   UNL     1       0.976   4.422  20.003  0.00  0.00    +0.000 C 
BRANCH  20  21
ATOM     21  C   UNL     1       1.730   5.345  20.951  0.00  0.00    +0.000 C 
BRANCH  21  22
ATOM     22  C   UNL     1       2.300   6.549  20.200  0.00  0.00    +0.000 C 
BRANCH  22  24
ATOM     23  C   UNL     1       2.355   7.705  17.966  0.00  0.00    +0.000 C 
ATOM     24  C   UNL     1       2.099   6.397  18.695  0.00  0.00    +0.000 C 
ENDBRANCH  22  24
ENDBRANCH  21  22
ENDBRANCH  20  21
ENDBRANCH  19  20
ENDBRANCH  18  19
ENDBRANCH  17  18
ENDBRANCH   1  17
TORSDOF 8
ENDMDL
MODEL 9
REMARK VINA RESULT:      -7.2      4.117      6.620
REMARK  Name = 
REMARK  10 active torsions:
REMARK  status: ('A' for Active; 'I' for Inactive)
REMARK    1  A    between atoms: C_1  and  C_2
REMARK    2  A    between atoms: C_2  and  C_3
REMARK    3  A    between atoms: C_3  and  C_4
REMARK    4  A    between atoms: C_4  and  C_5
REMARK    5  A    between atoms: C_5  and  C_6
REMARK    6  A    between atoms: C_6  and  C_7
REMARK    7  A    between atoms: C_7  and  O_8
REMARK    8  A    between atoms: O_8  and  C_9
REMARK    9  A    between atoms: C_12  and  C_13
REMARK   10  A    between atoms: C_13  and  C_14
REMARK                            x       y       z     vdW  Elec       q    Type
REMARK                         _______ _______ _______ _____ _____    ______ ____
ROOT
ATOM      1  C   UNL     1       6.343   5.670  17.601  0.00  0.00    +0.000 A 
ATOM      2  C   UNL     1       6.140   5.390  18.950  0.00  0.00    +0.000 A 
ATOM      3  C   UNL     1       5.148   4.500  19.354  0.00  0.00    +0.000 A 
ATOM      4  C   UNL     1       4.303   3.873  18.429  0.00  0.00    +0.000 A 
ATOM      5  C   UNL     1       4.532   4.139  17.066  0.00  0.00    +0.000 A 
ATOM      6  C   UNL     1       5.537   5.032  16.658  0.00  0.00    +0.000 A 
ENDROOT
BRANCH   4   7
ATOM      7  C   UNL     1       3.213   2.931  18.916  0.00  0.00    +0.000 C 
ATOM      8  C   UNL     1       3.243   1.530  18.279  0.00  0.00    +0.000 C 
ATOM      9  N   UNL     1       3.202   2.773  20.356  0.00  0.00    +0.000 N 
ATOM     10  C   UNL     1       1.947   2.940  20.884  0.00  0.00    +0.000 C 
ATOM     11  O   UNL     1       1.639   2.719  22.041  0.00  0.00    +0.000 OA
ATOM     12  N   UNL     1       1.123   3.386  19.908  0.00  0.00    +0.000 N 
ATOM     13  C   UNL     1       1.789   3.497  18.723  0.00  0.00    +0.000 C 
ATOM     14  O   UNL     1       1.292   3.896  17.681  0.00  0.00    +0.000 OA
ATOM     15  H   UNL     1       3.959   2.386  20.904  0.00  0.00    +0.000 HD
ATOM     16  H   UNL     1       0.157   3.623  20.046  0.00  0.00    +0.000 HD
ENDBRANCH   4   7
BRANCH   1  17
ATOM     17  O   UNL     1       7.296   6.536  17.117  0.00  0.00    +0.000 OA
BRANCH  17  18
ATOM     18  C   UNL     1       7.877   7.373  18.119  0.00  0.00    +0.000 C 
BRANCH  18  19
ATOM     19  C   UNL     1       7.949   8.825  17.667  0.00  0.00    +0.000 C 
BRANCH  19  20
ATOM     20  C   UNL     1       8.854   9.594  18.632  0.00  0.00    +0.000 C 
BRANCH  20  21
ATOM     21  C   UNL     1       8.999  11.059  18.240  0.00  0.00    +0.000 C 
BRANCH  21  22
ATOM     22  C   UNL     1      10.446  11.382  17.868  0.00  0.00    +0.000 C 
BRANCH  22  24
ATOM     23  C   UNL     1       9.866  13.715  18.614  0.00  0.00    +0.000 C 
ATOM     24  C   UNL     1      10.931  12.632  18.599  0.00  0.00    +0.000 C 
ENDBRANCH  22  24
ENDBRANCH  21  22
ENDBRANCH  20  21
ENDBRANCH  19  20
ENDBRANCH  18  19
ENDBRANCH  17  18
ENDBRANCH   1  17
TORSDOF 8
ENDMDL
