MODEL 1
REMARK VINA RESULT:      -7.5      0.000      0.000
REMARK  Name = 
REMARK  6 active torsions:
REMARK  status: ('A' for Active; 'I' for Inactive)
REMARK    1  A    between atoms: C_1  and  C_2
REMARK    2  A    between atoms: C_7  and  N_8
REMARK    3  A    between atoms: N_8  and  C_9
REMARK    4  A    between atoms: C_9  and  C_10
REMARK    5  A    between atoms: N_12  and  N_13
REMARK    6  A    between atoms: C_14  and  C_15
REMARK                            x       y       z     vdW  Elec       q    Type
REMARK                         _______ _______ _______ _____ _____    ______ ____
ROOT
ATOM      1  C   UNL     1       7.462   6.816  17.806  0.00  0.00    +0.000 C 
ATOM      2  O   UNL     1       7.946   6.205  18.758  0.00  0.00    +0.000 OA
ATOM      3  N   UNL     1       7.719   8.147  17.493  0.00  0.00    +0.000 N 
ATOM      4  H   UNL     1       7.168   8.622  16.788  0.00  0.00    +0.000 HD
ENDROOT
BRANCH   3   5
ATOM      5  N   UNL     1       8.595   8.847  18.265  0.00  0.00    +0.000 NA
ATOM      6  C   UNL     1       8.707  10.112  18.019  0.00  0.00    +0.000 C 
BRANCH   6   7
ATOM      7  C   UNL     1       9.613  10.956  18.826  0.00  0.00    +0.000 A 
ATOM      8  C   UNL     1       9.402  11.103  20.196  0.00  0.00    +0.000 A 
ATOM      9  C   UNL     1      10.265  11.922  20.897  0.00  0.00    +0.000 A 
ATOM     10  N   UNL     1      11.298  12.582  20.327  0.00  0.00    +0.000 NA
ATOM     11  C   UNL     1      11.477  12.415  18.999  0.00  0.00    +0.000 A 
ATOM     12  C   UNL     1      10.670  11.616  18.206  0.00  0.00    +0.000 A 
ENDBRANCH   6   7
ENDBRANCH   3   5
BRANCH   1  13
ATOM     13  C   UNL     1       6.480   6.148  16.843  0.00  0.00    +0.000 C 
BRANCH  13  14
ATOM     14  N   UNL     1       5.107   6.596  17.106  0.00  0.00    +0.000 N 
ATOM     15  H   UNL     1       5.086   7.332  17.815  0.00  0.00    +0.000 HD
BRANCH  14  22
ATOM     16  C   UNL     1       2.587   7.442  18.310  0.00  0.00    +0.000 C 
ATOM     17  C   UNL     1       2.875   6.017  17.915  0.00  0.00    +0.000 A 
ATOM     18  C   UNL     1       1.856   5.060  18.100  0.00  0.00    +0.000 A 
ATOM     19  C   UNL     1       2.048   3.730  17.745  0.00  0.00    +0.000 A 
ATOM     20  C   UNL     1       3.259   3.340  17.188  0.00  0.00    +0.000 A 
ATOM     21  C   UNL     1       4.272   4.282  16.990  0.00  0.00    +0.000 A 
ATOM     22  C   UNL     1       4.120   5.626  17.370  0.00  0.00    +0.000 A 
ENDBRANCH  14  22
ENDBRANCH  13  14
ENDBRANCH   1  13
TORSDOF 5
ENDMDL
MODEL 2
REMARK VINA RESULT:      -7.4      1.484      2.143
REMARK  Name = 
REMARK  6 active torsions:
REMARK  status: ('A' for Active; 'I' for Inactive)
REMARK    1  A    between atoms: C_1  and  C_2
REMARK    2  A    between atoms: C_7  and  N_8
REMARK    3  A    between atoms: N_8  and  C_9
REMARK    4  A    between atoms: C_9  and  C_10
REMARK    5  A    between atoms: N_12  and  N_13
REMARK    6  A    between atoms: C_14  and  C_15
REMARK                            x       y       z     vdW  Elec       q    Type
REMARK                         _______ _______ _______ _____ _____    ______ ____
ROOT
ATOM      1  C   UNL     1       7.683   5.775  18.539  0.00  0.00    +0.000 C 
ATOM      2  O   UNL     1       8.212   5.533  19.623  0.00  0.00    +0.000 OA
ATOM      3  N   UNL     1       7.699   7.010  17.898  0.00  0.00    +0.000 N 
ATOM      4  H   UNL     1       7.115   7.172  17.086  0.00  0.00    +0.000 HD
ENDROOT
BRANCH   3   5
ATOM      5  N   UNL     1       8.370   8.044  18.476  0.00  0.00    +0.000 NA
ATOM      6  C   UNL     1       8.206   9.214  17.949  0.00  0.00    +0.000 C 
BRANCH   6   7
ATOM      7  C   UNL     1       8.873  10.398  18.529  0.00  0.00    +0.000 A 
ATOM      8  C   UNL     1       9.462  10.326  19.789  0.00  0.00    +0.000 A 
ATOM      9  C   UNL     1      10.052  11.468  20.293  0.00  0.00    +0.000 A 
ATOM     10  N   UNL     1      10.088  12.645  19.628  0.00  0.00    +0.000 NA
ATOM     11  C   UNL     1       9.511  12.681  18.408  0.00  0.00    +0.000 A 
ATOM     12  C   UNL     1       8.896  11.592  17.813  0.00  0.00    +0.000 A 
ENDBRANCH   6   7
ENDBRANCH   3   5
BRANCH   1  13
ATOM     13  C   UNL     1       6.915   4.703  17.766  0.00  0.00    +0.000 C 
BRANCH  13  14
ATOM     14  N   UNL     1       5.993   3.982  18.652  0.00  0.00    +0.000 N 
ATOM     15  H   UNL     1       6.220   2.987  18.692  0.00  0.00    +0.000 HD
BRANCH  14  22
ATOM     16  C   UNL     1       4.167   1.900  19.571  0.00  0.00    +0.000 C 
ATOM     17  C   UNL     1       3.700   3.192  18.954  0.00  0.00    +0.000 A 
ATOM     18  C   UNL     1       2.312   3.417  18.858  0.00  0.00    +0.000 A 
ATOM     19  C   UNL     1       1.811   4.593  18.312  0.00  0.00    +0.000 A 
ATOM     20  C   UNL     1       2.693   5.567  17.864  0.00  0.00    +0.000 A 
ATOM     21  C   UNL     1       4.072   5.361  17.964  0.00  0.00    +0.000 A 
ATOM     22  C   UNL     1       4.608   4.168  18.480  0.00  0.00    +0.000 A 
ENDBRANCH  14  22
ENDBRANCH  13  14
ENDBRANCH   1  13
TORSDOF 5
ENDMDL
MODEL 3
REMARK VINA RESULT:      -7.4      0.190      1.072
REMARK  Name = 
REMARK  6 active torsions:
REMARK  status: ('A' for Active; 'I' for Inactive)
REMARK    1  A    between atoms: C_1  and  C_2
REMARK    2  A    between atoms: C_7  and  N_8
REMARK    3  A    between atoms: N_8  and  C_9
REMARK    4  A    between atoms: C_9  and  C_10
REMARK    5  A    between atoms: N_12  and  N_13
REMARK    6  A    between atoms: C_14  and  C_15
REMARK                            x       y       z     vdW  Elec       q    Type
REMARK                         _______ _______ _______ _____ _____    ______ ____
ROOT
ATOM      1  C   UNL     1       7.343   6.799  17.669  0.00  0.00    +0.000 C 
ATOM      2  O   UNL     1       7.886   6.156  18.565  0.00  0.00    +0.000 OA
ATOM      3  N   UNL     1       7.605   8.132  17.367  0.00  0.00    +0.000 N 
ATOM      4  H   UNL     1       7.011   8.636  16.718  0.00  0.00    +0.000 HD
ENDROOT
BRANCH   3   5
ATOM      5  N   UNL     1       8.555   8.795  18.083  0.00  0.00    +0.000 NA
ATOM      6  C   UNL     1       8.524  10.087  18.036  0.00  0.00    +0.000 C 
BRANCH   6   7
ATOM      7  C   UNL     1       9.500  10.889  18.804  0.00  0.00    +0.000 A 
ATOM      8  C   UNL     1      10.583  11.484  18.160  0.00  0.00    +0.000 A 
ATOM      9  C   UNL     1      11.476  12.203  18.929  0.00  0.00    +0.000 A 
ATOM     10  N   UNL     1      11.353  12.360  20.266  0.00  0.00    +0.000 NA
ATOM     11  C   UNL     1      10.290  11.774  20.859  0.00  0.00    +0.000 A 
ATOM     12  C   UNL     1       9.338  11.034  20.179  0.00  0.00    +0.000 A 
ENDBRANCH   6   7
ENDBRANCH   3   5
BRANCH   1  13
ATOM     13  C   UNL     1       6.273   6.176  16.772  0.00  0.00    +0.000 C 
BRANCH  13  14
ATOM     14  N   UNL     1       4.931   6.595  17.194  0.00  0.00    +0.000 N 
ATOM     15  H   UNL     1       4.976   7.267  17.962  0.00  0.00    +0.000 HD
BRANCH  14  22
ATOM     16  C   UNL     1       2.452   7.359  18.531  0.00  0.00    +0.000 C 
ATOM     17  C   UNL     1       2.742   5.954  18.072  0.00  0.00    +0.000 A 
ATOM     18  C   UNL     1       1.745   4.976  18.264  0.00  0.00    +0.000 A 
ATOM     19  C   UNL     1       1.939   3.663  17.852  0.00  0.00    +0.000 A 
ATOM     20  C   UNL     1       3.130   3.311  17.232  0.00  0.00    +0.000 A 
ATOM     21  C   UNL     1       4.122   4.274  17.027  0.00  0.00    +0.000 A 
ATOM     22  C   UNL     1       3.968   5.601  17.463  0.00  0.00    +0.000 A 
ENDBRANCH  14  22
ENDBRANCH  13  14
ENDBRANCH   1  13
TORSDOF 5
ENDMDL
MODEL 4
REMARK VINA RESULT:      -7.1      1.901      2.476
REMARK  Name = 
REMARK  6 active torsions:
REMARK  status: ('A' for Active; 'I' for Inactive)
REMARK    1  A    between atoms: C_1  and  C_2
REMARK    2  A    between atoms: C_7  and  N_8
REMARK    3  A    between atoms: N_8  and  C_9
REMARK    4  A    between atoms: C_9  and  C_10
REMARK    5  A    between atoms: N_12  and  N_13
REMARK    6  A    between atoms: C_14  and  C_15
REMARK                            x       y       z     vdW  Elec       q    Type
REMARK                         _______ _______ _______ _____ _____    ______ ____
ROOT
ATOM      1  C   UNL     1       7.867   7.071  17.976  0.00  0.00    +0.000 C 
ATOM      2  O   UNL     1       7.661   7.155  16.766  0.00  0.00    +0.000 OA
ATOM      3  N   UNL     1       8.415   8.076  18.767  0.00  0.00    +0.000 N 
ATOM      4  H   UNL     1       8.695   7.880  19.721  0.00  0.00    +0.000 HD
ENDROOT
BRANCH   3   5
ATOM      5  N   UNL     1       8.729   9.270  18.192  0.00  0.00    +0.000 NA
ATOM      6  C   UNL     1       9.267  10.163  18.958  0.00  0.00    +0.000 C 
BRANCH   6   7
ATOM      7  C   UNL     1       9.667  11.477  18.412  0.00  0.00    +0.000 A 
ATOM      8  C   UNL     1      10.923  11.644  17.834  0.00  0.00    +0.000 A 
ATOM      9  C   UNL     1      11.254  12.899  17.361  0.00  0.00    +0.000 A 
ATOM     10  N   UNL     1      10.426  13.965  17.428  0.00  0.00    +0.000 NA
ATOM     11  C   UNL     1       9.214  13.768  17.991  0.00  0.00    +0.000 A 
ATOM     12  C   UNL     1       8.785  12.551  18.493  0.00  0.00    +0.000 A 
ENDBRANCH   6   7
ENDBRANCH   3   5
BRANCH   1  13
ATOM     13  C   UNL     1       7.542   5.798  18.756  0.00  0.00    +0.000 C 
BRANCH  13  14
ATOM     14  N   UNL     1       6.995   4.767  17.866  0.00  0.00    +0.000 N 
ATOM     15  H   UNL     1       7.241   4.950  16.891  0.00  0.00    +0.000 HD
BRANCH  14  22
ATOM     16  C   UNL     1       5.421   4.435  15.431  0.00  0.00    +0.000 C 
ATOM     17  C   UNL     1       4.857   4.227  16.812  0.00  0.00    +0.000 A 
ATOM     18  C   UNL     1       3.514   3.811  16.924  0.00  0.00    +0.000 A 
ATOM     19  C   UNL     1       2.933   3.587  18.166  0.00  0.00    +0.000 A 
ATOM     20  C   UNL     1       3.690   3.764  19.316  0.00  0.00    +0.000 A 
ATOM     21  C   UNL     1       5.025   4.166  19.218  0.00  0.00    +0.000 A 
ATOM     22  C   UNL     1       5.631   4.434  17.978  0.00  0.00    +0.000 A 
ENDBRANCH  14  22
ENDBRANCH  13  14
ENDBRANCH   1  13
TORSDOF 5
ENDMDL
MODEL 5
REMARK VINA RESULT:      -7.0      2.675      3.941
REMARK  Name = 
REMARK  6 active torsions:
REMARK  status: ('A' for Active; 'I' for Inactive)
REMARK    1  A    between atoms: C_1  and  C_2
REMARK    2  A    between atoms: C_7  and  N_8
REMARK    3  A    between atoms: N_8  and  C_9
REMARK    4  A    between atoms: C_9  and  C_10
REMARK    5  A    between atoms: N_12  and  N_13
REMARK    6  A    between atoms: C_14  and  C_15
REMARK                            x       y       z     vdW  Elec       q    Type
REMARK                         _______ _______ _______ _____ _____    ______ ____
ROOT
ATOM      1  C   UNL     1       7.446   6.341  17.818  0.00  0.00    +0.000 C 
ATOM      2  O   UNL     1       7.656   5.970  18.972  0.00  0.00    +0.000 OA
ATOM      3  N   UNL     1       7.704   7.616  17.327  0.00  0.00    +0.000 N 
ATOM      4  H   UNL     1       7.364   7.890  16.412  0.00  0.00    +0.000 HD
ENDROOT
BRANCH   3   5
ATOM      5  N   UNL     1       8.262   8.541  18.156  0.00  0.00    +0.000 NA
ATOM      6  C   UNL     1       8.460   9.721  17.665  0.00  0.00    +0.000 C 
BRANCH   6   7
ATOM      7  C   UNL     1       9.035  10.795  18.502  0.00  0.00    +0.000 A 
ATOM      8  C   UNL     1       9.269  12.058  17.960  0.00  0.00    +0.000 A 
ATOM      9  C   UNL     1       9.829  13.018  18.779  0.00  0.00    +0.000 A 
ATOM     10  N   UNL     1      10.158  12.797  20.071  0.00  0.00    +0.000 NA
ATOM     11  C   UNL     1       9.916  11.564  20.567  0.00  0.00    +0.000 A 
ATOM     12  C   UNL     1       9.357  10.534  19.830  0.00  0.00    +0.000 A 
ENDBRANCH   6   7
ENDBRANCH   3   5
BRANCH   1  13
ATOM     13  C   UNL     1       6.843   5.402  16.773  0.00  0.00    +0.000 C 
BRANCH  13  14
ATOM     14  N   UNL     1       7.467   5.614  15.461  0.00  0.00    +0.000 N 
ATOM     15  H   UNL     1       7.595   6.609  15.268  0.00  0.00    +0.000 HD
BRANCH  14  22
ATOM     16  C   UNL     1       8.814   5.867  12.886  0.00  0.00    +0.000 C 
ATOM     17  C   UNL     1       7.579   5.031  13.091  0.00  0.00    +0.000 A 
ATOM     18  C   UNL     1       7.079   4.306  11.989  0.00  0.00    +0.000 A 
ATOM     19  C   UNL     1       5.950   3.503  12.111  0.00  0.00    +0.000 A 
ATOM     20  C   UNL     1       5.311   3.406  13.339  0.00  0.00    +0.000 A 
ATOM     21  C   UNL     1       5.803   4.112  14.441  0.00  0.00    +0.000 A 
ATOM     22  C   UNL     1       6.921   4.957  14.341  0.00  0.00    +0.000 A 
ENDBRANCH  14  22
ENDBRANCH  13  14
ENDBRANCH   1  13
TORSDOF 5
ENDMDL
MODEL 6
REMARK VINA RESULT:      -6.9      1.729      2.392
REMARK  Name = 
REMARK  6 active torsions:
REMARK  status: ('A' for Active; 'I' for Inactive)
REMARK    1  A    between atoms: C_1  and  C_2
REMARK    2  A    between atoms: C_7  and  N_8
REMARK    3  A    between atoms: N_8  and  C_9
REMARK    4  A    between atoms: C_9  and  C_10
REMARK    5  A    between atoms: N_12  and  N_13
REMARK    6  A    between atoms: C_14  and  C_15
REMARK                            x       y       z     vdW  Elec       q    Type
REMARK                         _______ _______ _______ _____ _____    ______ ____
ROOT
ATOM      1  C   UNL     1       7.933   7.403  18.068  0.00  0.00    +0.000 C 
ATOM      2  O   UNL     1       7.513   7.741  16.963  0.00  0.00    +0.000 OA
ATOM      3  N   UNL     1       8.643   8.223  18.941  0.00  0.00    +0.000 N 
ATOM      4  H   UNL     1       9.086   7.830  19.764  0.00  0.00    +0.000 HD
ENDROOT
BRANCH   3   5
ATOM      5  N   UNL     1       8.880   9.515  18.585  0.00  0.00    +0.000 NA
ATOM      6  C   UNL     1       9.421  10.277  19.479  0.00  0.00    +0.000 C 
BRANCH   6   7
ATOM      7  C   UNL     1       9.740  11.687  19.171  0.00  0.00    +0.000 A 
ATOM      8  C   UNL     1       9.061  12.354  18.153  0.00  0.00    +0.000 A 
ATOM      9  C   UNL     1       9.415  13.663  17.892  0.00  0.00    +0.000 A 
ATOM     10  N   UNL     1      10.378  14.326  18.570  0.00  0.00    +0.000 NA
ATOM     11  C   UNL     1      11.014  13.652  19.553  0.00  0.00    +0.000 A 
ATOM     12  C   UNL     1      10.734  12.340  19.894  0.00  0.00    +0.000 A 
ENDBRANCH   6   7
ENDBRANCH   3   5
BRANCH   1  13
ATOM     13  C   UNL     1       7.721   5.989  18.607  0.00  0.00    +0.000 C 
BRANCH  13  14
ATOM     14  N   UNL     1       7.044   5.149  17.611  0.00  0.00    +0.000 N 
ATOM     15  H   UNL     1       7.166   5.521  16.667  0.00  0.00    +0.000 HD
BRANCH  14  22
ATOM     16  C   UNL     1       5.491   4.066  15.390  0.00  0.00    +0.000 C 
ATOM     17  C   UNL     1       4.938   4.226  16.782  0.00  0.00    +0.000 A 
ATOM     18  C   UNL     1       3.619   3.791  17.025  0.00  0.00    +0.000 A 
ATOM     19  C   UNL     1       3.050   3.896  18.289  0.00  0.00    +0.000 A 
ATOM     20  C   UNL     1       3.796   4.428  19.332  0.00  0.00    +0.000 A 
ATOM     21  C   UNL     1       5.108   4.853  19.106  0.00  0.00    +0.000 A 
ATOM     22  C   UNL     1       5.699   4.792  17.832  0.00  0.00    +0.000 A 
ENDBRANCH  14  22
ENDBRANCH  13  14
ENDBRANCH   1  13
TORSDOF 5
ENDMDL
MODEL 7
REMARK VINA RESULT:      -6.9      4.464      7.516
REMARK  Name = 
REMARK  6 active torsions:
REMARK  status: ('A' for Active; 'I' for Inactive)
REMARK    1  A    between atoms: C_1  and  C_2
REMARK    2  A    between atoms: C_7  and  N_8
REMARK    3  A    between atoms: N_8  and  C_9
REMARK    4  A    between atoms: C_9  and  C_10
REMARK    5  A    between atoms: N_12  and  N_13
REMARK    6  A    between atoms: C_14  and  C_15
REMARK                            x       y       z     vdW  Elec       q    Type
REMARK                         _______ _______ _______ _____ _____    ______ ____
ROOT
ATOM      1  C   UNL     1       2.652   5.774  18.968  0.00  0.00    +0.000 C 
ATOM      2  O   UNL     1       2.020   6.057  17.952  0.00  0.00    +0.000 OA
ATOM      3  N   UNL     1       2.661   6.523  20.141  0.00  0.00    +0.000 N 
ATOM      4  H   UNL     1       3.323   6.309  20.879  0.00  0.00    +0.000 HD
ENDROOT
BRANCH   3   5
ATOM      5  N   UNL     1       1.895   7.646  20.212  0.00  0.00    +0.000 NA
ATOM      6  C   UNL     1       1.314   7.886  21.342  0.00  0.00    +0.000 C 
BRANCH   6   7
ATOM      7  C   UNL     1       0.486   9.097  21.518  0.00  0.00    +0.000 A 
ATOM      8  C   UNL     1      -0.047   9.408  22.768  0.00  0.00    +0.000 A 
ATOM      9  C   UNL     1      -0.833  10.538  22.871  0.00  0.00    +0.000 A 
ATOM     10  N   UNL     1      -1.107  11.355  21.830  0.00  0.00    +0.000 NA
ATOM     11  C   UNL     1      -0.571  11.029  20.634  0.00  0.00    +0.000 A 
ATOM     12  C   UNL     1       0.230   9.919  20.425  0.00  0.00    +0.000 A 
ENDBRANCH   6   7
ENDBRANCH   3   5
BRANCH   1  13
ATOM     13  C   UNL     1       3.537   4.530  19.040  0.00  0.00    +0.000 C 
BRANCH  13  14
ATOM     14  N   UNL     1       4.499   4.510  17.930  0.00  0.00    +0.000 N 
ATOM     15  H   UNL     1       4.706   3.554  17.636  0.00  0.00    +0.000 HD
BRANCH  14  22
ATOM     16  C   UNL     1       5.072   6.576  15.950  0.00  0.00    +0.000 C 
ATOM     17  C   UNL     1       5.965   6.294  17.129  0.00  0.00    +0.000 A 
ATOM     18  C   UNL     1       7.111   7.099  17.300  0.00  0.00    +0.000 A 
ATOM     19  C   UNL     1       7.971   6.903  18.374  0.00  0.00    +0.000 A 
ATOM     20  C   UNL     1       7.693   5.905  19.299  0.00  0.00    +0.000 A 
ATOM     21  C   UNL     1       6.556   5.108  19.145  0.00  0.00    +0.000 A 
ATOM     22  C   UNL     1       5.686   5.259  18.052  0.00  0.00    +0.000 A 
ENDBRANCH  14  22
ENDBRANCH  13  14
ENDBRANCH   1  13
TORSDOF 5
ENDMDL
MODEL 8
REMARK VINA RESULT:      -6.9      1.422      2.205
REMARK  Name = 
REMARK  6 active torsions:
REMARK  status: ('A' for Active; 'I' for Inactive)
REMARK    1  A    between atoms: C_1  and  C_2
REMARK    2  A    between atoms: C_7  and  N_8
REMARK    3  A    between atoms: N_8  and  C_9
REMARK    4  A    between atoms: C_9  and  C_10
REMARK    5  A    between atoms: N_12  and  N_13
REMARK    6  A    between atoms: C_14  and  C_15
REMARK                            x       y       z     vdW  Elec       q    Type
REMARK                         _______ _______ _______ _____ _____    ______ ____
ROOT
ATOM      1  C   UNL     1       7.726   5.887  18.659  0.00  0.00    +0.000 C 
ATOM      2  O   UNL     1       8.177   5.652  19.779  0.00  0.00    +0.000 OA
ATOM      3  N   UNL     1       7.811   7.110  18.001  0.00  0.00    +0.000 N 
ATOM      4  H   UNL     1       7.284   7.270  17.150  0.00  0.00    +0.000 HD
ENDROOT
BRANCH   3   5
ATOM      5  N   UNL     1       8.468   8.139  18.605  0.00  0.00    +0.000 NA
ATOM      6  C   UNL     1       8.358   9.304  18.055  0.00  0.00    +0.000 C 
BRANCH   6   7
ATOM      7  C   UNL     1       9.014  10.483  18.658  0.00  0.00    +0.000 A 
ATOM      8  C   UNL     1       9.265  11.617  17.887  0.00  0.00    +0.000 A 
ATOM      9  C   UNL     1       9.901  12.682  18.495  0.00  0.00    +0.000 A 
ATOM     10  N   UNL     1      10.287  12.681  19.790  0.00  0.00    +0.000 NA
ATOM     11  C   UNL     1      10.025  11.568  20.510  0.00  0.00    +0.000 A 
ATOM     12  C   UNL     1       9.392  10.449  19.996  0.00  0.00    +0.000 A 
ENDBRANCH   6   7
ENDBRANCH   3   5
BRANCH   1  13
ATOM     13  C   UNL     1       6.984   4.819  17.855  0.00  0.00    +0.000 C 
BRANCH  13  14
ATOM     14  N   UNL     1       6.079   4.051  18.720  0.00  0.00    +0.000 N 
ATOM     15  H   UNL     1       6.240   3.047  18.626  0.00  0.00    +0.000 HD
BRANCH  14  22
ATOM     16  C   UNL     1       4.633   3.634  16.219  0.00  0.00    +0.000 C 
ATOM     17  C   UNL     1       3.969   4.104  17.487  0.00  0.00    +0.000 A 
ATOM     18  C   UNL     1       2.574   4.310  17.467  0.00  0.00    +0.000 A 
ATOM     19  C   UNL     1       1.895   4.729  18.605  0.00  0.00    +0.000 A 
ATOM     20  C   UNL     1       2.599   4.939  19.782  0.00  0.00    +0.000 A 
ATOM     21  C   UNL     1       3.980   4.729  19.817  0.00  0.00    +0.000 A 
ATOM     22  C   UNL     1       4.700   4.337  18.675  0.00  0.00    +0.000 A 
ENDBRANCH  14  22
ENDBRANCH  13  14
ENDBRANCH   1  13
TORSDOF 5
ENDMDL
MODEL 9
REMARK VINA RESULT:      -6.9      1.361      8.910
REMARK  Name = 
REMARK  6 active torsions:
REMARK  status: ('A' for Active; 'I' for Inactive)
REMARK    1  A    between atoms: C_1  and  C_2
REMARK    2  A    between atoms: C_7  and  N_8
REMARK    3  A    between atoms: N_8  and  C_9
REMARK    4  A    between atoms: C_9  and  C_10
REMARK    5  A    between atoms: N_12  and  N_13
REMARK    6  A    between atoms: C_14  and  C_15
REMARK                            x       y       z     vdW  Elec       q    Type
REMARK                         _______ _______ _______ _____ _____    ______ ____
ROOT
ATOM      1  C   UNL     1       7.696   7.854  17.922  0.00  0.00    +0.000 C 
ATOM      2  O   UNL     1       8.163   7.035  18.711  0.00  0.00    +0.000 OA
ATOM      3  N   UNL     1       6.606   7.630  17.087  0.00  0.00    +0.000 N 
ATOM      4  H   UNL     1       6.375   8.296  16.358  0.00  0.00    +0.000 HD
ENDROOT
BRANCH   3   5
ATOM      5  N   UNL     1       5.966   6.430  17.146  0.00  0.00    +0.000 NA
ATOM      6  C   UNL     1       4.752   6.437  17.594  0.00  0.00    +0.000 C 
BRANCH   6   7
ATOM      7  C   UNL     1       3.972   5.184  17.667  0.00  0.00    +0.000 A 
ATOM      8  C   UNL     1       4.608   3.952  17.533  0.00  0.00    +0.000 A 
ATOM      9  C   UNL     1       3.828   2.814  17.586  0.00  0.00    +0.000 A 
ATOM     10  N   UNL     1       2.488   2.834  17.761  0.00  0.00    +0.000 NA
ATOM     11  C   UNL     1       1.903   4.044  17.891  0.00  0.00    +0.000 A 
ATOM     12  C   UNL     1       2.594   5.243  17.854  0.00  0.00    +0.000 A 
ENDBRANCH   6   7
ENDBRANCH   3   5
BRANCH   1  13
ATOM     13  C   UNL     1       8.299   9.250  17.766  0.00  0.00    +0.000 C 
BRANCH  13  14
ATOM     14  N   UNL     1       8.950   9.678  19.011  0.00  0.00    +0.000 N 
ATOM     15  H   UNL     1       8.285   9.706  19.786  0.00  0.00    +0.000 HD
BRANCH  14  22
ATOM     16  C   UNL     1       9.086  11.323  21.417  0.00  0.00    +0.000 C 
ATOM     17  C   UNL     1       9.854  11.637  20.159  0.00  0.00    +0.000 A 
ATOM     18  C   UNL     1      10.709  12.758  20.167  0.00  0.00    +0.000 A 
ATOM     19  C   UNL     1      11.458  13.097  19.046  0.00  0.00    +0.000 A 
ATOM     20  C   UNL     1      11.370  12.313  17.903  0.00  0.00    +0.000 A 
ATOM     21  C   UNL     1      10.533  11.194  17.887  0.00  0.00    +0.000 A 
ATOM     22  C   UNL     1       9.739  10.845  18.993  0.00  0.00    +0.000 A 
ENDBRANCH  14  22
ENDBRANCH  13  14
ENDBRANCH   1  13
TORSDOF 5
ENDMDL
