MODEL 1
REMARK VINA RESULT:      -8.7      0.000      0.000
REMARK  Name = 
REMARK  10 active torsions:
REMARK  status: ('A' for Active; 'I' for Inactive)
REMARK    1  A    between atoms: C_1  and  C_2
REMARK    2  A    between atoms: C_5  and  C_6
REMARK    3  A    between atoms: C_6  and  C_7
REMARK    4  A    between atoms: C_6  and  C_8
REMARK    5  A    between atoms: C_10  and  O_11
REMARK    6  A    between atoms: O_11  and  C_12
REMARK    7  A    between atoms: C_12  and  C_13
REMARK    8  A    between atoms: C_18  and  C_19
REMARK    9  A    between atoms: N_21  and  C_22
REMARK   10  A    between atoms: C_27  and  O_28
REMARK                            x       y       z     vdW  Elec       q    Type
REMARK                         _______ _______ _______ _____ _____    ______ ____
ROOT
ATOM      1  C   UNL     1       3.051   6.392  19.003  0.00  0.00    +0.000 C 
ATOM      2  O   UNL     1       2.846   5.892  20.114  0.00  0.00    +0.000 OA
ATOM      3  N   UNL     1       4.155   6.035  18.242  0.00  0.00    +0.000 N 
ATOM      4  C   UNL     1       4.983   4.904  18.657  0.00  0.00    +0.000 C 
ATOM      5  C   UNL     1       6.422   5.345  18.907  0.00  0.00    +0.000 C 
ATOM      6  C   UNL     1       7.003   6.065  17.684  0.00  0.00    +0.000 C 
ATOM      7  C   UNL     1       6.069   7.235  17.291  0.00  0.00    +0.000 C 
ATOM      8  C   UNL     1       4.626   6.767  17.070  0.00  0.00    +0.000 C 
ENDROOT
BRANCH   6   9
ATOM      9  C   UNL     1       7.224   5.164  16.463  0.00  0.00    +0.000 C 
ATOM     10  O   UNL     1       7.904   4.144  16.581  0.00  0.00    +0.000 OA
ATOM     11  N   UNL     1       6.597   5.547  15.297  0.00  0.00    +0.000 N 
ATOM     12  H   UNL     1       6.167   6.463  15.225  0.00  0.00    +0.000 HD
BRANCH  11  13
ATOM     13  C   UNL     1       6.589   4.807  14.087  0.00  0.00    +0.000 A 
ATOM     14  C   UNL     1       5.588   3.888  13.757  0.00  0.00    +0.000 A 
ATOM     15  C   UNL     1       5.627   3.181  12.554  0.00  0.00    +0.000 A 
ATOM     16  C   UNL     1       6.670   3.387  11.658  0.00  0.00    +0.000 A 
ATOM     17  C   UNL     1       7.672   4.310  11.959  0.00  0.00    +0.000 A 
ATOM     18  C   UNL     1       7.623   5.019  13.165  0.00  0.00    +0.000 A 
BRANCH  18  19
ATOM     19  O   UNL     1       8.605   5.928  13.471  0.00  0.00    +0.000 OA
ATOM     20  H   UNL     1       8.295   6.808  13.193  0.00  0.00    +0.000 HD
ENDBRANCH  18  19
ENDBRANCH  11  13
ENDBRANCH   6   9
BRANCH   1  21
ATOM     21  C   UNL     1       2.019   7.352  18.398  0.00  0.00    +0.000 C 
BRANCH  21  22
ATOM     22  O   UNL     1       2.159   8.689  18.841  0.00  0.00    +0.000 OA
BRANCH  22  29
ATOM     23  C   UNL     1       1.576   9.196  21.890  0.00  0.00    +0.000 C 
ATOM     24  C   UNL     1       0.735   9.576  20.703  0.00  0.00    +0.000 A 
ATOM     25  C   UNL     1      -0.449  10.284  20.992  0.00  0.00    +0.000 A 
ATOM     26  C   UNL     1      -1.291  10.753  19.983  0.00  0.00    +0.000 A 
ATOM     27  C   UNL     1      -0.977  10.536  18.642  0.00  0.00    +0.000 A 
ATOM     28  C   UNL     1       0.201   9.826  18.347  0.00  0.00    +0.000 A 
ATOM     29  C   UNL     1       1.055   9.328  19.355  0.00  0.00    +0.000 A 
BRANCH  27  30
ATOM     30  C   UNL     1      -1.909  11.073  17.570  0.00  0.00    +0.000 C 
ATOM     31  C   UNL     1      -2.190  10.043  16.475  0.00  0.00    +0.000 C 
ATOM     32  C   UNL     1      -3.210  11.614  18.163  0.00  0.00    +0.000 C 
ENDBRANCH  27  30
ENDBRANCH  22  29
ENDBRANCH  21  22
ENDBRANCH   1  21
TORSDOF 7
ENDMDL
MODEL 2
REMARK VINA RESULT:      -8.5      1.271      1.629
REMARK  Name = 
REMARK  10 active torsions:
REMARK  status: ('A' for Active; 'I' for Inactive)
REMARK    1  A    between atoms: C_1  and  C_2
REMARK    2  A    between atoms: C_5  and  C_6
REMARK    3  A    between atoms: C_6  and  C_7
REMARK    4  A    between atoms: C_6  and  C_8
REMARK    5  A    between atoms: C_10  and  O_11
REMARK    6  A    between atoms: O_11  and  C_12
REMARK    7  A    between atoms: C_12  and  C_13
REMARK    8  A    between atoms: C_18  and  C_19
REMARK    9  A    between atoms: N_21  and  C_22
REMARK   10  A    between atoms: C_27  and  O_28
REMARK                            x       y       z     vdW  Elec       q    Type
REMARK                         _______ _______ _______ _____ _____    ______ ____
ROOT
ATOM      1  C   UNL     1       2.575   7.404  18.790  0.00  0.00    +0.000 C 
ATOM      2  O   UNL     1       2.168   7.030  19.894  0.00  0.00    +0.000 OA
ATOM      3  N   UNL     1       3.590   6.731  18.127  0.00  0.00    +0.000 N 
ATOM      4  C   UNL     1       4.053   5.441  18.634  0.00  0.00    +0.000 C 
ATOM      5  C   UNL     1       5.537   5.493  18.983  0.00  0.00    +0.000 C 
ATOM      6  C   UNL     1       6.372   5.974  17.790  0.00  0.00    +0.000 C 
ATOM      7  C   UNL     1       5.816   7.331  17.294  0.00  0.00    +0.000 C 
ATOM      8  C   UNL     1       4.319   7.255  16.975  0.00  0.00    +0.000 C 
ENDROOT
BRANCH   6   9
ATOM      9  C   UNL     1       6.424   4.991  16.614  0.00  0.00    +0.000 C 
ATOM     10  O   UNL     1       6.308   3.785  16.831  0.00  0.00    +0.000 OA
ATOM     11  N   UNL     1       6.561   5.543  15.359  0.00  0.00    +0.000 N 
ATOM     12  H   UNL     1       6.789   6.526  15.255  0.00  0.00    +0.000 HD
BRANCH  11  13
ATOM     13  C   UNL     1       6.531   4.823  14.137  0.00  0.00    +0.000 A 
ATOM     14  C   UNL     1       5.493   3.954  13.786  0.00  0.00    +0.000 A 
ATOM     15  C   UNL     1       5.511   3.265  12.572  0.00  0.00    +0.000 A 
ATOM     16  C   UNL     1       6.569   3.439  11.686  0.00  0.00    +0.000 A 
ATOM     17  C   UNL     1       7.608   4.312  12.011  0.00  0.00    +0.000 A 
ATOM     18  C   UNL     1       7.581   5.003  13.227  0.00  0.00    +0.000 A 
BRANCH  18  19
ATOM     19  O   UNL     1       8.599   5.864  13.555  0.00  0.00    +0.000 OA
ATOM     20  H   UNL     1       8.199   6.683  13.896  0.00  0.00    +0.000 HD
ENDBRANCH  18  19
ENDBRANCH  11  13
ENDBRANCH   6   9
BRANCH   1  21
ATOM     21  C   UNL     1       1.882   8.575  18.081  0.00  0.00    +0.000 C 
BRANCH  21  22
ATOM     22  O   UNL     1       1.796   9.746  18.871  0.00  0.00    +0.000 OA
BRANCH  22  29
ATOM     23  C   UNL     1       1.798  12.852  19.366  0.00  0.00    +0.000 C 
ATOM     24  C   UNL     1       0.670  11.985  18.881  0.00  0.00    +0.000 A 
ATOM     25  C   UNL     1      -0.530  12.657  18.574  0.00  0.00    +0.000 A 
ATOM     26  C   UNL     1      -1.638  11.985  18.056  0.00  0.00    +0.000 A 
ATOM     27  C   UNL     1      -1.585  10.612  17.818  0.00  0.00    +0.000 A 
ATOM     28  C   UNL     1      -0.391   9.935  18.127  0.00  0.00    +0.000 A 
ATOM     29  C   UNL     1       0.733  10.596  18.671  0.00  0.00    +0.000 A 
BRANCH  27  30
ATOM     30  C   UNL     1      -2.803   9.915  17.239  0.00  0.00    +0.000 C 
ATOM     31  C   UNL     1      -4.114  10.543  17.718  0.00  0.00    +0.000 C 
ATOM     32  C   UNL     1      -2.752   9.849  15.713  0.00  0.00    +0.000 C 
ENDBRANCH  27  30
ENDBRANCH  22  29
ENDBRANCH  21  22
ENDBRANCH   1  21
TORSDOF 7
ENDMDL
MODEL 3
REMARK VINA RESULT:      -8.0      1.564      1.997
REMARK  Name = 
REMARK  10 active torsions:
REMARK  status: ('A' for Active; 'I' for Inactive)
REMARK    1  A    between atoms: C_1  and  C_2
REMARK    2  A    between atoms: C_5  and  C_6
REMARK    3  A    between atoms: C_6  and  C_7
REMARK    4  A    between atoms: C_6  and  C_8
REMARK    5  A    between atoms: C_10  and  O_11
REMARK    6  A    between atoms: O_11  and  C_12
REMARK    7  A    between atoms: C_12  and  C_13
REMARK    8  A    between atoms: C_18  and  C_19
REMARK    9  A    between atoms: N_21  and  C_22
REMARK   10  A    between atoms: C_27  and  O_28
REMARK                            x       y       z     vdW  Elec       q    Type
REMARK                         _______ _______ _______ _____ _____    ______ ____
ROOT
ATOM      1  C   UNL     1       3.119   6.946  18.836  0.00  0.00    +0.000 C 
ATOM      2  O   UNL     1       2.711   6.442  19.887  0.00  0.00    +0.000 OA
ATOM      3  N   UNL     1       4.214   6.426  18.162  0.00  0.00    +0.000 N 
ATOM      4  C   UNL     1       4.775   5.142  18.577  0.00  0.00    +0.000 C 
ATOM      5  C   UNL     1       6.236   5.294  18.991  0.00  0.00    +0.000 C 
ATOM      6  C   UNL     1       7.063   5.949  17.880  0.00  0.00    +0.000 C 
ATOM      7  C   UNL     1       6.403   7.291  17.477  0.00  0.00    +0.000 C 
ATOM      8  C   UNL     1       4.930   7.111  17.090  0.00  0.00    +0.000 C 
ENDROOT
BRANCH   6   9
ATOM      9  C   UNL     1       7.245   5.082  16.628  0.00  0.00    +0.000 C 
ATOM     10  O   UNL     1       7.865   4.022  16.714  0.00  0.00    +0.000 OA
ATOM     11  N   UNL     1       6.652   5.541  15.473  0.00  0.00    +0.000 N 
ATOM     12  H   UNL     1       6.274   6.481  15.430  0.00  0.00    +0.000 HD
BRANCH  11  13
ATOM     13  C   UNL     1       6.614   4.846  14.236  0.00  0.00    +0.000 A 
ATOM     14  C   UNL     1       5.580   3.977  13.877  0.00  0.00    +0.000 A 
ATOM     15  C   UNL     1       5.590   3.312  12.649  0.00  0.00    +0.000 A 
ATOM     16  C   UNL     1       6.637   3.513  11.757  0.00  0.00    +0.000 A 
ATOM     17  C   UNL     1       7.673   4.388  12.088  0.00  0.00    +0.000 A 
ATOM     18  C   UNL     1       7.653   5.054  13.319  0.00  0.00    +0.000 A 
BRANCH  18  19
ATOM     19  O   UNL     1       8.667   5.915  13.654  0.00  0.00    +0.000 OA
ATOM     20  H   UNL     1       8.300   6.592  14.250  0.00  0.00    +0.000 HD
ENDBRANCH  18  19
ENDBRANCH  11  13
ENDBRANCH   6   9
BRANCH   1  21
ATOM     21  C   UNL     1       2.347   8.109  18.200  0.00  0.00    +0.000 C 
BRANCH  21  22
ATOM     22  O   UNL     1       1.078   8.335  18.784  0.00  0.00    +0.000 OA
BRANCH  22  29
ATOM     23  C   UNL     1       0.003   8.625  21.725  0.00  0.00    +0.000 C 
ATOM     24  C   UNL     1       0.379   9.712  20.757  0.00  0.00    +0.000 A 
ATOM     25  C   UNL     1       0.271  11.030  21.244  0.00  0.00    +0.000 A 
ATOM     26  C   UNL     1       0.645  12.132  20.474  0.00  0.00    +0.000 A 
ATOM     27  C   UNL     1       1.150  11.957  19.187  0.00  0.00    +0.000 A 
ATOM     28  C   UNL     1       1.257  10.643  18.693  0.00  0.00    +0.000 A 
ATOM     29  C   UNL     1       0.864   9.518  19.451  0.00  0.00    +0.000 A 
BRANCH  27  30
ATOM     30  C   UNL     1       1.562  13.177  18.383  0.00  0.00    +0.000 C 
ATOM     31  C   UNL     1       1.292  14.484  19.130  0.00  0.00    +0.000 C 
ATOM     32  C   UNL     1       3.020  13.096  17.928  0.00  0.00    +0.000 C 
ENDBRANCH  27  30
ENDBRANCH  22  29
ENDBRANCH  21  22
ENDBRANCH   1  21
TORSDOF 7
ENDMDL
MODEL 4
REMARK VINA RESULT:      -8.0      3.133      9.414
REMARK  Name = 
REMARK  10 active torsions:
REMARK  status: ('A' for Active; 'I' for Inactive)
REMARK    1  A    between atoms: C_1  and  C_2
REMARK    2  A    between atoms: C_5  and  C_6
REMARK    3  A    between atoms: C_6  and  C_7
REMARK    4  A    between atoms: C_6  and  C_8
REMARK    5  A    between atoms: C_10  and  O_11
REMARK    6  A    between atoms: O_11  and  C_12
REMARK    7  A    between atoms: C_12  and  C_13
REMARK    8  A    between atoms: C_18  and  C_19
REMARK    9  A    between atoms: N_21  and  C_22
REMARK   10  A    between atoms: C_27  and  O_28
REMARK                            x       y       z     vdW  Elec       q    Type
REMARK                         _______ _______ _______ _____ _____    ______ ____
ROOT
ATOM      1  C   UNL     1       2.501   6.868  18.992  0.00  0.00    +0.000 C 
ATOM      2  O   UNL     1       2.505   6.007  19.877  0.00  0.00    +0.000 OA
ATOM      3  N   UNL     1       2.038   8.153  19.235  0.00  0.00    +0.000 N 
ATOM      4  C   UNL     1       1.742   8.566  20.605  0.00  0.00    +0.000 C 
ATOM      5  C   UNL     1       0.280   8.980  20.745  0.00  0.00    +0.000 C 
ATOM      6  C   UNL     1      -0.091  10.062  19.725  0.00  0.00    +0.000 C 
ATOM      7  C   UNL     1       0.266   9.566  18.303  0.00  0.00    +0.000 C 
ATOM      8  C   UNL     1       1.733   9.134  18.198  0.00  0.00    +0.000 C 
ENDROOT
BRANCH   6   9
ATOM      9  C   UNL     1       0.579  11.420  19.969  0.00  0.00    +0.000 C 
ATOM     10  O   UNL     1       1.138  11.633  21.044  0.00  0.00    +0.000 OA
ATOM     11  N   UNL     1       0.542  12.317  18.923  0.00  0.00    +0.000 N 
ATOM     12  H   UNL     1      -0.047  12.140  18.118  0.00  0.00    +0.000 HD
BRANCH  11  13
ATOM     13  C   UNL     1       1.184  13.583  18.903  0.00  0.00    +0.000 A 
ATOM     14  C   UNL     1       0.719  14.688  19.623  0.00  0.00    +0.000 A 
ATOM     15  C   UNL     1       1.383  15.915  19.567  0.00  0.00    +0.000 A 
ATOM     16  C   UNL     1       2.530  16.052  18.794  0.00  0.00    +0.000 A 
ATOM     17  C   UNL     1       3.020  14.958  18.079  0.00  0.00    +0.000 A 
ATOM     18  C   UNL     1       2.352  13.731  18.143  0.00  0.00    +0.000 A 
BRANCH  18  19
ATOM     19  O   UNL     1       2.825  12.649  17.443  0.00  0.00    +0.000 OA
ATOM     20  H   UNL     1       2.065  12.088  17.210  0.00  0.00    +0.000 HD
ENDBRANCH  18  19
ENDBRANCH  11  13
ENDBRANCH   6   9
BRANCH   1  21
ATOM     21  C   UNL     1       3.110   6.552  17.620  0.00  0.00    +0.000 C 
BRANCH  21  22
ATOM     22  O   UNL     1       3.554   5.214  17.490  0.00  0.00    +0.000 OA
BRANCH  22  29
ATOM     23  C   UNL     1       6.027   5.301  19.431  0.00  0.00    +0.000 C 
ATOM     24  C   UNL     1       6.009   5.022  17.954  0.00  0.00    +0.000 A 
ATOM     25  C   UNL     1       7.257   4.725  17.371  0.00  0.00    +0.000 A 
ATOM     26  C   UNL     1       7.379   4.386  16.024  0.00  0.00    +0.000 A 
ATOM     27  C   UNL     1       6.251   4.325  15.205  0.00  0.00    +0.000 A 
ATOM     28  C   UNL     1       5.003   4.625  15.780  0.00  0.00    +0.000 A 
ATOM     29  C   UNL     1       4.864   4.989  17.137  0.00  0.00    +0.000 A 
BRANCH  27  30
ATOM     30  C   UNL     1       6.418   3.939  13.746  0.00  0.00    +0.000 C 
ATOM     31  C   UNL     1       5.078   3.841  13.014  0.00  0.00    +0.000 C 
ATOM     32  C   UNL     1       7.377   4.877  13.013  0.00  0.00    +0.000 C 
ENDBRANCH  27  30
ENDBRANCH  22  29
ENDBRANCH  21  22
ENDBRANCH   1  21
TORSDOF 7
ENDMDL
MODEL 5
REMARK VINA RESULT:      -8.0      3.585     10.656
REMARK  Name = 
REMARK  10 active torsions:
REMARK  status: ('A' for Active; 'I' for Inactive)
REMARK    1  A    between atoms: C_1  and  C_2
REMARK    2  A    between atoms: C_5  and  C_6
REMARK    3  A    between atoms: C_6  and  C_7
REMARK    4  A    between atoms: C_6  and  C_8
REMARK    5  A    between atoms: C_10  and  O_11
REMARK    6  A    between atoms: O_11  and  C_12
REMARK    7  A    between atoms: C_12  and  C_13
REMARK    8  A    between atoms: C_18  and  C_19
REMARK    9  A    between atoms: N_21  and  C_22
REMARK   10  A    between atoms: C_27  and  O_28
REMARK                            x       y       z     vdW  Elec       q    Type
REMARK                         _______ _______ _______ _____ _____    ______ ____
ROOT
ATOM      1  C   UNL     1       1.722   9.214  18.388  0.00  0.00    +0.000 C 
ATOM      2  O   UNL     1       2.038   9.650  17.276  0.00  0.00    +0.000 OA
ATOM      3  N   UNL     1       0.834   9.896  19.206  0.00  0.00    +0.000 N 
ATOM      4  C   UNL     1       0.097  11.042  18.676  0.00  0.00    +0.000 C 
ATOM      5  C   UNL     1       0.406  12.305  19.474  0.00  0.00    +0.000 C 
ATOM      6  C   UNL     1       0.143  12.095  20.970  0.00  0.00    +0.000 C 
ATOM      7  C   UNL     1       0.938  10.860  21.458  0.00  0.00    +0.000 C 
ATOM      8  C   UNL     1       0.626   9.612  20.623  0.00  0.00    +0.000 C 
ENDROOT
BRANCH   6   9
ATOM      9  C   UNL     1      -1.336  11.921  21.337  0.00  0.00    +0.000 C 
ATOM     10  O   UNL     1      -1.641  11.195  22.282  0.00  0.00    +0.000 OA
ATOM     11  N   UNL     1      -2.241  12.640  20.587  0.00  0.00    +0.000 N 
ATOM     12  H   UNL     1      -1.945  13.110  19.739  0.00  0.00    +0.000 HD
BRANCH  11  13
ATOM     13  C   UNL     1      -3.639  12.700  20.823  0.00  0.00    +0.000 A 
ATOM     14  C   UNL     1      -4.193  13.007  22.070  0.00  0.00    +0.000 A 
ATOM     15  C   UNL     1      -5.576  13.049  22.253  0.00  0.00    +0.000 A 
ATOM     16  C   UNL     1      -6.429  12.789  21.187  0.00  0.00    +0.000 A 
ATOM     17  C   UNL     1      -5.899  12.495  19.930  0.00  0.00    +0.000 A 
ATOM     18  C   UNL     1      -4.511  12.459  19.753  0.00  0.00    +0.000 A 
BRANCH  18  19
ATOM     19  O   UNL     1      -3.979  12.170  18.521  0.00  0.00    +0.000 OA
ATOM     20  H   UNL     1      -4.384  12.772  17.872  0.00  0.00    +0.000 HD
ENDBRANCH  18  19
ENDBRANCH  11  13
ENDBRANCH   6   9
BRANCH   1  21
ATOM     21  C   UNL     1       2.235   7.841  18.841  0.00  0.00    +0.000 C 
BRANCH  21  22
ATOM     22  O   UNL     1       3.364   7.390  18.117  0.00  0.00    +0.000 OA
BRANCH  22  29
ATOM     23  C   UNL     1       5.298   6.083  16.008  0.00  0.00    +0.000 C 
ATOM     24  C   UNL     1       4.316   5.404  16.922  0.00  0.00    +0.000 A 
ATOM     25  C   UNL     1       4.286   3.996  16.850  0.00  0.00    +0.000 A 
ATOM     26  C   UNL     1       3.468   3.235  17.684  0.00  0.00    +0.000 A 
ATOM     27  C   UNL     1       2.651   3.853  18.631  0.00  0.00    +0.000 A 
ATOM     28  C   UNL     1       2.673   5.258  18.704  0.00  0.00    +0.000 A 
ATOM     29  C   UNL     1       3.481   6.045  17.854  0.00  0.00    +0.000 A 
BRANCH  27  30
ATOM     30  C   UNL     1       1.784   2.992  19.533  0.00  0.00    +0.000 C 
ATOM     31  C   UNL     1       1.164   3.793  20.679  0.00  0.00    +0.000 C 
ATOM     32  C   UNL     1       0.711   2.240  18.745  0.00  0.00    +0.000 C 
ENDBRANCH  27  30
ENDBRANCH  22  29
ENDBRANCH  21  22
ENDBRANCH   1  21
TORSDOF 7
ENDMDL
MODEL 6
REMARK VINA RESULT:      -8.0      3.636      9.399
REMARK  Name = 
REMARK  10 active torsions:
REMARK  status: ('A' for Active; 'I' for Inactive)
REMARK    1  A    between atoms: C_1  and  C_2
REMARK    2  A    between atoms: C_5  and  C_6
REMARK    3  A    between atoms: C_6  and  C_7
REMARK    4  A    between atoms: C_6  and  C_8
REMARK    5  A    between atoms: C_10  and  O_11
REMARK    6  A    between atoms: O_11  and  C_12
REMARK    7  A    between atoms: C_12  and  C_13
REMARK    8  A    between atoms: C_18  and  C_19
REMARK    9  A    between atoms: N_21  and  C_22
REMARK   10  A    between atoms: C_27  and  O_28
REMARK                            x       y       z     vdW  Elec       q    Type
REMARK                         _______ _______ _______ _____ _____    ______ ____
ROOT
ATOM      1  C   UNL     1       1.851   7.565  19.901  0.00  0.00    +0.000 C 
ATOM      2  O   UNL     1       1.668   6.862  20.900  0.00  0.00    +0.000 OA
ATOM      3  N   UNL     1       1.448   8.892  19.868  0.00  0.00    +0.000 N 
ATOM      4  C   UNL     1       0.988   9.539  21.095  0.00  0.00    +0.000 C 
ATOM      5  C   UNL     1      -0.446  10.035  20.944  0.00  0.00    +0.000 C 
ATOM      6  C   UNL     1      -0.592  10.951  19.724  0.00  0.00    +0.000 C 
ATOM      7  C   UNL     1      -0.070  10.212  18.468  0.00  0.00    +0.000 C 
ATOM      8  C   UNL     1       1.364   9.703  18.657  0.00  0.00    +0.000 C 
ENDROOT
BRANCH   6   9
ATOM      9  C   UNL     1       0.129  12.299  19.851  0.00  0.00    +0.000 C 
ATOM     10  O   UNL     1       0.409  12.729  20.970  0.00  0.00    +0.000 OA
ATOM     11  N   UNL     1       0.456  12.932  18.672  0.00  0.00    +0.000 N 
ATOM     12  H   UNL     1       0.080  12.599  17.791  0.00  0.00    +0.000 HD
BRANCH  11  13
ATOM     13  C   UNL     1       1.208  14.131  18.565  0.00  0.00    +0.000 A 
ATOM     14  C   UNL     1       0.699  15.387  18.910  0.00  0.00    +0.000 A 
ATOM     15  C   UNL     1       1.478  16.539  18.783  0.00  0.00    +0.000 A 
ATOM     16  C   UNL     1       2.782  16.450  18.311  0.00  0.00    +0.000 A 
ATOM     17  C   UNL     1       3.315  15.205  17.974  0.00  0.00    +0.000 A 
ATOM     18  C   UNL     1       2.531  14.054  18.109  0.00  0.00    +0.000 A 
BRANCH  18  19
ATOM     19  O   UNL     1       3.045  12.825  17.779  0.00  0.00    +0.000 OA
ATOM     20  H   UNL     1       3.570  12.508  18.534  0.00  0.00    +0.000 HD
ENDBRANCH  18  19
ENDBRANCH  11  13
ENDBRANCH   6   9
BRANCH   1  21
ATOM     21  C   UNL     1       2.627   7.001  18.705  0.00  0.00    +0.000 C 
BRANCH  21  22
ATOM     22  O   UNL     1       1.973   5.924  18.060  0.00  0.00    +0.000 OA
BRANCH  22  29
ATOM     23  C   UNL     1       1.018   3.079  19.003  0.00  0.00    +0.000 C 
ATOM     24  C   UNL     1       2.292   3.450  18.295  0.00  0.00    +0.000 A 
ATOM     25  C   UNL     1       3.152   2.378  17.980  0.00  0.00    +0.000 A 
ATOM     26  C   UNL     1       4.337   2.570  17.271  0.00  0.00    +0.000 A 
ATOM     27  C   UNL     1       4.706   3.844  16.840  0.00  0.00    +0.000 A 
ATOM     28  C   UNL     1       3.854   4.919  17.155  0.00  0.00    +0.000 A 
ATOM     29  C   UNL     1       2.661   4.746  17.890  0.00  0.00    +0.000 A 
BRANCH  27  30
ATOM     30  C   UNL     1       5.995   4.014  16.057  0.00  0.00    +0.000 C 
ATOM     31  C   UNL     1       5.802   4.858  14.796  0.00  0.00    +0.000 C 
ATOM     32  C   UNL     1       7.122   4.575  16.925  0.00  0.00    +0.000 C 
ENDBRANCH  27  30
ENDBRANCH  22  29
ENDBRANCH  21  22
ENDBRANCH   1  21
TORSDOF 7
ENDMDL
MODEL 7
REMARK VINA RESULT:      -7.9      1.450      2.213
REMARK  Name = 
REMARK  10 active torsions:
REMARK  status: ('A' for Active; 'I' for Inactive)
REMARK    1  A    between atoms: C_1  and  C_2
REMARK    2  A    between atoms: C_5  and  C_6
REMARK    3  A    between atoms: C_6  and  C_7
REMARK    4  A    between atoms: C_6  and  C_8
REMARK    5  A    between atoms: C_10  and  O_11
REMARK    6  A    between atoms: O_11  and  C_12
REMARK    7  A    between atoms: C_12  and  C_13
REMARK    8  A    between atoms: C_18  and  C_19
REMARK    9  A    between atoms: N_21  and  C_22
REMARK   10  A    between atoms: C_27  and  O_28
REMARK                            x       y       z     vdW  Elec       q    Type
REMARK                         _______ _______ _______ _____ _____    ______ ____
ROOT
ATOM      1  C   UNL     1       3.380   5.751  19.585  0.00  0.00    +0.000 C 
ATOM      2  O   UNL     1       3.389   5.221  20.700  0.00  0.00    +0.000 OA
ATOM      3  N   UNL     1       4.411   5.545  18.679  0.00  0.00    +0.000 N 
ATOM      4  C   UNL     1       5.423   4.527  18.956  0.00  0.00    +0.000 C 
ATOM      5  C   UNL     1       6.814   5.148  19.027  0.00  0.00    +0.000 C 
ATOM      6  C   UNL     1       7.133   5.945  17.757  0.00  0.00    +0.000 C 
ATOM      7  C   UNL     1       6.015   6.988  17.516  0.00  0.00    +0.000 C 
ATOM      8  C   UNL     1       4.626   6.339  17.474  0.00  0.00    +0.000 C 
ENDROOT
BRANCH   6   9
ATOM      9  C   UNL     1       7.304   5.089  16.496  0.00  0.00    +0.000 C 
ATOM     10  O   UNL     1       7.984   4.064  16.551  0.00  0.00    +0.000 OA
ATOM     11  N   UNL     1       6.635   5.516  15.370  0.00  0.00    +0.000 N 
ATOM     12  H   UNL     1       6.207   6.435  15.348  0.00  0.00    +0.000 HD
BRANCH  11  13
ATOM     13  C   UNL     1       6.579   4.821  14.135  0.00  0.00    +0.000 A 
ATOM     14  C   UNL     1       5.549   3.935  13.801  0.00  0.00    +0.000 A 
ATOM     15  C   UNL     1       5.541   3.271  12.573  0.00  0.00    +0.000 A 
ATOM     16  C   UNL     1       6.563   3.488  11.655  0.00  0.00    +0.000 A 
ATOM     17  C   UNL     1       7.593   4.378  11.962  0.00  0.00    +0.000 A 
ATOM     18  C   UNL     1       7.592   5.044  13.193  0.00  0.00    +0.000 A 
BRANCH  18  19
ATOM     19  O   UNL     1       8.601   5.921  13.504  0.00  0.00    +0.000 OA
ATOM     20  H   UNL     1       8.409   6.298  14.380  0.00  0.00    +0.000 HD
ENDBRANCH  18  19
ENDBRANCH  11  13
ENDBRANCH   6   9
BRANCH   1  21
ATOM     21  C   UNL     1       2.164   6.573  19.142  0.00  0.00    +0.000 C 
BRANCH  21  22
ATOM     22  O   UNL     1       1.585   7.336  20.183  0.00  0.00    +0.000 OA
BRANCH  22  29
ATOM     23  C   UNL     1       2.145   8.892  17.508  0.00  0.00    +0.000 C 
ATOM     24  C   UNL     1       1.527   9.410  18.777  0.00  0.00    +0.000 A 
ATOM     25  C   UNL     1       1.111  10.756  18.751  0.00  0.00    +0.000 A 
ATOM     26  C   UNL     1       0.466  11.348  19.836  0.00  0.00    +0.000 A 
ATOM     27  C   UNL     1       0.205  10.612  20.992  0.00  0.00    +0.000 A 
ATOM     28  C   UNL     1       0.622   9.269  21.026  0.00  0.00    +0.000 A 
ATOM     29  C   UNL     1       1.293   8.659  19.943  0.00  0.00    +0.000 A 
BRANCH  27  30
ATOM     30  C   UNL     1      -0.512  11.284  22.149  0.00  0.00    +0.000 C 
ATOM     31  C   UNL     1      -1.732  12.085  21.691  0.00  0.00    +0.000 C 
ATOM     32  C   UNL     1      -0.891  10.285  23.243  0.00  0.00    +0.000 C 
ENDBRANCH  27  30
ENDBRANCH  22  29
ENDBRANCH  21  22
ENDBRANCH   1  21
TORSDOF 7
ENDMDL
MODEL 8
REMARK VINA RESULT:      -7.9      4.032     10.059
REMARK  Name = 
REMARK  10 active torsions:
REMARK  status: ('A' for Active; 'I' for Inactive)
REMARK    1  A    between atoms: C_1  and  C_2
REMARK    2  A    between atoms: C_5  and  C_6
REMARK    3  A    between atoms: C_6  and  C_7
REMARK    4  A    between atoms: C_6  and  C_8
REMARK    5  A    between atoms: C_10  and  O_11
REMARK    6  A    between atoms: O_11  and  C_12
REMARK    7  A    between atoms: C_12  and  C_13
REMARK    8  A    between atoms: C_18  and  C_19
REMARK    9  A    between atoms: N_21  and  C_22
REMARK   10  A    between atoms: C_27  and  O_28
REMARK                            x       y       z     vdW  Elec       q    Type
REMARK                         _______ _______ _______ _____ _____    ______ ____
ROOT
ATOM      1  C   UNL     1       1.509   8.564  20.570  0.00  0.00    +0.000 C 
ATOM      2  O   UNL     1       1.606   8.384  21.788  0.00  0.00    +0.000 OA
ATOM      3  N   UNL     1       0.946   9.721  20.053  0.00  0.00    +0.000 N 
ATOM      4  C   UNL     1       0.648  10.841  20.944  0.00  0.00    +0.000 C 
ATOM      5  C   UNL     1      -0.839  11.178  20.918  0.00  0.00    +0.000 C 
ATOM      6  C   UNL     1      -1.325  11.438  19.488  0.00  0.00    +0.000 C 
ATOM      7  C   UNL     1      -0.962  10.225  18.598  0.00  0.00    +0.000 C 
ATOM      8  C   UNL     1       0.534   9.894  18.663  0.00  0.00    +0.000 C 
ENDROOT
BRANCH   6   9
ATOM      9  C   UNL     1      -0.766  12.717  18.851  0.00  0.00    +0.000 C 
ATOM     10  O   UNL     1      -0.813  12.851  17.628  0.00  0.00    +0.000 OA
ATOM     11  N   UNL     1      -0.273  13.668  19.717  0.00  0.00    +0.000 N 
ATOM     12  H   UNL     1      -0.135  13.445  20.697  0.00  0.00    +0.000 HD
BRANCH  11  13
ATOM     13  C   UNL     1       0.195  14.955  19.344  0.00  0.00    +0.000 A 
ATOM     14  C   UNL     1       1.496  15.195  18.892  0.00  0.00    +0.000 A 
ATOM     15  C   UNL     1       1.911  16.481  18.541  0.00  0.00    +0.000 A 
ATOM     16  C   UNL     1       1.025  17.548  18.632  0.00  0.00    +0.000 A 
ATOM     17  C   UNL     1      -0.283  17.329  19.067  0.00  0.00    +0.000 A 
ATOM     18  C   UNL     1      -0.693  16.037  19.413  0.00  0.00    +0.000 A 
BRANCH  18  19
ATOM     19  O   UNL     1      -1.977  15.812  19.842  0.00  0.00    +0.000 OA
ATOM     20  H   UNL     1      -2.506  16.600  19.629  0.00  0.00    +0.000 HD
ENDBRANCH  18  19
ENDBRANCH  11  13
ENDBRANCH   6   9
BRANCH   1  21
ATOM     21  C   UNL     1       2.110   7.540  19.599  0.00  0.00    +0.000 C 
BRANCH  21  22
ATOM     22  O   UNL     1       2.017   6.203  20.054  0.00  0.00    +0.000 OA
BRANCH  22  29
ATOM     23  C   UNL     1       0.863   3.281  19.903  0.00  0.00    +0.000 C 
ATOM     24  C   UNL     1       2.006   3.875  19.127  0.00  0.00    +0.000 A 
ATOM     25  C   UNL     1       2.614   3.023  18.184  0.00  0.00    +0.000 A 
ATOM     26  C   UNL     1       3.645   3.461  17.353  0.00  0.00    +0.000 A 
ATOM     27  C   UNL     1       4.103   4.776  17.428  0.00  0.00    +0.000 A 
ATOM     28  C   UNL     1       3.503   5.631  18.371  0.00  0.00    +0.000 A 
ATOM     29  C   UNL     1       2.473   5.198  19.234  0.00  0.00    +0.000 A 
BRANCH  27  30
ATOM     30  C   UNL     1       5.217   5.224  16.498  0.00  0.00    +0.000 C 
ATOM     31  C   UNL     1       5.374   4.298  15.291  0.00  0.00    +0.000 C 
ATOM     32  C   UNL     1       5.041   6.677  16.056  0.00  0.00    +0.000 C 
ENDBRANCH  27  30
ENDBRANCH  22  29
ENDBRANCH  21  22
ENDBRANCH   1  21
TORSDOF 7
ENDMDL
MODEL 9
REMARK VINA RESULT:      -7.9      3.262      9.526
REMARK  Name = 
REMARK  10 active torsions:
REMARK  status: ('A' for Active; 'I' for Inactive)
REMARK    1  A    between atoms: C_1  and  C_2
REMARK    2  A    between atoms: C_5  and  C_6
REMARK    3  A    between atoms: C_6  and  C_7
REMARK    4  A    between atoms: C_6  and  C_8
REMARK    5  A    between atoms: C_10  and  O_11
REMARK    6  A    between atoms: O_11  and  C_12
REMARK    7  A    between atoms: C_12  and  C_13
REMARK    8  A    between atoms: C_18  and  C_19
REMARK    9  A    between atoms: N_21  and  C_22
REMARK   10  A    between atoms: C_27  and  O_28
REMARK                            x       y       z     vdW  Elec       q    Type
REMARK                         _______ _______ _______ _____ _____    ______ ____
ROOT
ATOM      1  C   UNL     1       2.451   6.868  19.038  0.00  0.00    +0.000 C 
ATOM      2  O   UNL     1       2.411   6.061  19.972  0.00  0.00    +0.000 OA
ATOM      3  N   UNL     1       1.997   8.170  19.187  0.00  0.00    +0.000 N 
ATOM      4  C   UNL     1       1.659   8.669  20.519  0.00  0.00    +0.000 C 
ATOM      5  C   UNL     1       0.199   9.107  20.582  0.00  0.00    +0.000 C 
ATOM      6  C   UNL     1      -0.122  10.130  19.486  0.00  0.00    +0.000 C 
ATOM      7  C   UNL     1       0.278   9.546  18.110  0.00  0.00    +0.000 C 
ATOM      8  C   UNL     1       1.742   9.091  18.084  0.00  0.00    +0.000 C 
ENDROOT
BRANCH   6   9
ATOM      9  C   UNL     1       0.558  11.493  19.672  0.00  0.00    +0.000 C 
ATOM     10  O   UNL     1       1.020  11.790  20.773  0.00  0.00    +0.000 OA
ATOM     11  N   UNL     1       0.641  12.293  18.554  0.00  0.00    +0.000 N 
ATOM     12  H   UNL     1       0.124  12.055  17.715  0.00  0.00    +0.000 HD
BRANCH  11  13
ATOM     13  C   UNL     1       1.314  13.540  18.484  0.00  0.00    +0.000 A 
ATOM     14  C   UNL     1       2.673  13.661  18.176  0.00  0.00    +0.000 A 
ATOM     15  C   UNL     1       3.291  14.912  18.125  0.00  0.00    +0.000 A 
ATOM     16  C   UNL     1       2.555  16.065  18.376  0.00  0.00    +0.000 A 
ATOM     17  C   UNL     1       1.195  15.968  18.671  0.00  0.00    +0.000 A 
ATOM     18  C   UNL     1       0.581  14.712  18.717  0.00  0.00    +0.000 A 
BRANCH  18  19
ATOM     19  O   UNL     1      -0.757  14.606  19.007  0.00  0.00    +0.000 OA
ATOM     20  H   UNL     1      -1.006  15.374  19.551  0.00  0.00    +0.000 HD
ENDBRANCH  18  19
ENDBRANCH  11  13
ENDBRANCH   6   9
BRANCH   1  21
ATOM     21  C   UNL     1       3.104   6.463  17.710  0.00  0.00    +0.000 C 
BRANCH  21  22
ATOM     22  O   UNL     1       4.404   6.991  17.533  0.00  0.00    +0.000 OA
BRANCH  22  29
ATOM     23  C   UNL     1       6.366   5.427  19.430  0.00  0.00    +0.000 C 
ATOM     24  C   UNL     1       6.319   5.423  17.927  0.00  0.00    +0.000 A 
ATOM     25  C   UNL     1       7.251   4.581  17.287  0.00  0.00    +0.000 A 
ATOM     26  C   UNL     1       7.278   4.433  15.901  0.00  0.00    +0.000 A 
ATOM     27  C   UNL     1       6.367   5.119  15.098  0.00  0.00    +0.000 A 
ATOM     28  C   UNL     1       5.437   5.965  15.730  0.00  0.00    +0.000 A 
ATOM     29  C   UNL     1       5.408   6.141  17.131  0.00  0.00    +0.000 A 
BRANCH  27  30
ATOM     30  C   UNL     1       6.415   4.923  13.593  0.00  0.00    +0.000 C 
ATOM     31  C   UNL     1       7.803   5.201  13.015  0.00  0.00    +0.000 C 
ATOM     32  C   UNL     1       5.916   3.537  13.182  0.00  0.00    +0.000 C 
ENDBRANCH  27  30
ENDBRANCH  22  29
ENDBRANCH  21  22
ENDBRANCH   1  21
TORSDOF 7
ENDMDL
