MODEL 1
REMARK VINA RESULT:      -8.6      0.000      0.000
REMARK  Name = 
REMARK  3 active torsions:
REMARK  status: ('A' for Active; 'I' for Inactive)
REMARK    1  A    between atoms: C_4  and  O_5
REMARK    2  A    between atoms: O_5  and  C_6
REMARK    3  A    between atoms: C_15  and  C_16
REMARK                            x       y       z     vdW  Elec       q    Type
REMARK                         _______ _______ _______ _____ _____    ______ ____
ROOT
ATOM      1 BR   UNL     1       8.179   8.478  18.087  0.00  0.00    +0.000 Br
ATOM      2  C   UNL     1       7.372   6.821  17.653  0.00  0.00    +0.000 A 
ATOM      3  C   UNL     1       6.913   5.987  18.667  0.00  0.00    +0.000 A 
ATOM      4  C   UNL     1       6.258   4.806  18.335  0.00  0.00    +0.000 A 
ATOM      5  C   UNL     1       6.177   4.413  16.995  0.00  0.00    +0.000 A 
ATOM      6  C   UNL     1       6.680   5.216  15.956  0.00  0.00    +0.000 A 
ATOM      7  C   UNL     1       7.244   6.455  16.315  0.00  0.00    +0.000 A 
ENDROOT
BRANCH   6   8
ATOM      8  C   UNL     1       6.663   4.765  14.546  0.00  0.00    +0.000 A 
ATOM      9  C   UNL     1       5.725   3.832  14.071  0.00  0.00    +0.000 A 
ATOM     10  C   UNL     1       5.758   3.377  12.749  0.00  0.00    +0.000 A 
ATOM     11  C   UNL     1       6.722   3.859  11.868  0.00  0.00    +0.000 A 
ATOM     12  C   UNL     1       7.654   4.790  12.304  0.00  0.00    +0.000 A 
ATOM     13  C   UNL     1       7.626   5.232  13.629  0.00  0.00    +0.000 A 
ENDBRANCH   6   8
BRANCH   4  14
ATOM     14  O   UNL     1       5.665   3.947  19.221  0.00  0.00    +0.000 OA
BRANCH  14  15
ATOM     15  C   UNL     1       4.277   3.641  19.013  0.00  0.00    +0.000 C 
ATOM     16  C   UNL     1       3.791   2.464  19.880  0.00  0.00    +0.000 C 
ATOM     17  C   UNL     1       2.261   2.365  19.899  0.00  0.00    +0.000 C 
ATOM     18  C   UNL     1       1.640   2.397  18.501  0.00  0.00    +0.000 C 
ATOM     19  C   UNL     1       1.392   3.883  18.224  0.00  0.00    +0.000 C 
ATOM     20  C   UNL     1       1.949   4.600  19.455  0.00  0.00    +0.000 C 
ATOM     21  C   UNL     1       3.455   4.899  19.351  0.00  0.00    +0.000 C 
ATOM     22  N   UNL     1       1.748   3.599  20.514  0.00  0.00    +0.000 NA
ATOM     23  H   UNL     1       0.746   3.490  20.683  0.00  0.00    +0.000 HD
ENDBRANCH  14  15
ENDBRANCH   4  14
TORSDOF 3
ENDMDL
MODEL 2
REMARK VINA RESULT:      -8.6      0.166      1.036
REMARK  Name = 
REMARK  3 active torsions:
REMARK  status: ('A' for Active; 'I' for Inactive)
REMARK    1  A    between atoms: C_4  and  O_5
REMARK    2  A    between atoms: O_5  and  C_6
REMARK    3  A    between atoms: C_15  and  C_16
REMARK                            x       y       z     vdW  Elec       q    Type
REMARK                         _______ _______ _______ _____ _____    ______ ____
ROOT
ATOM      1 BR   UNL     1       8.149   8.604  18.103  0.00  0.00    +0.000 Br
ATOM      2  C   UNL     1       7.386   6.925  17.670  0.00  0.00    +0.000 A 
ATOM      3  C   UNL     1       6.910   6.100  18.683  0.00  0.00    +0.000 A 
ATOM      4  C   UNL     1       6.288   4.902  18.350  0.00  0.00    +0.000 A 
ATOM      5  C   UNL     1       6.256   4.486  17.015  0.00  0.00    +0.000 A 
ATOM      6  C   UNL     1       6.778   5.281  15.979  0.00  0.00    +0.000 A 
ATOM      7  C   UNL     1       7.308   6.536  16.336  0.00  0.00    +0.000 A 
ENDROOT
BRANCH   6   8
ATOM      8  C   UNL     1       6.814   4.808  14.577  0.00  0.00    +0.000 A 
ATOM      9  C   UNL     1       7.686   5.360  13.623  0.00  0.00    +0.000 A 
ATOM     10  C   UNL     1       7.667   4.937  12.290  0.00  0.00    +0.000 A 
ATOM     11  C   UNL     1       6.785   3.940  11.886  0.00  0.00    +0.000 A 
ATOM     12  C   UNL     1       5.920   3.366  12.808  0.00  0.00    +0.000 A 
ATOM     13  C   UNL     1       5.932   3.800  14.134  0.00  0.00    +0.000 A 
ENDBRANCH   6   8
BRANCH   4  14
ATOM     14  O   UNL     1       5.682   4.046  19.231  0.00  0.00    +0.000 OA
BRANCH  14  15
ATOM     15  C   UNL     1       4.319   3.682  18.964  0.00  0.00    +0.000 C 
ATOM     16  C   UNL     1       3.893   2.393  19.693  0.00  0.00    +0.000 C 
ATOM     17  C   UNL     1       2.372   2.202  19.670  0.00  0.00    +0.000 C 
ATOM     18  C   UNL     1       1.770   2.345  18.270  0.00  0.00    +0.000 C 
ATOM     19  C   UNL     1       1.435   3.835  18.146  0.00  0.00    +0.000 C 
ATOM     20  C   UNL     1       1.930   4.449  19.455  0.00  0.00    +0.000 C 
ATOM     21  C   UNL     1       3.416   4.846  19.415  0.00  0.00    +0.000 C 
ATOM     22  N   UNL     1       1.776   3.331  20.399  0.00  0.00    +0.000 NA
ATOM     23  H   UNL     1       0.780   3.146  20.535  0.00  0.00    +0.000 HD
ENDBRANCH  14  15
ENDBRANCH   4  14
TORSDOF 3
ENDMDL
MODEL 3
REMARK VINA RESULT:      -8.5      0.748      1.183
REMARK  Name = 
REMARK  3 active torsions:
REMARK  status: ('A' for Active; 'I' for Inactive)
REMARK    1  A    between atoms: C_4  and  O_5
REMARK    2  A    between atoms: O_5  and  C_6
REMARK    3  A    between atoms: C_15  and  C_16
REMARK                            x       y       z     vdW  Elec       q    Type
REMARK                         _______ _______ _______ _____ _____    ______ ____
ROOT
ATOM      1 BR   UNL     1       8.136   8.341  18.151  0.00  0.00    +0.000 Br
ATOM      2  C   UNL     1       7.337   6.700  17.646  0.00  0.00    +0.000 A 
ATOM      3  C   UNL     1       6.847   5.840  18.621  0.00  0.00    +0.000 A 
ATOM      4  C   UNL     1       6.199   4.671  18.238  0.00  0.00    +0.000 A 
ATOM      5  C   UNL     1       6.154   4.318  16.885  0.00  0.00    +0.000 A 
ATOM      6  C   UNL     1       6.689   5.148  15.884  0.00  0.00    +0.000 A 
ATOM      7  C   UNL     1       7.246   6.374  16.295  0.00  0.00    +0.000 A 
ENDROOT
BRANCH   6   8
ATOM      8  C   UNL     1       6.710   4.739  14.462  0.00  0.00    +0.000 A 
ATOM      9  C   UNL     1       5.838   3.762  13.952  0.00  0.00    +0.000 A 
ATOM     10  C   UNL     1       5.909   3.348  12.617  0.00  0.00    +0.000 A 
ATOM     11  C   UNL     1       6.845   3.918  11.759  0.00  0.00    +0.000 A 
ATOM     12  C   UNL     1       7.711   4.895  12.230  0.00  0.00    +0.000 A 
ATOM     13  C   UNL     1       7.646   5.295  13.566  0.00  0.00    +0.000 A 
ENDBRANCH   6   8
BRANCH   4  14
ATOM     14  O   UNL     1       5.578   3.788  19.080  0.00  0.00    +0.000 OA
BRANCH  14  15
ATOM     15  C   UNL     1       4.149   3.688  18.993  0.00  0.00    +0.000 C 
ATOM     16  C   UNL     1       3.679   2.986  17.705  0.00  0.00    +0.000 C 
ATOM     17  C   UNL     1       2.199   2.593  17.777  0.00  0.00    +0.000 C 
ATOM     18  C   UNL     1       1.292   3.746  18.216  0.00  0.00    +0.000 C 
ATOM     19  C   UNL     1       1.243   3.635  19.744  0.00  0.00    +0.000 C 
ATOM     20  C   UNL     1       2.177   2.471  20.074  0.00  0.00    +0.000 C 
ATOM     21  C   UNL     1       3.649   2.897  20.216  0.00  0.00    +0.000 C 
ATOM     22  N   UNL     1       2.055   1.626  18.876  0.00  0.00    +0.000 NA
ATOM     23  H   UNL     1       1.113   1.230  18.844  0.00  0.00    +0.000 HD
ENDBRANCH  14  15
ENDBRANCH   4  14
TORSDOF 3
ENDMDL
MODEL 4
REMARK VINA RESULT:      -8.3      1.366      2.119
REMARK  Name = 
REMARK  3 active torsions:
REMARK  status: ('A' for Active; 'I' for Inactive)
REMARK    1  A    between atoms: C_4  and  O_5
REMARK    2  A    between atoms: O_5  and  C_6
REMARK    3  A    between atoms: C_15  and  C_16
REMARK                            x       y       z     vdW  Elec       q    Type
REMARK                         _______ _______ _______ _____ _____    ______ ____
ROOT
ATOM      1 BR   UNL     1       7.859   5.872  19.160  0.00  0.00    +0.000 Br
ATOM      2  C   UNL     1       6.725   5.027  17.901  0.00  0.00    +0.000 A 
ATOM      3  C   UNL     1       5.614   4.316  18.338  0.00  0.00    +0.000 A 
ATOM      4  C   UNL     1       4.748   3.759  17.403  0.00  0.00    +0.000 A 
ATOM      5  C   UNL     1       5.070   3.818  16.043  0.00  0.00    +0.000 A 
ATOM      6  C   UNL     1       6.216   4.488  15.581  0.00  0.00    +0.000 A 
ATOM      7  C   UNL     1       7.017   5.131  16.543  0.00  0.00    +0.000 A 
ENDROOT
BRANCH   6   8
ATOM      8  C   UNL     1       6.597   4.485  14.150  0.00  0.00    +0.000 A 
ATOM      9  C   UNL     1       6.040   3.579  13.231  0.00  0.00    +0.000 A 
ATOM     10  C   UNL     1       6.452   3.554  11.894  0.00  0.00    +0.000 A 
ATOM     11  C   UNL     1       7.419   4.449  11.445  0.00  0.00    +0.000 A 
ATOM     12  C   UNL     1       7.977   5.365  12.326  0.00  0.00    +0.000 A 
ATOM     13  C   UNL     1       7.574   5.376  13.662  0.00  0.00    +0.000 A 
ENDBRANCH   6   8
BRANCH   4  14
ATOM     14  O   UNL     1       3.567   3.127  17.685  0.00  0.00    +0.000 OA
BRANCH  14  15
ATOM     15  C   UNL     1       3.023   3.304  19.002  0.00  0.00    +0.000 C 
ATOM     16  C   UNL     1       2.278   4.643  19.163  0.00  0.00    +0.000 C 
ATOM     17  C   UNL     1       1.432   4.674  20.441  0.00  0.00    +0.000 C 
ATOM     18  C   UNL     1       2.212   4.250  21.687  0.00  0.00    +0.000 C 
ATOM     19  C   UNL     1       2.010   2.733  21.769  0.00  0.00    +0.000 C 
ATOM     20  C   UNL     1       1.187   2.389  20.527  0.00  0.00    +0.000 C 
ATOM     21  C   UNL     1       2.050   2.143  19.278  0.00  0.00    +0.000 C 
ATOM     22  N   UNL     1       0.412   3.622  20.318  0.00  0.00    +0.000 NA
ATOM     23  H   UNL     1      -0.261   3.725  21.080  0.00  0.00    +0.000 HD
ENDBRANCH  14  15
ENDBRANCH   4  14
TORSDOF 3
ENDMDL
MODEL 5
REMARK VINA RESULT:      -8.3      1.313      1.854
REMARK  Name = 
REMARK  3 active torsions:
REMARK  status: ('A' for Active; 'I' for Inactive)
REMARK    1  A    between atoms: C_4  and  O_5
REMARK    2  A    between atoms: O_5  and  C_6
REMARK    3  A    between atoms: C_15  and  C_16
REMARK                            x       y       z     vdW  Elec       q    Type
REMARK                         _______ _______ _______ _____ _____    ______ ____
ROOT
ATOM      1 BR   UNL     1       8.158   6.592  18.930  0.00  0.00    +0.000 Br
ATOM      2  C   UNL     1       6.742   6.002  17.819  0.00  0.00    +0.000 A 
ATOM      3  C   UNL     1       5.454   5.904  18.334  0.00  0.00    +0.000 A 
ATOM      4  C   UNL     1       4.409   5.538  17.492  0.00  0.00    +0.000 A 
ATOM      5  C   UNL     1       4.684   5.158  16.174  0.00  0.00    +0.000 A 
ATOM      6  C   UNL     1       5.987   5.200  15.647  0.00  0.00    +0.000 A 
ATOM      7  C   UNL     1       7.008   5.674  16.492  0.00  0.00    +0.000 A 
ENDROOT
BRANCH   6   8
ATOM      8  C   UNL     1       6.288   4.725  14.278  0.00  0.00    +0.000 A 
ATOM      9  C   UNL     1       5.510   3.745  13.638  0.00  0.00    +0.000 A 
ATOM     10  C   UNL     1       5.842   3.269  12.365  0.00  0.00    +0.000 A 
ATOM     11  C   UNL     1       6.953   3.778  11.698  0.00  0.00    +0.000 A 
ATOM     12  C   UNL     1       7.733   4.756  12.298  0.00  0.00    +0.000 A 
ATOM     13  C   UNL     1       7.406   5.218  13.574  0.00  0.00    +0.000 A 
ENDBRANCH   6   8
BRANCH   4  14
ATOM     14  O   UNL     1       3.084   5.503  17.834  0.00  0.00    +0.000 OA
BRANCH  14  15
ATOM     15  C   UNL     1       2.668   4.484  18.756  0.00  0.00    +0.000 C 
ATOM     16  C   UNL     1       1.991   5.061  20.014  0.00  0.00    +0.000 C 
ATOM     17  C   UNL     1       1.265   3.976  20.818  0.00  0.00    +0.000 C 
ATOM     18  C   UNL     1       2.137   2.750  21.096  0.00  0.00    +0.000 C 
ATOM     19  C   UNL     1       1.888   1.823  19.902  0.00  0.00    +0.000 C 
ATOM     20  C   UNL     1       0.944   2.612  18.995  0.00  0.00    +0.000 C 
ATOM     21  C   UNL     1       1.681   3.554  18.027  0.00  0.00    +0.000 C 
ATOM     22  N   UNL     1       0.199   3.433  19.962  0.00  0.00    +0.000 NA
ATOM     23  H   UNL     1      -0.397   2.825  20.525  0.00  0.00    +0.000 HD
ENDBRANCH  14  15
ENDBRANCH   4  14
TORSDOF 3
ENDMDL
MODEL 6
REMARK VINA RESULT:      -8.3      1.281      2.057
REMARK  Name = 
REMARK  3 active torsions:
REMARK  status: ('A' for Active; 'I' for Inactive)
REMARK    1  A    between atoms: C_4  and  O_5
REMARK    2  A    between atoms: O_5  and  C_6
REMARK    3  A    between atoms: C_15  and  C_16
REMARK                            x       y       z     vdW  Elec       q    Type
REMARK                         _______ _______ _______ _____ _____    ______ ____
ROOT
ATOM      1 BR   UNL     1       8.130   7.189  18.590  0.00  0.00    +0.000 Br
ATOM      2  C   UNL     1       6.727   6.387  17.604  0.00  0.00    +0.000 A 
ATOM      3  C   UNL     1       5.464   6.262  18.173  0.00  0.00    +0.000 A 
ATOM      4  C   UNL     1       4.423   5.736  17.416  0.00  0.00    +0.000 A 
ATOM      5  C   UNL     1       4.685   5.230  16.138  0.00  0.00    +0.000 A 
ATOM      6  C   UNL     1       5.966   5.298  15.562  0.00  0.00    +0.000 A 
ATOM      7  C   UNL     1       6.976   5.931  16.312  0.00  0.00    +0.000 A 
ENDROOT
BRANCH   6   8
ATOM      8  C   UNL     1       6.260   4.694  14.243  0.00  0.00    +0.000 A 
ATOM      9  C   UNL     1       7.413   5.023  13.510  0.00  0.00    +0.000 A 
ATOM     10  C   UNL     1       7.646   4.484  12.240  0.00  0.00    +0.000 A 
ATOM     11  C   UNL     1       6.737   3.589  11.684  0.00  0.00    +0.000 A 
ATOM     12  C   UNL     1       5.595   3.234  12.390  0.00  0.00    +0.000 A 
ATOM     13  C   UNL     1       5.359   3.786  13.650  0.00  0.00    +0.000 A 
ENDBRANCH   6   8
BRANCH   4  14
ATOM     14  O   UNL     1       3.114   5.653  17.807  0.00  0.00    +0.000 OA
BRANCH  14  15
ATOM     15  C   UNL     1       2.767   4.605  18.726  0.00  0.00    +0.000 C 
ATOM     16  C   UNL     1       2.321   5.142  20.099  0.00  0.00    +0.000 C 
ATOM     17  C   UNL     1       1.647   4.056  20.944  0.00  0.00    +0.000 C 
ATOM     18  C   UNL     1       2.463   2.764  21.024  0.00  0.00    +0.000 C 
ATOM     19  C   UNL     1       1.980   1.929  19.833  0.00  0.00    +0.000 C 
ATOM     20  C   UNL     1       0.971   2.829  19.120  0.00  0.00    +0.000 C 
ATOM     21  C   UNL     1       1.622   3.783  18.104  0.00  0.00    +0.000 C 
ATOM     22  N   UNL     1       0.433   3.633  20.229  0.00  0.00    +0.000 NA
ATOM     23  H   UNL     1      -0.116   3.027  20.842  0.00  0.00    +0.000 HD
ENDBRANCH  14  15
ENDBRANCH   4  14
TORSDOF 3
ENDMDL
MODEL 7
REMARK VINA RESULT:      -8.1      1.475      1.685
REMARK  Name = 
REMARK  3 active torsions:
REMARK  status: ('A' for Active; 'I' for Inactive)
REMARK    1  A    between atoms: C_4  and  O_5
REMARK    2  A    between atoms: O_5  and  C_6
REMARK    3  A    between atoms: C_15  and  C_16
REMARK                            x       y       z     vdW  Elec       q    Type
REMARK                         _______ _______ _______ _____ _____    ______ ____
ROOT
ATOM      1 BR   UNL     1       8.156   5.695  19.389  0.00  0.00    +0.000 Br
ATOM      2  C   UNL     1       6.762   5.549  18.116  0.00  0.00    +0.000 A 
ATOM      3  C   UNL     1       5.438   5.685  18.520  0.00  0.00    +0.000 A 
ATOM      4  C   UNL     1       4.426   5.646  17.567  0.00  0.00    +0.000 A 
ATOM      5  C   UNL     1       4.741   5.351  16.236  0.00  0.00    +0.000 A 
ATOM      6  C   UNL     1       6.068   5.159  15.814  0.00  0.00    +0.000 A 
ATOM      7  C   UNL     1       7.080   5.308  16.782  0.00  0.00    +0.000 A 
ENDROOT
BRANCH   6   8
ATOM      8  C   UNL     1       6.394   4.772  14.422  0.00  0.00    +0.000 A 
ATOM      9  C   UNL     1       5.677   3.777  13.735  0.00  0.00    +0.000 A 
ATOM     10  C   UNL     1       6.034   3.386  12.441  0.00  0.00    +0.000 A 
ATOM     11  C   UNL     1       7.108   3.996  11.799  0.00  0.00    +0.000 A 
ATOM     12  C   UNL     1       7.827   4.991  12.446  0.00  0.00    +0.000 A 
ATOM     13  C   UNL     1       7.476   5.368  13.744  0.00  0.00    +0.000 A 
ENDBRANCH   6   8
BRANCH   4  14
ATOM     14  O   UNL     1       3.097   5.869  17.805  0.00  0.00    +0.000 OA
BRANCH  14  15
ATOM     15  C   UNL     1       2.344   4.799  18.397  0.00  0.00    +0.000 C 
ATOM     16  C   UNL     1       2.762   3.414  17.868  0.00  0.00    +0.000 C 
ATOM     17  C   UNL     1       2.199   2.280  18.733  0.00  0.00    +0.000 C 
ATOM     18  C   UNL     1       0.696   2.413  18.991  0.00  0.00    +0.000 C 
ATOM     19  C   UNL     1       0.599   3.241  20.277  0.00  0.00    +0.000 C 
ATOM     20  C   UNL     1       2.049   3.580  20.624  0.00  0.00    +0.000 C 
ATOM     21  C   UNL     1       2.559   4.850  19.921  0.00  0.00    +0.000 C 
ATOM     22  N   UNL     1       2.777   2.424  20.077  0.00  0.00    +0.000 NA
ATOM     23  H   UNL     1       2.544   1.595  20.626  0.00  0.00    +0.000 HD
ENDBRANCH  14  15
ENDBRANCH   4  14
TORSDOF 3
ENDMDL
MODEL 8
REMARK VINA RESULT:      -8.1      1.430      2.155
REMARK  Name = 
REMARK  3 active torsions:
REMARK  status: ('A' for Active; 'I' for Inactive)
REMARK    1  A    between atoms: C_4  and  O_5
REMARK    2  A    between atoms: O_5  and  C_6
REMARK    3  A    between atoms: C_15  and  C_16
REMARK                            x       y       z     vdW  Elec       q    Type
REMARK                         _______ _______ _______ _____ _____    ______ ____
ROOT
ATOM      1 BR   UNL     1       8.164   5.823  19.459  0.00  0.00    +0.000 Br
ATOM      2  C   UNL     1       6.776   5.583  18.193  0.00  0.00    +0.000 A 
ATOM      3  C   UNL     1       5.449   5.663  18.598  0.00  0.00    +0.000 A 
ATOM      4  C   UNL     1       4.438   5.555  17.649  0.00  0.00    +0.000 A 
ATOM      5  C   UNL     1       4.764   5.250  16.324  0.00  0.00    +0.000 A 
ATOM      6  C   UNL     1       6.099   5.114  15.901  0.00  0.00    +0.000 A 
ATOM      7  C   UNL     1       7.103   5.331  16.863  0.00  0.00    +0.000 A 
ENDROOT
BRANCH   6   8
ATOM      8  C   UNL     1       6.440   4.715  14.517  0.00  0.00    +0.000 A 
ATOM      9  C   UNL     1       7.522   5.281  13.821  0.00  0.00    +0.000 A 
ATOM     10  C   UNL     1       7.797   4.932  12.495  0.00  0.00    +0.000 A 
ATOM     11  C   UNL     1       7.002   3.995  11.841  0.00  0.00    +0.000 A 
ATOM     12  C   UNL     1       5.935   3.408  12.506  0.00  0.00    +0.000 A 
ATOM     13  C   UNL     1       5.656   3.770  13.826  0.00  0.00    +0.000 A 
ENDBRANCH   6   8
BRANCH   4  14
ATOM     14  O   UNL     1       3.100   5.718  17.886  0.00  0.00    +0.000 OA
BRANCH  14  15
ATOM     15  C   UNL     1       2.448   4.726  18.694  0.00  0.00    +0.000 C 
ATOM     16  C   UNL     1       1.441   3.877  17.895  0.00  0.00    +0.000 C 
ATOM     17  C   UNL     1       1.007   2.628  18.671  0.00  0.00    +0.000 C 
ATOM     18  C   UNL     1       0.554   2.937  20.100  0.00  0.00    +0.000 C 
ATOM     19  C   UNL     1       1.832   2.832  20.939  0.00  0.00    +0.000 C 
ATOM     20  C   UNL     1       2.935   2.538  19.922  0.00  0.00    +0.000 C 
ATOM     21  C   UNL     1       3.531   3.807  19.290  0.00  0.00    +0.000 C 
ATOM     22  N   UNL     1       2.205   1.801  18.878  0.00  0.00    +0.000 NA
ATOM     23  H   UNL     1       1.918   0.894  19.251  0.00  0.00    +0.000 HD
ENDBRANCH  14  15
ENDBRANCH   4  14
TORSDOF 3
ENDMDL
MODEL 9
REMARK VINA RESULT:      -8.1      1.221      2.208
REMARK  Name = 
REMARK  3 active torsions:
REMARK  status: ('A' for Active; 'I' for Inactive)
REMARK    1  A    between atoms: C_4  and  O_5
REMARK    2  A    between atoms: O_5  and  C_6
REMARK    3  A    between atoms: C_15  and  C_16
REMARK                            x       y       z     vdW  Elec       q    Type
REMARK                         _______ _______ _______ _____ _____    ______ ____
ROOT
ATOM      1 BR   UNL     1       7.829   6.450  18.977  0.00  0.00    +0.000 Br
ATOM      2  C   UNL     1       6.810   5.350  17.820  0.00  0.00    +0.000 A 
ATOM      3  C   UNL     1       5.825   4.520  18.344  0.00  0.00    +0.000 A 
ATOM      4  C   UNL     1       5.035   3.769  17.481  0.00  0.00    +0.000 A 
ATOM      5  C   UNL     1       5.319   3.765  16.111  0.00  0.00    +0.000 A 
ATOM      6  C   UNL     1       6.344   4.557  15.565  0.00  0.00    +0.000 A 
ATOM      7  C   UNL     1       7.059   5.386  16.451  0.00  0.00    +0.000 A 
ENDROOT
BRANCH   6   8
ATOM      8  C   UNL     1       6.695   4.495  14.128  0.00  0.00    +0.000 A 
ATOM      9  C   UNL     1       7.658   5.343  13.555  0.00  0.00    +0.000 A 
ATOM     10  C   UNL     1       7.936   5.307  12.185  0.00  0.00    +0.000 A 
ATOM     11  C   UNL     1       7.267   4.408  11.360  0.00  0.00    +0.000 A 
ATOM     12  C   UNL     1       6.320   3.547  11.898  0.00  0.00    +0.000 A 
ATOM     13  C   UNL     1       6.035   3.596  13.264  0.00  0.00    +0.000 A 
ENDBRANCH   6   8
BRANCH   4  14
ATOM     14  O   UNL     1       3.967   2.995  17.846  0.00  0.00    +0.000 OA
BRANCH  14  15
ATOM     15  C   UNL     1       3.236   3.390  19.018  0.00  0.00    +0.000 C 
ATOM     16  C   UNL     1       2.092   4.373  18.702  0.00  0.00    +0.000 C 
ATOM     17  C   UNL     1       1.129   4.524  19.885  0.00  0.00    +0.000 C 
ATOM     18  C   UNL     1       1.843   4.814  21.208  0.00  0.00    +0.000 C 
ATOM     19  C   UNL     1       2.123   3.431  21.805  0.00  0.00    +0.000 C 
ATOM     20  C   UNL     1       1.611   2.448  20.751  0.00  0.00    +0.000 C 
ATOM     21  C   UNL     1       2.654   2.122  19.669  0.00  0.00    +0.000 C 
ATOM     22  N   UNL     1       0.517   3.208  20.125  0.00  0.00    +0.000 NA
ATOM     23  H   UNL     1      -0.242   3.316  20.800  0.00  0.00    +0.000 HD
ENDBRANCH  14  15
ENDBRANCH   4  14
TORSDOF 3
ENDMDL
