MODEL 1
REMARK VINA RESULT:      -7.2      0.000      0.000
REMARK  Name = 
REMARK  6 active torsions:
REMARK  status: ('A' for Active; 'I' for Inactive)
REMARK    1  A    between atoms: C_1  and  C_2
REMARK    2  A    between atoms: C_6  and  C_7
REMARK    3  A    between atoms: N_9  and  C_10
REMARK    4  A    between atoms: C_12  and  N_13
REMARK    5  A    between atoms: C_18  and  N_19
REMARK    6  A    between atoms: N_22  and  C_23
REMARK                            x       y       z     vdW  Elec       q    Type
REMARK                         _______ _______ _______ _____ _____    ______ ____
ROOT
ATOM      1  C   UNL     1       4.479   5.170  16.533  0.00  0.00    +0.000 A 
ATOM      2  C   UNL     1       5.433   5.564  15.576  0.00  0.00    +0.000 A 
ATOM      3  C   UNL     1       6.238   4.608  14.960  0.00  0.00    +0.000 A 
ATOM      4  C   UNL     1       6.130   3.267  15.320  0.00  0.00    +0.000 A 
ATOM      5  C   UNL     1       5.182   2.888  16.278  0.00  0.00    +0.000 A 
ATOM      6  C   UNL     1       4.310   3.811  16.897  0.00  0.00    +0.000 A 
ENDROOT
BRANCH   6   7
ATOM      7  N   UNL     1       3.449   3.348  17.886  0.00  0.00    +0.000 N 
ATOM      8  C   UNL     1       1.983   3.393  17.775  0.00  0.00    +0.000 C 
ATOM      9  C   UNL     1       1.329   3.622  19.153  0.00  0.00    +0.000 C 
ATOM     10  N   UNL     1       1.773   2.658  20.183  0.00  0.00    +0.000 NA
ATOM     11  C   UNL     1       1.183   3.006  21.475  0.00  0.00    +0.000 C 
ATOM     12  C   UNL     1       3.251   2.675  20.265  0.00  0.00    +0.000 C 
ATOM     13  C   UNL     1       3.937   2.399  18.906  0.00  0.00    +0.000 C 
ENDBRANCH   6   7
BRANCH   1  16
ATOM     14  C   UNL     1       3.697   6.596  18.349  0.00  0.00    +0.000 C 
ATOM     15  O   UNL     1       4.444   6.109  19.194  0.00  0.00    +0.000 OA
ATOM     16  N   UNL     1       3.628   6.176  17.039  0.00  0.00    +0.000 N 
ATOM     17  H   UNL     1       2.795   6.375  16.500  0.00  0.00    +0.000 HD
BRANCH  14  23
ATOM     18  C   UNL     1       0.020   8.438  21.386  0.00  0.00    +0.000 C 
ATOM     19  C   UNL     1       0.955   8.542  20.209  0.00  0.00    +0.000 A 
ATOM     20  C   UNL     1       0.751   9.575  19.280  0.00  0.00    +0.000 A 
ATOM     21  C   UNL     1       1.532   9.665  18.133  0.00  0.00    +0.000 A 
ATOM     22  C   UNL     1       2.500   8.696  17.883  0.00  0.00    +0.000 A 
ATOM     23  C   UNL     1       2.723   7.642  18.791  0.00  0.00    +0.000 A 
ATOM     24  C   UNL     1       1.960   7.576  19.970  0.00  0.00    +0.000 A 
ATOM     25 CL   UNL     1       2.192   6.323  21.145  0.00  0.00    +0.000 Cl
ENDBRANCH  14  23
ENDBRANCH   1  16
BRANCH   3  26
ATOM     26  N   UNL     1       7.182   5.010  13.912  0.00  0.00    +0.000 N 
ATOM     27  O   UNL     1       6.993   4.582  12.763  0.00  0.00    +0.000 OA
ATOM     28  O   UNL     1       8.131   5.736  14.241  0.00  0.00    +0.000 OA
ENDBRANCH   3  26
TORSDOF 4
ENDMDL
MODEL 2
REMARK VINA RESULT:      -7.0      1.155      1.657
REMARK  Name = 
REMARK  6 active torsions:
REMARK  status: ('A' for Active; 'I' for Inactive)
REMARK    1  A    between atoms: C_1  and  C_2
REMARK    2  A    between atoms: C_6  and  C_7
REMARK    3  A    between atoms: N_9  and  C_10
REMARK    4  A    between atoms: C_12  and  N_13
REMARK    5  A    between atoms: C_18  and  N_19
REMARK    6  A    between atoms: N_22  and  C_23
REMARK                            x       y       z     vdW  Elec       q    Type
REMARK                         _______ _______ _______ _____ _____    ______ ____
ROOT
ATOM      1  C   UNL     1       4.194   5.003  17.082  0.00  0.00    +0.000 A 
ATOM      2  C   UNL     1       5.095   5.468  16.106  0.00  0.00    +0.000 A 
ATOM      3  C   UNL     1       5.936   4.571  15.449  0.00  0.00    +0.000 A 
ATOM      4  C   UNL     1       5.917   3.220  15.787  0.00  0.00    +0.000 A 
ATOM      5  C   UNL     1       5.021   2.771  16.765  0.00  0.00    +0.000 A 
ATOM      6  C   UNL     1       4.116   3.631  17.425  0.00  0.00    +0.000 A 
ENDROOT
BRANCH   6   7
ATOM      7  N   UNL     1       3.312   3.101  18.430  0.00  0.00    +0.000 N 
ATOM      8  C   UNL     1       1.855   2.939  18.306  0.00  0.00    +0.000 C 
ATOM      9  C   UNL     1       1.158   3.142  19.667  0.00  0.00    +0.000 C 
ATOM     10  N   UNL     1       1.715   2.298  20.746  0.00  0.00    +0.000 NA
ATOM     11  C   UNL     1       1.065   2.623  22.016  0.00  0.00    +0.000 C 
ATOM     12  C   UNL     1       3.176   2.522  20.838  0.00  0.00    +0.000 C 
ATOM     13  C   UNL     1       3.912   2.278  19.498  0.00  0.00    +0.000 C 
ENDBRANCH   6   7
BRANCH   1  16
ATOM     14  C   UNL     1       3.353   6.314  18.957  0.00  0.00    +0.000 C 
ATOM     15  O   UNL     1       4.121   5.822  19.781  0.00  0.00    +0.000 OA
ATOM     16  N   UNL     1       3.301   5.949  17.631  0.00  0.00    +0.000 N 
ATOM     17  H   UNL     1       2.460   6.135  17.100  0.00  0.00    +0.000 HD
BRANCH  14  23
ATOM     18  C   UNL     1       0.871  10.781  18.822  0.00  0.00    +0.000 C 
ATOM     19  C   UNL     1       1.147   9.426  19.419  0.00  0.00    +0.000 A 
ATOM     20  C   UNL     1       0.609   9.128  20.681  0.00  0.00    +0.000 A 
ATOM     21  C   UNL     1       0.902   7.924  21.313  0.00  0.00    +0.000 A 
ATOM     22  C   UNL     1       1.773   7.023  20.706  0.00  0.00    +0.000 A 
ATOM     23  C   UNL     1       2.336   7.297  19.444  0.00  0.00    +0.000 A 
ATOM     24  C   UNL     1       2.006   8.496  18.788  0.00  0.00    +0.000 A 
ATOM     25 CL   UNL     1       2.641   8.892  17.225  0.00  0.00    +0.000 Cl
ENDBRANCH  14  23
ENDBRANCH   1  16
BRANCH   3  26
ATOM     26  N   UNL     1       6.823   5.046  14.382  0.00  0.00    +0.000 N 
ATOM     27  O   UNL     1       6.547   4.734  13.214  0.00  0.00    +0.000 OA
ATOM     28  O   UNL     1       7.815   5.712  14.713  0.00  0.00    +0.000 OA
ENDBRANCH   3  26
TORSDOF 4
ENDMDL
MODEL 3
REMARK VINA RESULT:      -6.9      1.815      2.363
REMARK  Name = 
REMARK  6 active torsions:
REMARK  status: ('A' for Active; 'I' for Inactive)
REMARK    1  A    between atoms: C_1  and  C_2
REMARK    2  A    between atoms: C_6  and  C_7
REMARK    3  A    between atoms: N_9  and  C_10
REMARK    4  A    between atoms: C_12  and  N_13
REMARK    5  A    between atoms: C_18  and  N_19
REMARK    6  A    between atoms: N_22  and  C_23
REMARK                            x       y       z     vdW  Elec       q    Type
REMARK                         _______ _______ _______ _____ _____    ______ ____
ROOT
ATOM      1  C   UNL     1       4.514   5.719  18.574  0.00  0.00    +0.000 A 
ATOM      2  C   UNL     1       5.524   6.328  17.807  0.00  0.00    +0.000 A 
ATOM      3  C   UNL     1       6.312   5.559  16.953  0.00  0.00    +0.000 A 
ATOM      4  C   UNL     1       6.129   4.180  16.888  0.00  0.00    +0.000 A 
ATOM      5  C   UNL     1       5.125   3.583  17.661  0.00  0.00    +0.000 A 
ATOM      6  C   UNL     1       4.270   4.325  18.505  0.00  0.00    +0.000 A 
ENDROOT
BRANCH   6   7
ATOM      7  N   UNL     1       3.347   3.634  19.284  0.00  0.00    +0.000 N 
ATOM      8  C   UNL     1       1.894   3.692  19.067  0.00  0.00    +0.000 C 
ATOM      9  C   UNL     1       1.129   3.584  20.402  0.00  0.00    +0.000 C 
ATOM     10  N   UNL     1       1.518   2.408  21.211  0.00  0.00    +0.000 NA
ATOM     11  C   UNL     1       0.820   2.437  22.496  0.00  0.00    +0.000 C 
ATOM     12  C   UNL     1       2.984   2.418  21.416  0.00  0.00    +0.000 C 
ATOM     13  C   UNL     1       3.781   2.476  20.090  0.00  0.00    +0.000 C 
ENDBRANCH   6   7
BRANCH   1  16
ATOM     14  C   UNL     1       2.545   7.136  18.814  0.00  0.00    +0.000 C 
ATOM     15  O   UNL     1       2.178   7.002  17.648  0.00  0.00    +0.000 OA
ATOM     16  N   UNL     1       3.688   6.572  19.337  0.00  0.00    +0.000 N 
ATOM     17  H   UNL     1       4.100   6.973  20.169  0.00  0.00    +0.000 HD
BRANCH  14  23
ATOM     18  C   UNL     1       0.578  11.675  20.104  0.00  0.00    +0.000 C 
ATOM     19  C   UNL     1       0.826  10.209  20.351  0.00  0.00    +0.000 A 
ATOM     20  C   UNL     1       0.533   9.685  21.620  0.00  0.00    +0.000 A 
ATOM     21  C   UNL     1       0.822   8.359  21.925  0.00  0.00    +0.000 A 
ATOM     22  C   UNL     1       1.447   7.555  20.976  0.00  0.00    +0.000 A 
ATOM     23  C   UNL     1       1.762   8.054  19.697  0.00  0.00    +0.000 A 
ATOM     24  C   UNL     1       1.432   9.383  19.376  0.00  0.00    +0.000 A 
ATOM     25 CL   UNL     1       1.767  10.061  17.817  0.00  0.00    +0.000 Cl
ENDBRANCH  14  23
ENDBRANCH   1  16
BRANCH   3  26
ATOM     26  N   UNL     1       7.316   6.205  16.101  0.00  0.00    +0.000 N 
ATOM     27  O   UNL     1       7.535   5.713  14.984  0.00  0.00    +0.000 OA
ATOM     28  O   UNL     1       7.909   7.193  16.560  0.00  0.00    +0.000 OA
ENDBRANCH   3  26
TORSDOF 4
ENDMDL
MODEL 4
REMARK VINA RESULT:      -6.8      1.324      1.767
REMARK  Name = 
REMARK  6 active torsions:
REMARK  status: ('A' for Active; 'I' for Inactive)
REMARK    1  A    between atoms: C_1  and  C_2
REMARK    2  A    between atoms: C_6  and  C_7
REMARK    3  A    between atoms: N_9  and  C_10
REMARK    4  A    between atoms: C_12  and  N_13
REMARK    5  A    between atoms: C_18  and  N_19
REMARK    6  A    between atoms: N_22  and  C_23
REMARK                            x       y       z     vdW  Elec       q    Type
REMARK                         _______ _______ _______ _____ _____    ______ ____
ROOT
ATOM      1  C   UNL     1       4.286   5.737  17.568  0.00  0.00    +0.000 A 
ATOM      2  C   UNL     1       5.204   5.916  16.517  0.00  0.00    +0.000 A 
ATOM      3  C   UNL     1       5.683   4.813  15.813  0.00  0.00    +0.000 A 
ATOM      4  C   UNL     1       5.287   3.528  16.175  0.00  0.00    +0.000 A 
ATOM      5  C   UNL     1       4.378   3.361  17.227  0.00  0.00    +0.000 A 
ATOM      6  C   UNL     1       3.827   4.449  17.940  0.00  0.00    +0.000 A 
ENDROOT
BRANCH   6   7
ATOM      7  N   UNL     1       2.984   4.178  19.013  0.00  0.00    +0.000 N 
ATOM      8  C   UNL     1       3.201   4.701  20.371  0.00  0.00    +0.000 C 
ATOM      9  C   UNL     1       2.722   3.693  21.436  0.00  0.00    +0.000 C 
ATOM     10  N   UNL     1       1.327   3.244  21.237  0.00  0.00    +0.000 NA
ATOM     11  C   UNL     1       0.989   2.222  22.227  0.00  0.00    +0.000 C 
ATOM     12  C   UNL     1       1.177   2.707  19.865  0.00  0.00    +0.000 C 
ATOM     13  C   UNL     1       1.604   3.714  18.770  0.00  0.00    +0.000 C 
ENDBRANCH   6   7
BRANCH   1  16
ATOM     14  C   UNL     1       2.448   7.278  18.005  0.00  0.00    +0.000 C 
ATOM     15  O   UNL     1       1.641   6.682  17.294  0.00  0.00    +0.000 OA
ATOM     16  N   UNL     1       3.763   6.903  18.167  0.00  0.00    +0.000 N 
ATOM     17  H   UNL     1       4.438   7.591  18.479  0.00  0.00    +0.000 HD
BRANCH  14  23
ATOM     18  C   UNL     1       0.124   9.989  21.663  0.00  0.00    +0.000 C 
ATOM     19  C   UNL     1       0.890   9.873  20.371  0.00  0.00    +0.000 A 
ATOM     20  C   UNL     1       0.997  11.008  19.552  0.00  0.00    +0.000 A 
ATOM     21  C   UNL     1       1.621  10.934  18.311  0.00  0.00    +0.000 A 
ATOM     22  C   UNL     1       2.107   9.711  17.859  0.00  0.00    +0.000 A 
ATOM     23  C   UNL     1       2.007   8.551  18.653  0.00  0.00    +0.000 A 
ATOM     24  C   UNL     1       1.413   8.637  19.924  0.00  0.00    +0.000 A 
ATOM     25 CL   UNL     1       1.274   7.260  20.967  0.00  0.00    +0.000 Cl
ENDBRANCH  14  23
ENDBRANCH   1  16
BRANCH   3  26
ATOM     26  N   UNL     1       6.584   5.007  14.672  0.00  0.00    +0.000 N 
ATOM     27  O   UNL     1       7.606   5.686  14.847  0.00  0.00    +0.000 OA
ATOM     28  O   UNL     1       6.256   4.499  13.589  0.00  0.00    +0.000 OA
ENDBRANCH   3  26
TORSDOF 4
ENDMDL
MODEL 5
REMARK VINA RESULT:      -6.7      3.128      5.084
REMARK  Name = 
REMARK  6 active torsions:
REMARK  status: ('A' for Active; 'I' for Inactive)
REMARK    1  A    between atoms: C_1  and  C_2
REMARK    2  A    between atoms: C_6  and  C_7
REMARK    3  A    between atoms: N_9  and  C_10
REMARK    4  A    between atoms: C_12  and  N_13
REMARK    5  A    between atoms: C_18  and  N_19
REMARK    6  A    between atoms: N_22  and  C_23
REMARK                            x       y       z     vdW  Elec       q    Type
REMARK                         _______ _______ _______ _____ _____    ______ ____
ROOT
ATOM      1  C   UNL     1       3.056   5.243  18.210  0.00  0.00    +0.000 A 
ATOM      2  C   UNL     1       2.021   4.317  18.435  0.00  0.00    +0.000 A 
ATOM      3  C   UNL     1       2.310   2.957  18.531  0.00  0.00    +0.000 A 
ATOM      4  C   UNL     1       3.617   2.507  18.364  0.00  0.00    +0.000 A 
ATOM      5  C   UNL     1       4.638   3.437  18.133  0.00  0.00    +0.000 A 
ATOM      6  C   UNL     1       4.404   4.829  18.074  0.00  0.00    +0.000 A 
ENDROOT
BRANCH   6   7
ATOM      7  N   UNL     1       5.473   5.667  17.774  0.00  0.00    +0.000 N 
ATOM      8  C   UNL     1       6.872   5.351  18.101  0.00  0.00    +0.000 C 
ATOM      9  C   UNL     1       7.666   6.631  18.436  0.00  0.00    +0.000 C 
ATOM     10  N   UNL     1       7.568   7.675  17.394  0.00  0.00    +0.000 NA
ATOM     11  C   UNL     1       8.265   8.883  17.835  0.00  0.00    +0.000 C 
ATOM     12  C   UNL     1       6.141   7.967  17.126  0.00  0.00    +0.000 C 
ATOM     13  C   UNL     1       5.327   6.709  16.738  0.00  0.00    +0.000 C 
ENDBRANCH   6   7
BRANCH   1  16
ATOM     14  C   UNL     1       2.195   7.215  19.354  0.00  0.00    +0.000 C 
ATOM     15  O   UNL     1       1.944   6.626  20.403  0.00  0.00    +0.000 OA
ATOM     16  N   UNL     1       2.707   6.610  18.227  0.00  0.00    +0.000 N 
ATOM     17  H   UNL     1       2.581   7.055  17.327  0.00  0.00    +0.000 HD
BRANCH  14  23
ATOM     18  C   UNL     1      -0.529  11.344  20.647  0.00  0.00    +0.000 C 
ATOM     19  C   UNL     1       0.528  10.644  19.833  0.00  0.00    +0.000 A 
ATOM     20  C   UNL     1       1.050  11.301  18.708  0.00  0.00    +0.000 A 
ATOM     21  C   UNL     1       1.966  10.666  17.875  0.00  0.00    +0.000 A 
ATOM     22  C   UNL     1       2.336   9.350  18.137  0.00  0.00    +0.000 A 
ATOM     23  C   UNL     1       1.823   8.660  19.253  0.00  0.00    +0.000 A 
ATOM     24  C   UNL     1       0.929   9.317  20.117  0.00  0.00    +0.000 A 
ATOM     25 CL   UNL     1       0.273   8.543  21.522  0.00  0.00    +0.000 Cl
ENDBRANCH  14  23
ENDBRANCH   1  16
BRANCH   3  26
ATOM     26  N   UNL     1       1.241   2.000  18.837  0.00  0.00    +0.000 N 
ATOM     27  O   UNL     1       0.122   2.199  18.340  0.00  0.00    +0.000 OA
ATOM     28  O   UNL     1       1.512   1.060  19.599  0.00  0.00    +0.000 OA
ENDBRANCH   3  26
TORSDOF 4
ENDMDL
MODEL 6
REMARK VINA RESULT:      -6.6      5.750     10.385
REMARK  Name = 
REMARK  6 active torsions:
REMARK  status: ('A' for Active; 'I' for Inactive)
REMARK    1  A    between atoms: C_1  and  C_2
REMARK    2  A    between atoms: C_6  and  C_7
REMARK    3  A    between atoms: N_9  and  C_10
REMARK    4  A    between atoms: C_12  and  N_13
REMARK    5  A    between atoms: C_18  and  N_19
REMARK    6  A    between atoms: N_22  and  C_23
REMARK                            x       y       z     vdW  Elec       q    Type
REMARK                         _______ _______ _______ _____ _____    ______ ____
ROOT
ATOM      1  C   UNL     1      -0.252  11.769  21.449  0.00  0.00    +0.000 A 
ATOM      2  C   UNL     1      -1.460  11.555  22.139  0.00  0.00    +0.000 A 
ATOM      3  C   UNL     1      -2.350  12.610  22.332  0.00  0.00    +0.000 A 
ATOM      4  C   UNL     1      -2.027  13.887  21.880  0.00  0.00    +0.000 A 
ATOM      5  C   UNL     1      -0.820  14.090  21.201  0.00  0.00    +0.000 A 
ATOM      6  C   UNL     1       0.093  13.044  20.938  0.00  0.00    +0.000 A 
ENDROOT
BRANCH   6   7
ATOM      7  N   UNL     1       1.297  13.359  20.315  0.00  0.00    +0.000 N 
ATOM      8  C   UNL     1       2.534  13.672  21.046  0.00  0.00    +0.000 C 
ATOM      9  C   UNL     1       3.380  14.713  20.285  0.00  0.00    +0.000 C 
ATOM     10  N   UNL     1       3.652  14.337  18.880  0.00  0.00    +0.000 NA
ATOM     11  C   UNL     1       4.372  15.419  18.208  0.00  0.00    +0.000 C 
ATOM     12  C   UNL     1       2.372  14.059  18.191  0.00  0.00    +0.000 C 
ATOM     13  C   UNL     1       1.521  12.981  18.906  0.00  0.00    +0.000 C 
ENDBRANCH   6   7
BRANCH   1  16
ATOM     14  C   UNL     1       0.320   9.804  20.126  0.00  0.00    +0.000 C 
ATOM     15  O   UNL     1      -0.617   9.930  19.340  0.00  0.00    +0.000 OA
ATOM     16  N   UNL     1       0.551  10.636  21.198  0.00  0.00    +0.000 N 
ATOM     17  H   UNL     1       1.113  10.302  21.971  0.00  0.00    +0.000 HD
BRANCH  14  23
ATOM     18  C   UNL     1       3.547   6.796  17.540  0.00  0.00    +0.000 C 
ATOM     19  C   UNL     1       2.734   7.144  18.761  0.00  0.00    +0.000 A 
ATOM     20  C   UNL     1       2.572   6.169  19.757  0.00  0.00    +0.000 A 
ATOM     21  C   UNL     1       1.763   6.409  20.863  0.00  0.00    +0.000 A 
ATOM     22  C   UNL     1       1.073   7.614  20.961  0.00  0.00    +0.000 A 
ATOM     23  C   UNL     1       1.209   8.610  19.973  0.00  0.00    +0.000 A 
ATOM     24  C   UNL     1       2.059   8.382  18.877  0.00  0.00    +0.000 A 
ATOM     25 CL   UNL     1       2.294   9.566  17.634  0.00  0.00    +0.000 Cl
ENDBRANCH  14  23
ENDBRANCH   1  16
BRANCH   3  26
ATOM     26  N   UNL     1      -3.639  12.369  22.988  0.00  0.00    +0.000 N 
ATOM     27  O   UNL     1      -3.632  12.048  24.186  0.00  0.00    +0.000 OA
ATOM     28  O   UNL     1      -4.664  12.476  22.298  0.00  0.00    +0.000 OA
ENDBRANCH   3  26
TORSDOF 4
ENDMDL
MODEL 7
REMARK VINA RESULT:      -6.6      3.019      5.436
REMARK  Name = 
REMARK  6 active torsions:
REMARK  status: ('A' for Active; 'I' for Inactive)
REMARK    1  A    between atoms: C_1  and  C_2
REMARK    2  A    between atoms: C_6  and  C_7
REMARK    3  A    between atoms: N_9  and  C_10
REMARK    4  A    between atoms: C_12  and  N_13
REMARK    5  A    between atoms: C_18  and  N_19
REMARK    6  A    between atoms: N_22  and  C_23
REMARK                            x       y       z     vdW  Elec       q    Type
REMARK                         _______ _______ _______ _____ _____    ______ ____
ROOT
ATOM      1  C   UNL     1       3.461   5.383  19.563  0.00  0.00    +0.000 A 
ATOM      2  C   UNL     1       2.515   4.479  20.081  0.00  0.00    +0.000 A 
ATOM      3  C   UNL     1       2.810   3.118  20.142  0.00  0.00    +0.000 A 
ATOM      4  C   UNL     1       4.025   2.645  19.653  0.00  0.00    +0.000 A 
ATOM      5  C   UNL     1       4.956   3.553  19.133  0.00  0.00    +0.000 A 
ATOM      6  C   UNL     1       4.724   4.946  19.094  0.00  0.00    +0.000 A 
ENDROOT
BRANCH   6   7
ATOM      7  N   UNL     1       5.682   5.759  18.498  0.00  0.00    +0.000 N 
ATOM      8  C   UNL     1       7.130   5.585  18.689  0.00  0.00    +0.000 C 
ATOM      9  C   UNL     1       7.860   6.944  18.663  0.00  0.00    +0.000 C 
ATOM     10  N   UNL     1       7.557   7.753  17.462  0.00  0.00    +0.000 NA
ATOM     11  C   UNL     1       8.210   9.058  17.566  0.00  0.00    +0.000 C 
ATOM     12  C   UNL     1       6.091   7.914  17.337  0.00  0.00    +0.000 C 
ATOM     13  C   UNL     1       5.334   6.564  17.310  0.00  0.00    +0.000 C 
ENDBRANCH   6   7
BRANCH   1  16
ATOM     14  C   UNL     1       2.208   7.324  18.786  0.00  0.00    +0.000 C 
ATOM     15  O   UNL     1       1.632   6.722  17.883  0.00  0.00    +0.000 OA
ATOM     16  N   UNL     1       3.137   6.755  19.629  0.00  0.00    +0.000 N 
ATOM     17  H   UNL     1       3.797   7.351  20.111  0.00  0.00    +0.000 HD
BRANCH  14  23
ATOM     18  C   UNL     1       0.002  11.437  20.871  0.00  0.00    +0.000 C 
ATOM     19  C   UNL     1       0.917  10.775  19.875  0.00  0.00    +0.000 A 
ATOM     20  C   UNL     1       1.405  11.540  18.803  0.00  0.00    +0.000 A 
ATOM     21  C   UNL     1       2.185  10.956  17.810  0.00  0.00    +0.000 A 
ATOM     22  C   UNL     1       2.449   9.590  17.857  0.00  0.00    +0.000 A 
ATOM     23  C   UNL     1       1.967   8.794  18.915  0.00  0.00    +0.000 A 
ATOM     24  C   UNL     1       1.214   9.394  19.940  0.00  0.00    +0.000 A 
ATOM     25 CL   UNL     1       0.605   8.485  21.284  0.00  0.00    +0.000 Cl
ENDBRANCH  14  23
ENDBRANCH   1  16
BRANCH   3  26
ATOM     26  N   UNL     1       1.852   2.187  20.747  0.00  0.00    +0.000 N 
ATOM     27  O   UNL     1       1.166   1.484  19.989  0.00  0.00    +0.000 OA
ATOM     28  O   UNL     1       1.765   2.175  21.984  0.00  0.00    +0.000 OA
ENDBRANCH   3  26
TORSDOF 4
ENDMDL
MODEL 8
REMARK VINA RESULT:      -6.5      6.286     10.916
REMARK  Name = 
REMARK  6 active torsions:
REMARK  status: ('A' for Active; 'I' for Inactive)
REMARK    1  A    between atoms: C_1  and  C_2
REMARK    2  A    between atoms: C_6  and  C_7
REMARK    3  A    between atoms: N_9  and  C_10
REMARK    4  A    between atoms: C_12  and  N_13
REMARK    5  A    between atoms: C_18  and  N_19
REMARK    6  A    between atoms: N_22  and  C_23
REMARK                            x       y       z     vdW  Elec       q    Type
REMARK                         _______ _______ _______ _____ _____    ______ ____
ROOT
ATOM      1  C   UNL     1      -1.158  12.620  21.365  0.00  0.00    +0.000 A 
ATOM      2  C   UNL     1      -2.289  12.202  22.091  0.00  0.00    +0.000 A 
ATOM      3  C   UNL     1      -2.978  13.110  22.893  0.00  0.00    +0.000 A 
ATOM      4  C   UNL     1      -2.526  14.422  23.010  0.00  0.00    +0.000 A 
ATOM      5  C   UNL     1      -1.396  14.825  22.287  0.00  0.00    +0.000 A 
ATOM      6  C   UNL     1      -0.691  13.956  21.424  0.00  0.00    +0.000 A 
ENDROOT
BRANCH   6   7
ATOM      7  N   UNL     1       0.459  14.431  20.802  0.00  0.00    +0.000 N 
ATOM      8  C   UNL     1       0.443  15.380  19.678  0.00  0.00    +0.000 C 
ATOM      9  C   UNL     1       1.611  15.112  18.709  0.00  0.00    +0.000 C 
ATOM     10  N   UNL     1       2.932  15.070  19.374  0.00  0.00    +0.000 NA
ATOM     11  C   UNL     1       3.966  14.714  18.402  0.00  0.00    +0.000 C 
ATOM     12  C   UNL     1       2.893  14.082  20.476  0.00  0.00    +0.000 C 
ATOM     13  C   UNL     1       1.760  14.354  21.495  0.00  0.00    +0.000 C 
ENDBRANCH   6   7
BRANCH   1  16
ATOM     14  C   UNL     1       0.454  10.852  20.898  0.00  0.00    +0.000 C 
ATOM     15  O   UNL     1       0.984  10.899  22.006  0.00  0.00    +0.000 OA
ATOM     16  N   UNL     1      -0.573  11.676  20.493  0.00  0.00    +0.000 N 
ATOM     17  H   UNL     1      -0.734  11.815  19.504  0.00  0.00    +0.000 HD
BRANCH  14  23
ATOM     18  C   UNL     1       2.579   6.442  19.425  0.00  0.00    +0.000 C 
ATOM     19  C   UNL     1       2.060   7.830  19.152  0.00  0.00    +0.000 A 
ATOM     20  C   UNL     1       2.351   8.422  17.913  0.00  0.00    +0.000 A 
ATOM     21  C   UNL     1       1.968   9.731  17.642  0.00  0.00    +0.000 A 
ATOM     22  C   UNL     1       1.326  10.477  18.627  0.00  0.00    +0.000 A 
ATOM     23  C   UNL     1       1.027   9.914  19.884  0.00  0.00    +0.000 A 
ATOM     24  C   UNL     1       1.379   8.577  20.141  0.00  0.00    +0.000 A 
ATOM     25 CL   UNL     1       1.025   7.809  21.653  0.00  0.00    +0.000 Cl
ENDBRANCH  14  23
ENDBRANCH   1  16
BRANCH   3  26
ATOM     26  N   UNL     1      -4.197  12.691  23.593  0.00  0.00    +0.000 N 
ATOM     27  O   UNL     1      -4.146  12.569  24.826  0.00  0.00    +0.000 OA
ATOM     28  O   UNL     1      -5.202  12.457  22.906  0.00  0.00    +0.000 OA
ENDBRANCH   3  26
TORSDOF 4
ENDMDL
MODEL 9
REMARK VINA RESULT:      -6.5      6.161     10.750
REMARK  Name = 
REMARK  6 active torsions:
REMARK  status: ('A' for Active; 'I' for Inactive)
REMARK    1  A    between atoms: C_1  and  C_2
REMARK    2  A    between atoms: C_6  and  C_7
REMARK    3  A    between atoms: N_9  and  C_10
REMARK    4  A    between atoms: C_12  and  N_13
REMARK    5  A    between atoms: C_18  and  N_19
REMARK    6  A    between atoms: N_22  and  C_23
REMARK                            x       y       z     vdW  Elec       q    Type
REMARK                         _______ _______ _______ _____ _____    ______ ____
ROOT
ATOM      1  C   UNL     1       0.017  12.466  21.668  0.00  0.00    +0.000 A 
ATOM      2  C   UNL     1      -1.070  12.212  22.526  0.00  0.00    +0.000 A 
ATOM      3  C   UNL     1      -1.811  13.272  23.046  0.00  0.00    +0.000 A 
ATOM      4  C   UNL     1      -1.453  14.585  22.751  0.00  0.00    +0.000 A 
ATOM      5  C   UNL     1      -0.366  14.826  21.901  0.00  0.00    +0.000 A 
ATOM      6  C   UNL     1       0.387  13.786  21.311  0.00  0.00    +0.000 A 
ENDROOT
BRANCH   6   7
ATOM      7  N   UNL     1       1.490  14.127  20.535  0.00  0.00    +0.000 N 
ATOM      8  C   UNL     1       2.882  13.928  20.967  0.00  0.00    +0.000 C 
ATOM      9  C   UNL     1       3.798  15.037  20.413  0.00  0.00    +0.000 C 
ATOM     10  N   UNL     1       3.697  15.208  18.947  0.00  0.00    +0.000 NA
ATOM     11  C   UNL     1       4.521  16.339  18.522  0.00  0.00    +0.000 C 
ATOM     12  C   UNL     1       2.281  15.429  18.577  0.00  0.00    +0.000 C 
ATOM     13  C   UNL     1       1.341  14.305  19.078  0.00  0.00    +0.000 C 
ENDBRANCH   6   7
BRANCH   1  16
ATOM     14  C   UNL     1       0.253  10.813  19.893  0.00  0.00    +0.000 C 
ATOM     15  O   UNL     1      -0.713  11.215  19.247  0.00  0.00    +0.000 OA
ATOM     16  N   UNL     1       0.656  11.345  21.097  0.00  0.00    +0.000 N 
ATOM     17  H   UNL     1       1.223  10.784  21.719  0.00  0.00    +0.000 HD
BRANCH  14  23
ATOM     18  C   UNL     1       2.275   6.148  20.422  0.00  0.00    +0.000 C 
ATOM     19  C   UNL     1       1.968   7.385  19.620  0.00  0.00    +0.000 A 
ATOM     20  C   UNL     1       2.613   7.561  18.386  0.00  0.00    +0.000 A 
ATOM     21  C   UNL     1       2.429   8.724  17.646  0.00  0.00    +0.000 A 
ATOM     22  C   UNL     1       1.630   9.743  18.156  0.00  0.00    +0.000 A 
ATOM     23  C   UNL     1       0.976   9.602  19.395  0.00  0.00    +0.000 A 
ATOM     24  C   UNL     1       1.130   8.409  20.123  0.00  0.00    +0.000 A 
ATOM     25 CL   UNL     1       0.340   8.152  21.644  0.00  0.00    +0.000 Cl
ENDBRANCH  14  23
ENDBRANCH   1  16
BRANCH   3  26
ATOM     26  N   UNL     1      -2.985  13.004  23.882  0.00  0.00    +0.000 N 
ATOM     27  O   UNL     1      -3.551  11.907  23.756  0.00  0.00    +0.000 OA
ATOM     28  O   UNL     1      -3.362  13.902  24.649  0.00  0.00    +0.000 OA
ENDBRANCH   3  26
TORSDOF 4
ENDMDL
