MODEL 1
REMARK VINA RESULT:      -8.5      0.000      0.000
REMARK  Name = 
REMARK  6 active torsions:
REMARK  status: ('A' for Active; 'I' for Inactive)
REMARK    1  A    between atoms: C_1  and  C_2
REMARK    2  A    between atoms: C_2  and  C_3
REMARK    3  A    between atoms: C_2  and  N_4
REMARK    4  A    between atoms: C_6  and  C_7
REMARK    5  A    between atoms: C_14  and  O_15
REMARK    6  A    between atoms: O_15  and  C_16
REMARK                            x       y       z     vdW  Elec       q    Type
REMARK                         _______ _______ _______ _____ _____    ______ ____
ROOT
ATOM      1  C   UNL     1       3.349   3.644  17.679  0.00  0.00    +0.000 A 
ATOM      2  N   UNL     1       3.057   2.404  17.258  0.00  0.00    +0.000 NA
ATOM      3  N   UNL     1       2.461   1.840  18.311  0.00  0.00    +0.000 N 
ATOM      4  C   UNL     1       2.274   2.686  19.368  0.00  0.00    +0.000 A 
ATOM      5  C   UNL     1       1.745   2.459  20.634  0.00  0.00    +0.000 A 
ATOM      6  C   UNL     1       1.744   3.561  21.467  0.00  0.00    +0.000 A 
ATOM      7  N   UNL     1       2.192   4.785  21.124  0.00  0.00    +0.000 NA
ATOM      8  C   UNL     1       2.719   4.985  19.885  0.00  0.00    +0.000 A 
ATOM      9  C   UNL     1       2.785   3.923  18.968  0.00  0.00    +0.000 A 
ATOM     10  H   UNL     1       2.254   0.850  18.266  0.00  0.00    +0.000 HD
ENDROOT
BRANCH   1  13
ATOM     11  N   UNL     1       6.283   5.439  16.989  0.00  0.00    +0.000 N 
ATOM     12  C   UNL     1       4.954   5.621  17.271  0.00  0.00    +0.000 A 
ATOM     13  C   UNL     1       4.414   4.385  17.009  0.00  0.00    +0.000 A 
ATOM     14  C   UNL     1       5.327   3.800  16.103  0.00  0.00    +0.000 A 
ATOM     15  N   UNL     1       6.487   4.473  16.070  0.00  0.00    +0.000 NA
BRANCH  11  17
ATOM     16  C   UNL     1       7.535   7.461  17.533  0.00  0.00    +0.000 C 
ATOM     17  C   UNL     1       7.399   5.968  17.769  0.00  0.00    +0.000 C 
ATOM     18  C   UNL     1       7.283   5.644  19.270  0.00  0.00    +0.000 C 
ENDBRANCH  11  17
ENDBRANCH   1  13
BRANCH   8  19
ATOM     19  O   UNL     1       3.161   6.243  19.548  0.00  0.00    +0.000 OA
BRANCH  19  20
ATOM     20  C   UNL     1       2.148   7.182  19.172  0.00  0.00    +0.000 C 
ATOM     21  C   UNL     1       2.650   8.105  18.061  0.00  0.00    +0.000 C 
ATOM     22  C   UNL     1       1.662   9.230  17.823  0.00  0.00    +0.000 C 
ATOM     23  O   UNL     1       1.420   9.963  19.020  0.00  0.00    +0.000 OA
ATOM     24  C   UNL     1       0.868   9.148  20.051  0.00  0.00    +0.000 C 
ATOM     25  C   UNL     1       1.821   8.020  20.412  0.00  0.00    +0.000 C 
ENDBRANCH  19  20
ENDBRANCH   8  19
TORSDOF 4
ENDMDL
MODEL 2
REMARK VINA RESULT:      -8.0      1.228      2.003
REMARK  Name = 
REMARK  6 active torsions:
REMARK  status: ('A' for Active; 'I' for Inactive)
REMARK    1  A    between atoms: C_1  and  C_2
REMARK    2  A    between atoms: C_2  and  C_3
REMARK    3  A    between atoms: C_2  and  N_4
REMARK    4  A    between atoms: C_6  and  C_7
REMARK    5  A    between atoms: C_14  and  O_15
REMARK    6  A    between atoms: O_15  and  C_16
REMARK                            x       y       z     vdW  Elec       q    Type
REMARK                         _______ _______ _______ _____ _____    ______ ____
ROOT
ATOM      1  C   UNL     1       3.596   3.679  17.653  0.00  0.00    +0.000 A 
ATOM      2  N   UNL     1       3.366   2.425  17.232  0.00  0.00    +0.000 NA
ATOM      3  N   UNL     1       2.687   1.868  18.237  0.00  0.00    +0.000 N 
ATOM      4  C   UNL     1       2.389   2.729  19.256  0.00  0.00    +0.000 A 
ATOM      5  C   UNL     1       1.751   2.514  20.473  0.00  0.00    +0.000 A 
ATOM      6  C   UNL     1       1.654   3.630  21.280  0.00  0.00    +0.000 A 
ATOM      7  N   UNL     1       2.109   4.857  20.956  0.00  0.00    +0.000 NA
ATOM      8  C   UNL     1       2.743   5.045  19.766  0.00  0.00    +0.000 A 
ATOM      9  C   UNL     1       2.912   3.969  18.880  0.00  0.00    +0.000 A 
ATOM     10  H   UNL     1       2.504   0.874  18.193  0.00  0.00    +0.000 HD
ENDROOT
BRANCH   1  13
ATOM     11  N   UNL     1       6.178   4.779  15.551  0.00  0.00    +0.000 N 
ATOM     12  C   UNL     1       5.956   4.026  16.674  0.00  0.00    +0.000 A 
ATOM     13  C   UNL     1       4.703   4.429  17.068  0.00  0.00    +0.000 A 
ATOM     14  C   UNL     1       4.566   5.717  16.501  0.00  0.00    +0.000 A 
ATOM     15  N   UNL     1       5.503   5.946  15.570  0.00  0.00    +0.000 NA
BRANCH  11  17
ATOM     16  C   UNL     1       5.748   3.728  13.391  0.00  0.00    +0.000 C 
ATOM     17  C   UNL     1       6.803   4.305  14.318  0.00  0.00    +0.000 C 
ATOM     18  C   UNL     1       7.633   5.395  13.614  0.00  0.00    +0.000 C 
ENDBRANCH  11  17
ENDBRANCH   1  13
BRANCH   8  19
ATOM     19  O   UNL     1       3.190   6.306  19.446  0.00  0.00    +0.000 OA
BRANCH  19  20
ATOM     20  C   UNL     1       2.180   7.257  19.093  0.00  0.00    +0.000 C 
ATOM     21  C   UNL     1       2.695   8.224  18.026  0.00  0.00    +0.000 C 
ATOM     22  C   UNL     1       1.707   9.356  17.818  0.00  0.00    +0.000 C 
ATOM     23  O   UNL     1       1.448  10.041  19.039  0.00  0.00    +0.000 OA
ATOM     24  C   UNL     1       0.884   9.186  20.031  0.00  0.00    +0.000 C 
ATOM     25  C   UNL     1       1.834   8.046  20.361  0.00  0.00    +0.000 C 
ENDBRANCH  19  20
ENDBRANCH   8  19
TORSDOF 4
ENDMDL
MODEL 3
REMARK VINA RESULT:      -7.7      2.124      5.112
REMARK  Name = 
REMARK  6 active torsions:
REMARK  status: ('A' for Active; 'I' for Inactive)
REMARK    1  A    between atoms: C_1  and  C_2
REMARK    2  A    between atoms: C_2  and  C_3
REMARK    3  A    between atoms: C_2  and  N_4
REMARK    4  A    between atoms: C_6  and  C_7
REMARK    5  A    between atoms: C_14  and  O_15
REMARK    6  A    between atoms: O_15  and  C_16
REMARK                            x       y       z     vdW  Elec       q    Type
REMARK                         _______ _______ _______ _____ _____    ______ ____
ROOT
ATOM      1  C   UNL     1       1.773   4.996  20.223  0.00  0.00    +0.000 A 
ATOM      2  N   UNL     1       0.535   4.572  20.521  0.00  0.00    +0.000 NA
ATOM      3  N   UNL     1       0.480   3.347  19.996  0.00  0.00    +0.000 N 
ATOM      4  C   UNL     1       1.657   2.921  19.445  0.00  0.00    +0.000 A 
ATOM      5  C   UNL     1       1.974   1.747  18.770  0.00  0.00    +0.000 A 
ATOM      6  C   UNL     1       3.277   1.675  18.317  0.00  0.00    +0.000 A 
ATOM      7  N   UNL     1       4.210   2.629  18.502  0.00  0.00    +0.000 NA
ATOM      8  C   UNL     1       3.877   3.777  19.153  0.00  0.00    +0.000 A 
ATOM      9  C   UNL     1       2.571   3.959  19.636  0.00  0.00    +0.000 A 
ATOM     10  H   UNL     1      -0.412   2.870  19.995  0.00  0.00    +0.000 HD
ENDROOT
BRANCH   1  13
ATOM     11  N   UNL     1       1.788   8.402  19.384  0.00  0.00    +0.000 N 
ATOM     12  C   UNL     1       2.491   7.243  19.180  0.00  0.00    +0.000 A 
ATOM     13  C   UNL     1       2.040   6.431  20.193  0.00  0.00    +0.000 A 
ATOM     14  C   UNL     1       1.575   7.337  21.174  0.00  0.00    +0.000 A 
ATOM     15  N   UNL     1       1.441   8.574  20.676  0.00  0.00    +0.000 NA
BRANCH  11  17
ATOM     16  C   UNL     1      -0.110   9.835  18.839  0.00  0.00    +0.000 C 
ATOM     17  C   UNL     1       1.189   9.230  18.339  0.00  0.00    +0.000 C 
ATOM     18  C   UNL     1       2.148  10.314  17.815  0.00  0.00    +0.000 C 
ENDBRANCH  11  17
ENDBRANCH   1  13
BRANCH   8  19
ATOM     19  O   UNL     1       4.845   4.735  19.343  0.00  0.00    +0.000 OA
BRANCH  19  20
ATOM     20  C   UNL     1       5.651   5.046  18.202  0.00  0.00    +0.000 C 
ATOM     21  C   UNL     1       6.702   6.101  18.551  0.00  0.00    +0.000 C 
ATOM     22  C   UNL     1       7.402   6.583  17.296  0.00  0.00    +0.000 C 
ATOM     23  O   UNL     1       6.467   7.094  16.350  0.00  0.00    +0.000 OA
ATOM     24  C   UNL     1       5.524   6.108  15.936  0.00  0.00    +0.000 C 
ATOM     25  C   UNL     1       4.718   5.604  17.122  0.00  0.00    +0.000 C 
ENDBRANCH  19  20
ENDBRANCH   8  19
TORSDOF 4
ENDMDL
MODEL 4
REMARK VINA RESULT:      -7.6      1.086      1.183
REMARK  Name = 
REMARK  6 active torsions:
REMARK  status: ('A' for Active; 'I' for Inactive)
REMARK    1  A    between atoms: C_1  and  C_2
REMARK    2  A    between atoms: C_2  and  C_3
REMARK    3  A    between atoms: C_2  and  N_4
REMARK    4  A    between atoms: C_6  and  C_7
REMARK    5  A    between atoms: C_14  and  O_15
REMARK    6  A    between atoms: O_15  and  C_16
REMARK                            x       y       z     vdW  Elec       q    Type
REMARK                         _______ _______ _______ _____ _____    ______ ____
ROOT
ATOM      1  C   UNL     1       3.248   4.755  17.478  0.00  0.00    +0.000 A 
ATOM      2  N   UNL     1       3.112   3.688  16.676  0.00  0.00    +0.000 NA
ATOM      3  N   UNL     1       2.431   2.813  17.419  0.00  0.00    +0.000 N 
ATOM      4  C   UNL     1       2.042   3.297  18.636  0.00  0.00    +0.000 A 
ATOM      5  C   UNL     1       1.373   2.682  19.690  0.00  0.00    +0.000 A 
ATOM      6  C   UNL     1       1.177   3.483  20.797  0.00  0.00    +0.000 A 
ATOM      7  N   UNL     1       1.567   4.770  20.895  0.00  0.00    +0.000 NA
ATOM      8  C   UNL     1       2.233   5.350  19.860  0.00  0.00    +0.000 A 
ATOM      9  C   UNL     1       2.502   4.615  18.694  0.00  0.00    +0.000 A 
ATOM     10  H   UNL     1       2.312   1.876  17.058  0.00  0.00    +0.000 HD
ENDROOT
BRANCH   1  13
ATOM     11  N   UNL     1       6.387   6.306  17.261  0.00  0.00    +0.000 N 
ATOM     12  C   UNL     1       5.272   6.246  18.055  0.00  0.00    +0.000 A 
ATOM     13  C   UNL     1       4.329   5.702  17.217  0.00  0.00    +0.000 A 
ATOM     14  C   UNL     1       4.803   6.015  15.922  0.00  0.00    +0.000 A 
ATOM     15  N   UNL     1       6.082   6.417  15.951  0.00  0.00    +0.000 NA
BRANCH  11  17
ATOM     16  C   UNL     1       8.071   6.690  18.984  0.00  0.00    +0.000 C 
ATOM     17  C   UNL     1       7.750   5.984  17.679  0.00  0.00    +0.000 C 
ATOM     18  C   UNL     1       7.997   4.468  17.785  0.00  0.00    +0.000 C 
ENDBRANCH  11  17
ENDBRANCH   1  13
BRANCH   8  19
ATOM     19  O   UNL     1       2.614   6.667  19.972  0.00  0.00    +0.000 OA
BRANCH  19  20
ATOM     20  C   UNL     1       1.623   7.638  19.617  0.00  0.00    +0.000 C 
ATOM     21  C   UNL     1       2.072   8.452  18.403  0.00  0.00    +0.000 C 
ATOM     22  C   UNL     1       1.128   9.615  18.169  0.00  0.00    +0.000 C 
ATOM     23  O   UNL     1       1.035  10.441  19.326  0.00  0.00    +0.000 OA
ATOM     24  C   UNL     1       0.535   9.733  20.458  0.00  0.00    +0.000 C 
ATOM     25  C   UNL     1       1.455   8.576  20.817  0.00  0.00    +0.000 C 
ENDBRANCH  19  20
ENDBRANCH   8  19
TORSDOF 4
ENDMDL
MODEL 5
REMARK VINA RESULT:      -7.4      2.347      5.517
REMARK  Name = 
REMARK  6 active torsions:
REMARK  status: ('A' for Active; 'I' for Inactive)
REMARK    1  A    between atoms: C_1  and  C_2
REMARK    2  A    between atoms: C_2  and  C_3
REMARK    3  A    between atoms: C_2  and  N_4
REMARK    4  A    between atoms: C_6  and  C_7
REMARK    5  A    between atoms: C_14  and  O_15
REMARK    6  A    between atoms: O_15  and  C_16
REMARK                            x       y       z     vdW  Elec       q    Type
REMARK                         _______ _______ _______ _____ _____    ______ ____
ROOT
ATOM      1  C   UNL     1       2.469   5.825  19.215  0.00  0.00    +0.000 A 
ATOM      2  N   UNL     1       2.044   5.921  20.484  0.00  0.00    +0.000 NA
ATOM      3  N   UNL     1       1.904   4.652  20.873  0.00  0.00    +0.000 N 
ATOM      4  C   UNL     1       2.304   3.734  19.941  0.00  0.00    +0.000 A 
ATOM      5  C   UNL     1       2.265   2.344  19.957  0.00  0.00    +0.000 A 
ATOM      6  C   UNL     1       2.731   1.739  18.807  0.00  0.00    +0.000 A 
ATOM      7  N   UNL     1       3.212   2.396  17.732  0.00  0.00    +0.000 NA
ATOM      8  C   UNL     1       3.228   3.757  17.729  0.00  0.00    +0.000 A 
ATOM      9  C   UNL     1       2.757   4.470  18.844  0.00  0.00    +0.000 A 
ATOM     10  H   UNL     1       1.475   4.475  21.771  0.00  0.00    +0.000 HD
ENDROOT
BRANCH   1  13
ATOM     11  N   UNL     1       1.549   8.926  17.858  0.00  0.00    +0.000 N 
ATOM     12  C   UNL     1       1.124   7.626  17.951  0.00  0.00    +0.000 A 
ATOM     13  C   UNL     1       2.268   6.956  18.314  0.00  0.00    +0.000 A 
ATOM     14  C   UNL     1       3.312   7.795  17.862  0.00  0.00    +0.000 A 
ATOM     15  N   UNL     1       2.860   9.019  17.552  0.00  0.00    +0.000 NA
BRANCH  11  17
ATOM     16  C   UNL     1      -0.627  10.029  17.841  0.00  0.00    +0.000 C 
ATOM     17  C   UNL     1       0.812  10.099  18.322  0.00  0.00    +0.000 C 
ATOM     18  C   UNL     1       0.885  10.283  19.849  0.00  0.00    +0.000 C 
ENDBRANCH  11  17
ENDBRANCH   1  13
BRANCH   8  19
ATOM     19  O   UNL     1       3.733   4.411  16.630  0.00  0.00    +0.000 OA
BRANCH  19  20
ATOM     20  C   UNL     1       5.115   4.178  16.342  0.00  0.00    +0.000 C 
ATOM     21  C   UNL     1       6.005   4.781  17.429  0.00  0.00    +0.000 C 
ATOM     22  C   UNL     1       7.462   4.725  17.011  0.00  0.00    +0.000 C 
ATOM     23  O   UNL     1       7.664   5.388  15.767  0.00  0.00    +0.000 OA
ATOM     24  C   UNL     1       6.914   4.794  14.710  0.00  0.00    +0.000 C 
ATOM     25  C   UNL     1       5.424   4.860  15.005  0.00  0.00    +0.000 C 
ENDBRANCH  19  20
ENDBRANCH   8  19
TORSDOF 4
ENDMDL
MODEL 6
REMARK VINA RESULT:      -7.3      2.074      5.214
REMARK  Name = 
REMARK  6 active torsions:
REMARK  status: ('A' for Active; 'I' for Inactive)
REMARK    1  A    between atoms: C_1  and  C_2
REMARK    2  A    between atoms: C_2  and  C_3
REMARK    3  A    between atoms: C_2  and  N_4
REMARK    4  A    between atoms: C_6  and  C_7
REMARK    5  A    between atoms: C_14  and  O_15
REMARK    6  A    between atoms: O_15  and  C_16
REMARK                            x       y       z     vdW  Elec       q    Type
REMARK                         _______ _______ _______ _____ _____    ______ ____
ROOT
ATOM      1  C   UNL     1       1.833   5.024  20.180  0.00  0.00    +0.000 A 
ATOM      2  N   UNL     1       0.599   4.552  20.414  0.00  0.00    +0.000 NA
ATOM      3  N   UNL     1       0.606   3.341  19.852  0.00  0.00    +0.000 N 
ATOM      4  C   UNL     1       1.818   2.970  19.339  0.00  0.00    +0.000 A 
ATOM      5  C   UNL     1       2.202   1.828  18.644  0.00  0.00    +0.000 A 
ATOM      6  C   UNL     1       3.523   1.811  18.244  0.00  0.00    +0.000 A 
ATOM      7  N   UNL     1       4.416   2.789  18.495  0.00  0.00    +0.000 NA
ATOM      8  C   UNL     1       4.019   3.906  19.164  0.00  0.00    +0.000 A 
ATOM      9  C   UNL     1       2.689   4.031  19.597  0.00  0.00    +0.000 A 
ATOM     10  H   UNL     1      -0.269   2.837  19.800  0.00  0.00    +0.000 HD
ENDROOT
BRANCH   1  13
ATOM     11  N   UNL     1       1.729   8.458  19.471  0.00  0.00    +0.000 N 
ATOM     12  C   UNL     1       2.467   7.331  19.217  0.00  0.00    +0.000 A 
ATOM     13  C   UNL     1       2.054   6.467  20.202  0.00  0.00    +0.000 A 
ATOM     14  C   UNL     1       1.570   7.319  21.221  0.00  0.00    +0.000 A 
ATOM     15  N   UNL     1       1.390   8.570  20.772  0.00  0.00    +0.000 NA
BRANCH  11  17
ATOM     16  C   UNL     1      -0.108  10.012  19.066  0.00  0.00    +0.000 C 
ATOM     17  C   UNL     1       1.092   9.304  18.464  0.00  0.00    +0.000 C 
ATOM     18  C   UNL     1       2.071  10.305  17.822  0.00  0.00    +0.000 C 
ENDBRANCH  11  17
ENDBRANCH   1  13
BRANCH   8  19
ATOM     19  O   UNL     1       4.945   4.888  19.422  0.00  0.00    +0.000 OA
BRANCH  19  20
ATOM     20  C   UNL     1       5.342   5.685  18.300  0.00  0.00    +0.000 C 
ATOM     21  C   UNL     1       5.103   4.934  16.990  0.00  0.00    +0.000 C 
ATOM     22  C   UNL     1       5.723   5.687  15.829  0.00  0.00    +0.000 C 
ATOM     23  O   UNL     1       7.116   5.901  16.042  0.00  0.00    +0.000 OA
ATOM     24  C   UNL     1       7.371   6.675  17.212  0.00  0.00    +0.000 C 
ATOM     25  C   UNL     1       6.841   5.969  18.450  0.00  0.00    +0.000 C 
ENDBRANCH  19  20
ENDBRANCH   8  19
TORSDOF 4
ENDMDL
MODEL 7
REMARK VINA RESULT:      -7.3      2.095      5.634
REMARK  Name = 
REMARK  6 active torsions:
REMARK  status: ('A' for Active; 'I' for Inactive)
REMARK    1  A    between atoms: C_1  and  C_2
REMARK    2  A    between atoms: C_2  and  C_3
REMARK    3  A    between atoms: C_2  and  N_4
REMARK    4  A    between atoms: C_6  and  C_7
REMARK    5  A    between atoms: C_14  and  O_15
REMARK    6  A    between atoms: O_15  and  C_16
REMARK                            x       y       z     vdW  Elec       q    Type
REMARK                         _______ _______ _______ _____ _____    ______ ____
ROOT
ATOM      1  C   UNL     1       1.953   5.675  20.048  0.00  0.00    +0.000 A 
ATOM      2  N   UNL     1       1.111   4.975  20.824  0.00  0.00    +0.000 NA
ATOM      3  N   UNL     1       0.970   3.815  20.180  0.00  0.00    +0.000 N 
ATOM      4  C   UNL     1       1.752   3.696  19.065  0.00  0.00    +0.000 A 
ATOM      5  C   UNL     1       1.845   2.677  18.122  0.00  0.00    +0.000 A 
ATOM      6  C   UNL     1       2.734   2.921  17.093  0.00  0.00    +0.000 A 
ATOM      7  N   UNL     1       3.487   4.032  16.974  0.00  0.00    +0.000 NA
ATOM      8  C   UNL     1       3.372   5.024  17.899  0.00  0.00    +0.000 A 
ATOM      9  C   UNL     1       2.481   4.884  18.974  0.00  0.00    +0.000 A 
ATOM     10  H   UNL     1       0.278   3.162  20.523  0.00  0.00    +0.000 HD
ENDROOT
BRANCH   1  13
ATOM     11  N   UNL     1       1.314   9.090  19.565  0.00  0.00    +0.000 N 
ATOM     12  C   UNL     1       2.191   8.100  19.204  0.00  0.00    +0.000 A 
ATOM     13  C   UNL     1       1.964   7.132  20.152  0.00  0.00    +0.000 A 
ATOM     14  C   UNL     1       1.421   7.845  21.245  0.00  0.00    +0.000 A 
ATOM     15  N   UNL     1       1.038   9.078  20.885  0.00  0.00    +0.000 NA
BRANCH  11  17
ATOM     16  C   UNL     1      -0.889  10.081  19.216  0.00  0.00    +0.000 C 
ATOM     17  C   UNL     1       0.505   9.888  18.645  0.00  0.00    +0.000 C 
ATOM     18  C   UNL     1       1.160  11.236  18.294  0.00  0.00    +0.000 C 
ENDBRANCH  11  17
ENDBRANCH   1  13
BRANCH   8  19
ATOM     19  O   UNL     1       4.157   6.146  17.768  0.00  0.00    +0.000 OA
BRANCH  19  20
ATOM     20  C   UNL     1       5.571   5.923  17.761  0.00  0.00    +0.000 C 
ATOM     21  C   UNL     1       6.071   5.567  19.162  0.00  0.00    +0.000 C 
ATOM     22  C   UNL     1       7.587   5.550  19.193  0.00  0.00    +0.000 C 
ATOM     23  O   UNL     1       8.123   6.798  18.767  0.00  0.00    +0.000 OA
ATOM     24  C   UNL     1       7.747   7.120  17.430  0.00  0.00    +0.000 C 
ATOM     25  C   UNL     1       6.236   7.227  17.307  0.00  0.00    +0.000 C 
ENDBRANCH  19  20
ENDBRANCH   8  19
TORSDOF 4
ENDMDL
MODEL 8
REMARK VINA RESULT:      -7.3      1.060      1.487
REMARK  Name = 
REMARK  6 active torsions:
REMARK  status: ('A' for Active; 'I' for Inactive)
REMARK    1  A    between atoms: C_1  and  C_2
REMARK    2  A    between atoms: C_2  and  C_3
REMARK    3  A    between atoms: C_2  and  N_4
REMARK    4  A    between atoms: C_6  and  C_7
REMARK    5  A    between atoms: C_14  and  O_15
REMARK    6  A    between atoms: O_15  and  C_16
REMARK                            x       y       z     vdW  Elec       q    Type
REMARK                         _______ _______ _______ _____ _____    ______ ____
ROOT
ATOM      1  C   UNL     1       4.049   3.247  18.226  0.00  0.00    +0.000 A 
ATOM      2  N   UNL     1       3.998   1.975  17.801  0.00  0.00    +0.000 NA
ATOM      3  N   UNL     1       2.891   1.491  18.369  0.00  0.00    +0.000 N 
ATOM      4  C   UNL     1       2.173   2.417  19.072  0.00  0.00    +0.000 A 
ATOM      5  C   UNL     1       1.013   2.287  19.830  0.00  0.00    +0.000 A 
ATOM      6  C   UNL     1       0.584   3.451  20.436  0.00  0.00    +0.000 A 
ATOM      7  N   UNL     1       1.193   4.648  20.321  0.00  0.00    +0.000 NA
ATOM      8  C   UNL     1       2.335   4.753  19.587  0.00  0.00    +0.000 A 
ATOM      9  C   UNL     1       2.867   3.623  18.946  0.00  0.00    +0.000 A 
ATOM     10  H   UNL     1       2.709   0.500  18.285  0.00  0.00    +0.000 HD
ENDROOT
BRANCH   1  13
ATOM     11  N   UNL     1       6.659   5.498  17.574  0.00  0.00    +0.000 N 
ATOM     12  C   UNL     1       6.178   4.272  17.193  0.00  0.00    +0.000 A 
ATOM     13  C   UNL     1       5.333   3.942  18.225  0.00  0.00    +0.000 A 
ATOM     14  C   UNL     1       5.816   4.700  19.316  0.00  0.00    +0.000 A 
ATOM     15  N   UNL     1       6.664   5.656  18.913  0.00  0.00    +0.000 NA
BRANCH  11  17
ATOM     16  C   UNL     1       5.579   6.953  15.939  0.00  0.00    +0.000 C 
ATOM     17  C   UNL     1       6.862   6.645  16.691  0.00  0.00    +0.000 C 
ATOM     18  C   UNL     1       7.386   7.885  17.438  0.00  0.00    +0.000 C 
ENDBRANCH  11  17
ENDBRANCH   1  13
BRANCH   8  19
ATOM     19  O   UNL     1       2.937   5.984  19.472  0.00  0.00    +0.000 OA
BRANCH  19  20
ATOM     20  C   UNL     1       2.084   7.064  19.077  0.00  0.00    +0.000 C 
ATOM     21  C   UNL     1       2.756   7.923  18.006  0.00  0.00    +0.000 C 
ATOM     22  C   UNL     1       1.947   9.181  17.754  0.00  0.00    +0.000 C 
ATOM     23  O   UNL     1       1.764   9.923  18.956  0.00  0.00    +0.000 OA
ATOM     24  C   UNL     1       1.061   9.179  19.949  0.00  0.00    +0.000 C 
ATOM     25  C   UNL     1       1.829   7.921  20.322  0.00  0.00    +0.000 C 
ENDBRANCH  19  20
ENDBRANCH   8  19
TORSDOF 4
ENDMDL
MODEL 9
REMARK VINA RESULT:      -7.2      2.088      5.463
REMARK  Name = 
REMARK  6 active torsions:
REMARK  status: ('A' for Active; 'I' for Inactive)
REMARK    1  A    between atoms: C_1  and  C_2
REMARK    2  A    between atoms: C_2  and  C_3
REMARK    3  A    between atoms: C_2  and  N_4
REMARK    4  A    between atoms: C_6  and  C_7
REMARK    5  A    between atoms: C_14  and  O_15
REMARK    6  A    between atoms: O_15  and  C_16
REMARK                            x       y       z     vdW  Elec       q    Type
REMARK                         _______ _______ _______ _____ _____    ______ ____
ROOT
ATOM      1  C   UNL     1       2.093   5.415  20.192  0.00  0.00    +0.000 A 
ATOM      2  N   UNL     1       1.459   4.816  21.212  0.00  0.00    +0.000 NA
ATOM      3  N   UNL     1       1.165   3.603  20.738  0.00  0.00    +0.000 N 
ATOM      4  C   UNL     1       1.657   3.357  19.487  0.00  0.00    +0.000 A 
ATOM      5  C   UNL     1       1.519   2.250  18.656  0.00  0.00    +0.000 A 
ATOM      6  C   UNL     1       2.137   2.369  17.427  0.00  0.00    +0.000 A 
ATOM      7  N   UNL     1       2.844   3.443  17.021  0.00  0.00    +0.000 NA
ATOM      8  C   UNL     1       2.956   4.523  17.843  0.00  0.00    +0.000 A 
ATOM      9  C   UNL     1       2.346   4.511  19.108  0.00  0.00    +0.000 A 
ATOM     10  H   UNL     1       0.572   3.005  21.300  0.00  0.00    +0.000 HD
ENDROOT
BRANCH   1  13
ATOM     11  N   UNL     1       1.662   8.766  19.248  0.00  0.00    +0.000 N 
ATOM     12  C   UNL     1       2.556   7.732  19.157  0.00  0.00    +0.000 A 
ATOM     13  C   UNL     1       2.132   6.874  20.144  0.00  0.00    +0.000 A 
ATOM     14  C   UNL     1       1.426   7.709  21.040  0.00  0.00    +0.000 A 
ATOM     15  N   UNL     1       1.153   8.901  20.490  0.00  0.00    +0.000 NA
BRANCH  11  17
ATOM     16  C   UNL     1      -0.357   9.897  18.473  0.00  0.00    +0.000 C 
ATOM     17  C   UNL     1       1.057   9.470  18.119  0.00  0.00    +0.000 C 
ATOM     18  C   UNL     1       1.902  10.666  17.642  0.00  0.00    +0.000 C 
ENDBRANCH  11  17
ENDBRANCH   1  13
BRANCH   8  19
ATOM     19  O   UNL     1       3.690   5.605  17.418  0.00  0.00    +0.000 OA
BRANCH  19  20
ATOM     20  C   UNL     1       5.102   5.399  17.308  0.00  0.00    +0.000 C 
ATOM     21  C   UNL     1       5.866   6.678  17.655  0.00  0.00    +0.000 C 
ATOM     22  C   UNL     1       7.337   6.520  17.325  0.00  0.00    +0.000 C 
ATOM     23  O   UNL     1       7.522   6.176  15.955  0.00  0.00    +0.000 OA
ATOM     24  C   UNL     1       6.895   4.941  15.618  0.00  0.00    +0.000 C 
ATOM     25  C   UNL     1       5.395   5.018  15.852  0.00  0.00    +0.000 C 
ENDBRANCH  19  20
ENDBRANCH   8  19
TORSDOF 4
ENDMDL
