MODEL 1
REMARK VINA RESULT:      -7.4      0.000      0.000
REMARK  Name = 
REMARK  9 active torsions:
REMARK  status: ('A' for Active; 'I' for Inactive)
REMARK    1  A    between atoms: C_1  and  C_2
REMARK    2  A    between atoms: C_2  and  C_3
REMARK    3  A    between atoms: C_3  and  C_4
REMARK    4  A    between atoms: C_3  and  N_10
REMARK    5  A    between atoms: N_10  and  C_11
REMARK    6  A    between atoms: N_10  and  S_12
REMARK    7  A    between atoms: S_12  and  C_15
REMARK    8  A    between atoms: C_16  and  C_17
REMARK    9  A    between atoms: C_20  and  C_21
REMARK                            x       y       z     vdW  Elec       q    Type
REMARK                         _______ _______ _______ _____ _____    ______ ____
ROOT
ATOM      1  N   UNL     1       3.635   5.783  18.106  0.00  0.00    +0.000 NA
ATOM      2  C   UNL     1       4.021   7.070  17.448  0.00  0.00    +0.000 C 
ENDROOT
BRANCH   1   3
ATOM      3  S   UNL     1       4.968   4.661  18.026  0.00  0.00    +0.000 S 
ATOM      4  O   UNL     1       5.711   4.767  19.269  0.00  0.00    +0.000 OA
ATOM      5  O   UNL     1       4.455   3.388  17.579  0.00  0.00    +0.000 OA
BRANCH   3   6
ATOM      6  C   UNL     1       6.136   5.200  16.872  0.00  0.00    +0.000 A 
ATOM      7  C   UNL     1       6.247   4.884  15.492  0.00  0.00    +0.000 A 
ATOM      8  C   UNL     1       5.407   4.040  14.604  0.00  0.00    +0.000 C 
ATOM      9  N   UNL     1       7.297   5.513  14.935  0.00  0.00    +0.000 NA
ATOM     10  N   UNL     1       7.865   6.181  15.945  0.00  0.00    +0.000 N 
ATOM     11  C   UNL     1       7.213   6.038  17.136  0.00  0.00    +0.000 A 
ATOM     12  C   UNL     1       7.696   6.689  18.375  0.00  0.00    +0.000 C 
ATOM     13  H   UNL     1       8.702   6.720  15.749  0.00  0.00    +0.000 HD
ENDBRANCH   3   6
ENDBRANCH   1   3
BRANCH   1  14
ATOM     14  C   UNL     1       3.051   5.996  19.504  0.00  0.00    +0.000 C 
BRANCH  14  15
ATOM     15  C   UNL     1       2.364   4.779  20.096  0.00  0.00    +0.000 A 
ATOM     16  C   UNL     1       1.367   4.074  19.421  0.00  0.00    +0.000 A 
ATOM     17  C   UNL     1       0.801   2.943  20.003  0.00  0.00    +0.000 A 
ATOM     18  C   UNL     1       1.200   2.592  21.282  0.00  0.00    +0.000 A 
ATOM     19  N   UNL     1       2.110   3.286  21.997  0.00  0.00    +0.000 NA
ATOM     20  C   UNL     1       2.676   4.352  21.386  0.00  0.00    +0.000 A 
ENDBRANCH  14  15
BRANCH  14  22
ATOM     21  C   UNL     1       1.642   7.662  20.909  0.00  0.00    +0.000 C 
ATOM     22  C   UNL     1       2.029   7.172  19.514  0.00  0.00    +0.000 C 
ENDBRANCH  14  22
ENDBRANCH   1  14
TORSDOF 5
ENDMDL
MODEL 2
REMARK VINA RESULT:      -7.3      0.387      1.804
REMARK  Name = 
REMARK  9 active torsions:
REMARK  status: ('A' for Active; 'I' for Inactive)
REMARK    1  A    between atoms: C_1  and  C_2
REMARK    2  A    between atoms: C_2  and  C_3
REMARK    3  A    between atoms: C_3  and  C_4
REMARK    4  A    between atoms: C_3  and  N_10
REMARK    5  A    between atoms: N_10  and  C_11
REMARK    6  A    between atoms: N_10  and  S_12
REMARK    7  A    between atoms: S_12  and  C_15
REMARK    8  A    between atoms: C_16  and  C_17
REMARK    9  A    between atoms: C_20  and  C_21
REMARK                            x       y       z     vdW  Elec       q    Type
REMARK                         _______ _______ _______ _____ _____    ______ ____
ROOT
ATOM      1  N   UNL     1       3.690   5.867  18.331  0.00  0.00    +0.000 NA
ATOM      2  C   UNL     1       3.922   7.155  17.606  0.00  0.00    +0.000 C 
ENDROOT
BRANCH   1   3
ATOM      3  S   UNL     1       5.184   4.973  18.429  0.00  0.00    +0.000 S 
ATOM      4  O   UNL     1       5.907   5.446  19.597  0.00  0.00    +0.000 OA
ATOM      5  O   UNL     1       4.879   3.572  18.268  0.00  0.00    +0.000 OA
BRANCH   3   6
ATOM      6  C   UNL     1       6.246   5.438  17.148  0.00  0.00    +0.000 A 
ATOM      7  C   UNL     1       7.300   6.390  17.155  0.00  0.00    +0.000 A 
ATOM      8  C   UNL     1       7.843   7.250  18.239  0.00  0.00    +0.000 C 
ATOM      9  N   UNL     1       7.896   6.461  15.952  0.00  0.00    +0.000 NA
ATOM     10  N   UNL     1       7.212   5.605  15.185  0.00  0.00    +0.000 N 
ATOM     11  C   UNL     1       6.209   4.955  15.845  0.00  0.00    +0.000 A 
ATOM     12  C   UNL     1       5.330   3.976  15.164  0.00  0.00    +0.000 C 
ATOM     13  H   UNL     1       7.486   5.512  14.213  0.00  0.00    +0.000 HD
ENDBRANCH   3   6
ENDBRANCH   1   3
BRANCH   1  14
ATOM     14  C   UNL     1       2.969   6.072  19.664  0.00  0.00    +0.000 C 
BRANCH  14  15
ATOM     15  C   UNL     1       2.302   4.827  20.221  0.00  0.00    +0.000 A 
ATOM     16  C   UNL     1       1.282   4.153  19.548  0.00  0.00    +0.000 A 
ATOM     17  C   UNL     1       0.736   2.996  20.096  0.00  0.00    +0.000 A 
ATOM     18  C   UNL     1       1.179   2.585  21.342  0.00  0.00    +0.000 A 
ATOM     19  N   UNL     1       2.113   3.245  22.057  0.00  0.00    +0.000 NA
ATOM     20  C   UNL     1       2.658   4.339  21.478  0.00  0.00    +0.000 A 
ENDBRANCH  14  15
BRANCH  14  22
ATOM     21  C   UNL     1       1.478   7.808  20.888  0.00  0.00    +0.000 C 
ATOM     22  C   UNL     1       1.884   7.184  19.552  0.00  0.00    +0.000 C 
ENDBRANCH  14  22
ENDBRANCH   1  14
TORSDOF 5
ENDMDL
MODEL 3
REMARK VINA RESULT:      -7.2      2.167      6.029
REMARK  Name = 
REMARK  9 active torsions:
REMARK  status: ('A' for Active; 'I' for Inactive)
REMARK    1  A    between atoms: C_1  and  C_2
REMARK    2  A    between atoms: C_2  and  C_3
REMARK    3  A    between atoms: C_3  and  C_4
REMARK    4  A    between atoms: C_3  and  N_10
REMARK    5  A    between atoms: N_10  and  C_11
REMARK    6  A    between atoms: N_10  and  S_12
REMARK    7  A    between atoms: S_12  and  C_15
REMARK    8  A    between atoms: C_16  and  C_17
REMARK    9  A    between atoms: C_20  and  C_21
REMARK                            x       y       z     vdW  Elec       q    Type
REMARK                         _______ _______ _______ _____ _____    ______ ____
ROOT
ATOM      1  N   UNL     1       3.378   3.226  17.347  0.00  0.00    +0.000 NA
ATOM      2  C   UNL     1       3.818   1.914  17.914  0.00  0.00    +0.000 C 
ENDROOT
BRANCH   1   3
ATOM      3  S   UNL     1       1.820   3.654  18.002  0.00  0.00    +0.000 S 
ATOM      4  O   UNL     1       1.094   4.384  16.977  0.00  0.00    +0.000 OA
ATOM      5  O   UNL     1       1.251   2.476  18.611  0.00  0.00    +0.000 OA
BRANCH   3   6
ATOM      6  C   UNL     1       1.997   4.857  19.230  0.00  0.00    +0.000 A 
ATOM      7  C   UNL     1       2.235   6.251  19.095  0.00  0.00    +0.000 A 
ATOM      8  C   UNL     1       2.374   7.114  17.894  0.00  0.00    +0.000 C 
ATOM      9  N   UNL     1       2.307   6.847  20.297  0.00  0.00    +0.000 NA
ATOM     10  N   UNL     1       2.160   5.852  21.179  0.00  0.00    +0.000 N 
ATOM     11  C   UNL     1       1.966   4.630  20.601  0.00  0.00    +0.000 A 
ATOM     12  C   UNL     1       1.795   3.401  21.410  0.00  0.00    +0.000 C 
ATOM     13  H   UNL     1       2.201   6.079  22.166  0.00  0.00    +0.000 HD
ENDBRANCH   3   6
ENDBRANCH   1   3
BRANCH   1  14
ATOM     14  C   UNL     1       4.455   4.306  17.476  0.00  0.00    +0.000 C 
BRANCH  14  15
ATOM     15  C   UNL     1       5.345   4.461  16.257  0.00  0.00    +0.000 A 
ATOM     16  C   UNL     1       5.088   3.812  15.048  0.00  0.00    +0.000 A 
ATOM     17  C   UNL     1       5.923   4.024  13.955  0.00  0.00    +0.000 A 
ATOM     18  C   UNL     1       7.038   4.828  14.125  0.00  0.00    +0.000 A 
ATOM     19  N   UNL     1       7.361   5.418  15.294  0.00  0.00    +0.000 NA
ATOM     20  C   UNL     1       6.506   5.231  16.325  0.00  0.00    +0.000 A 
ENDBRANCH  14  15
BRANCH  14  22
ATOM     21  C   UNL     1       5.777   5.300  19.476  0.00  0.00    +0.000 C 
ATOM     22  C   UNL     1       5.373   4.042  18.706  0.00  0.00    +0.000 C 
ENDBRANCH  14  22
ENDBRANCH   1  14
TORSDOF 5
ENDMDL
MODEL 4
REMARK VINA RESULT:      -7.1      0.646      1.056
REMARK  Name = 
REMARK  9 active torsions:
REMARK  status: ('A' for Active; 'I' for Inactive)
REMARK    1  A    between atoms: C_1  and  C_2
REMARK    2  A    between atoms: C_2  and  C_3
REMARK    3  A    between atoms: C_3  and  C_4
REMARK    4  A    between atoms: C_3  and  N_10
REMARK    5  A    between atoms: N_10  and  C_11
REMARK    6  A    between atoms: N_10  and  S_12
REMARK    7  A    between atoms: S_12  and  C_15
REMARK    8  A    between atoms: C_16  and  C_17
REMARK    9  A    between atoms: C_20  and  C_21
REMARK                            x       y       z     vdW  Elec       q    Type
REMARK                         _______ _______ _______ _____ _____    ______ ____
ROOT
ATOM      1  N   UNL     1       3.608   5.842  18.018  0.00  0.00    +0.000 NA
ATOM      2  C   UNL     1       4.023   7.126  17.375  0.00  0.00    +0.000 C 
ENDROOT
BRANCH   1   3
ATOM      3  S   UNL     1       4.926   4.701  17.954  0.00  0.00    +0.000 S 
ATOM      4  O   UNL     1       5.646   4.786  19.213  0.00  0.00    +0.000 OA
ATOM      5  O   UNL     1       4.404   3.439  17.487  0.00  0.00    +0.000 OA
BRANCH   3   6
ATOM      6  C   UNL     1       6.123   5.232  16.828  0.00  0.00    +0.000 A 
ATOM      7  C   UNL     1       6.253   4.932  15.445  0.00  0.00    +0.000 A 
ATOM      8  C   UNL     1       5.411   4.116  14.532  0.00  0.00    +0.000 C 
ATOM      9  N   UNL     1       7.323   5.547  14.915  0.00  0.00    +0.000 NA
ATOM     10  N   UNL     1       7.887   6.191  15.943  0.00  0.00    +0.000 N 
ATOM     11  C   UNL     1       7.212   6.045  17.121  0.00  0.00    +0.000 A 
ATOM     12  C   UNL     1       7.686   6.670  18.377  0.00  0.00    +0.000 C 
ATOM     13  H   UNL     1       8.737   6.716  15.769  0.00  0.00    +0.000 HD
ENDBRANCH   3   6
ENDBRANCH   1   3
BRANCH   1  14
ATOM     14  C   UNL     1       3.002   6.055  19.407  0.00  0.00    +0.000 C 
BRANCH  14  15
ATOM     15  C   UNL     1       2.328   4.831  19.999  0.00  0.00    +0.000 A 
ATOM     16  C   UNL     1       2.641   4.338  21.267  0.00  0.00    +0.000 A 
ATOM     17  C   UNL     1       1.961   3.232  21.768  0.00  0.00    +0.000 A 
ATOM     18  C   UNL     1       1.034   2.604  20.953  0.00  0.00    +0.000 A 
ATOM     19  N   UNL     1       0.752   3.006  19.696  0.00  0.00    +0.000 NA
ATOM     20  C   UNL     1       1.394   4.111  19.254  0.00  0.00    +0.000 A 
ENDBRANCH  14  15
BRANCH  14  22
ATOM     21  C   UNL     1       1.638   7.789  20.774  0.00  0.00    +0.000 C 
ATOM     22  C   UNL     1       1.961   7.214  19.395  0.00  0.00    +0.000 C 
ENDBRANCH  14  22
ENDBRANCH   1  14
TORSDOF 5
ENDMDL
MODEL 5
REMARK VINA RESULT:      -7.0      0.651      2.069
REMARK  Name = 
REMARK  9 active torsions:
REMARK  status: ('A' for Active; 'I' for Inactive)
REMARK    1  A    between atoms: C_1  and  C_2
REMARK    2  A    between atoms: C_2  and  C_3
REMARK    3  A    between atoms: C_3  and  C_4
REMARK    4  A    between atoms: C_3  and  N_10
REMARK    5  A    between atoms: N_10  and  C_11
REMARK    6  A    between atoms: N_10  and  S_12
REMARK    7  A    between atoms: S_12  and  C_15
REMARK    8  A    between atoms: C_16  and  C_17
REMARK    9  A    between atoms: C_20  and  C_21
REMARK                            x       y       z     vdW  Elec       q    Type
REMARK                         _______ _______ _______ _____ _____    ______ ____
ROOT
ATOM      1  N   UNL     1       3.606   5.846  18.063  0.00  0.00    +0.000 NA
ATOM      2  C   UNL     1       4.008   7.141  17.431  0.00  0.00    +0.000 C 
ENDROOT
BRANCH   1   3
ATOM      3  S   UNL     1       4.945   4.730  18.015  0.00  0.00    +0.000 S 
ATOM      4  O   UNL     1       5.656   4.837  19.277  0.00  0.00    +0.000 OA
ATOM      5  O   UNL     1       4.449   3.455  17.554  0.00  0.00    +0.000 OA
BRANCH   3   6
ATOM      6  C   UNL     1       6.139   5.275  16.891  0.00  0.00    +0.000 A 
ATOM      7  C   UNL     1       7.237   6.152  17.102  0.00  0.00    +0.000 A 
ATOM      8  C   UNL     1       7.726   6.840  18.324  0.00  0.00    +0.000 C 
ATOM      9  N   UNL     1       7.940   6.326  15.970  0.00  0.00    +0.000 NA
ATOM     10  N   UNL     1       7.283   5.612  15.050  0.00  0.00    +0.000 N 
ATOM     11  C   UNL     1       6.192   4.953  15.540  0.00  0.00    +0.000 A 
ATOM     12  C   UNL     1       5.327   4.120  14.674  0.00  0.00    +0.000 C 
ATOM     13  H   UNL     1       7.637   5.617  14.099  0.00  0.00    +0.000 HD
ENDBRANCH   3   6
ENDBRANCH   1   3
BRANCH   1  14
ATOM     14  C   UNL     1       2.976   6.043  19.443  0.00  0.00    +0.000 C 
BRANCH  14  15
ATOM     15  C   UNL     1       2.305   4.808  20.016  0.00  0.00    +0.000 A 
ATOM     16  C   UNL     1       2.594   4.316  21.290  0.00  0.00    +0.000 A 
ATOM     17  C   UNL     1       1.917   3.199  21.772  0.00  0.00    +0.000 A 
ATOM     18  C   UNL     1       1.019   2.560  20.932  0.00  0.00    +0.000 A 
ATOM     19  N   UNL     1       0.763   2.962  19.671  0.00  0.00    +0.000 NA
ATOM     20  C   UNL     1       1.400   4.077  19.247  0.00  0.00    +0.000 A 
ENDBRANCH  14  15
BRANCH  14  22
ATOM     21  C   UNL     1       1.646   7.819  20.789  0.00  0.00    +0.000 C 
ATOM     22  C   UNL     1       1.924   7.191  19.423  0.00  0.00    +0.000 C 
ENDBRANCH  14  22
ENDBRANCH   1  14
TORSDOF 5
ENDMDL
MODEL 6
REMARK VINA RESULT:      -6.9      2.138      6.102
REMARK  Name = 
REMARK  9 active torsions:
REMARK  status: ('A' for Active; 'I' for Inactive)
REMARK    1  A    between atoms: C_1  and  C_2
REMARK    2  A    between atoms: C_2  and  C_3
REMARK    3  A    between atoms: C_3  and  C_4
REMARK    4  A    between atoms: C_3  and  N_10
REMARK    5  A    between atoms: N_10  and  C_11
REMARK    6  A    between atoms: N_10  and  S_12
REMARK    7  A    between atoms: S_12  and  C_15
REMARK    8  A    between atoms: C_16  and  C_17
REMARK    9  A    between atoms: C_20  and  C_21
REMARK                            x       y       z     vdW  Elec       q    Type
REMARK                         _______ _______ _______ _____ _____    ______ ____
ROOT
ATOM      1  N   UNL     1       3.439   3.135  17.345  0.00  0.00    +0.000 NA
ATOM      2  C   UNL     1       3.913   1.840  17.926  0.00  0.00    +0.000 C 
ENDROOT
BRANCH   1   3
ATOM      3  S   UNL     1       1.873   3.533  18.000  0.00  0.00    +0.000 S 
ATOM      4  O   UNL     1       1.197   4.390  17.041  0.00  0.00    +0.000 OA
ATOM      5  O   UNL     1       1.256   2.311  18.460  0.00  0.00    +0.000 OA
BRANCH   3   6
ATOM      6  C   UNL     1       2.041   4.589  19.357  0.00  0.00    +0.000 A 
ATOM      7  C   UNL     1       1.986   4.286  20.744  0.00  0.00    +0.000 A 
ATOM      8  C   UNL     1       1.803   2.999  21.464  0.00  0.00    +0.000 C 
ATOM      9  N   UNL     1       2.169   5.391  21.487  0.00  0.00    +0.000 NA
ATOM     10  N   UNL     1       2.297   6.381  20.597  0.00  0.00    +0.000 N 
ATOM     11  C   UNL     1       2.233   5.964  19.298  0.00  0.00    +0.000 A 
ATOM     12  C   UNL     1       2.340   6.914  18.166  0.00  0.00    +0.000 C 
ATOM     13  H   UNL     1       2.427   7.324  20.947  0.00  0.00    +0.000 HD
ENDBRANCH   3   6
ENDBRANCH   1   3
BRANCH   1  14
ATOM     14  C   UNL     1       4.489   4.242  17.459  0.00  0.00    +0.000 C 
BRANCH  14  15
ATOM     15  C   UNL     1       5.365   4.413  16.232  0.00  0.00    +0.000 A 
ATOM     16  C   UNL     1       5.065   3.821  15.003  0.00  0.00    +0.000 A 
ATOM     17  C   UNL     1       5.890   4.047  13.905  0.00  0.00    +0.000 A 
ATOM     18  C   UNL     1       7.036   4.802  14.086  0.00  0.00    +0.000 A 
ATOM     19  N   UNL     1       7.399   5.335  15.271  0.00  0.00    +0.000 NA
ATOM     20  C   UNL     1       6.554   5.138  16.309  0.00  0.00    +0.000 A 
ENDBRANCH  14  15
BRANCH  14  22
ATOM     21  C   UNL     1       5.765   5.274  19.470  0.00  0.00    +0.000 C 
ATOM     22  C   UNL     1       5.424   4.008  18.683  0.00  0.00    +0.000 C 
ENDBRANCH  14  22
ENDBRANCH   1  14
TORSDOF 5
ENDMDL
MODEL 7
REMARK VINA RESULT:      -6.9      1.867      5.440
REMARK  Name = 
REMARK  9 active torsions:
REMARK  status: ('A' for Active; 'I' for Inactive)
REMARK    1  A    between atoms: C_1  and  C_2
REMARK    2  A    between atoms: C_2  and  C_3
REMARK    3  A    between atoms: C_3  and  C_4
REMARK    4  A    between atoms: C_3  and  N_10
REMARK    5  A    between atoms: N_10  and  C_11
REMARK    6  A    between atoms: N_10  and  S_12
REMARK    7  A    between atoms: S_12  and  C_15
REMARK    8  A    between atoms: C_16  and  C_17
REMARK    9  A    between atoms: C_20  and  C_21
REMARK                            x       y       z     vdW  Elec       q    Type
REMARK                         _______ _______ _______ _____ _____    ______ ____
ROOT
ATOM      1  N   UNL     1       4.206   4.571  17.324  0.00  0.00    +0.000 NA
ATOM      2  C   UNL     1       4.991   4.151  16.122  0.00  0.00    +0.000 C 
ENDROOT
BRANCH   1   3
ATOM      3  S   UNL     1       4.123   3.251  18.460  0.00  0.00    +0.000 S 
ATOM      4  O   UNL     1       4.032   2.017  17.700  0.00  0.00    +0.000 OA
ATOM      5  O   UNL     1       5.166   3.438  19.440  0.00  0.00    +0.000 OA
BRANCH   3   6
ATOM      6  C   UNL     1       2.606   3.267  19.287  0.00  0.00    +0.000 A 
ATOM      7  C   UNL     1       2.286   2.794  20.587  0.00  0.00    +0.000 A 
ATOM      8  C   UNL     1       3.128   2.180  21.646  0.00  0.00    +0.000 C 
ATOM      9  N   UNL     1       0.987   2.993  20.868  0.00  0.00    +0.000 NA
ATOM     10  N   UNL     1       0.481   3.541  19.758  0.00  0.00    +0.000 N 
ATOM     11  C   UNL     1       1.403   3.735  18.771  0.00  0.00    +0.000 A 
ATOM     12  C   UNL     1       1.035   4.319  17.460  0.00  0.00    +0.000 C 
ATOM     13  H   UNL     1      -0.510   3.760  19.742  0.00  0.00    +0.000 HD
ENDBRANCH   3   6
ENDBRANCH   1   3
BRANCH   1  14
ATOM     14  C   UNL     1       4.698   5.898  17.906  0.00  0.00    +0.000 C 
BRANCH  14  15
ATOM     15  C   UNL     1       3.596   6.873  18.280  0.00  0.00    +0.000 A 
ATOM     16  C   UNL     1       3.192   7.911  17.439  0.00  0.00    +0.000 A 
ATOM     17  C   UNL     1       2.151   8.750  17.824  0.00  0.00    +0.000 A 
ATOM     18  C   UNL     1       1.589   8.570  19.078  0.00  0.00    +0.000 A 
ATOM     19  N   UNL     1       1.996   7.624  19.948  0.00  0.00    +0.000 NA
ATOM     20  C   UNL     1       2.978   6.794  19.527  0.00  0.00    +0.000 A 
ENDBRANCH  14  15
BRANCH  14  22
ATOM     21  C   UNL     1       7.058   6.891  17.483  0.00  0.00    +0.000 C 
ATOM     22  C   UNL     1       5.662   6.622  16.920  0.00  0.00    +0.000 C 
ENDBRANCH  14  22
ENDBRANCH   1  14
TORSDOF 5
ENDMDL
MODEL 8
REMARK VINA RESULT:      -6.8      2.254      3.065
REMARK  Name = 
REMARK  9 active torsions:
REMARK  status: ('A' for Active; 'I' for Inactive)
REMARK    1  A    between atoms: C_1  and  C_2
REMARK    2  A    between atoms: C_2  and  C_3
REMARK    3  A    between atoms: C_3  and  C_4
REMARK    4  A    between atoms: C_3  and  N_10
REMARK    5  A    between atoms: N_10  and  C_11
REMARK    6  A    between atoms: N_10  and  S_12
REMARK    7  A    between atoms: S_12  and  C_15
REMARK    8  A    between atoms: C_16  and  C_17
REMARK    9  A    between atoms: C_20  and  C_21
REMARK                            x       y       z     vdW  Elec       q    Type
REMARK                         _______ _______ _______ _____ _____    ______ ____
ROOT
ATOM      1  N   UNL     1       3.738   6.535  17.521  0.00  0.00    +0.000 NA
ATOM      2  C   UNL     1       2.879   7.744  17.709  0.00  0.00    +0.000 C 
ENDROOT
BRANCH   1   3
ATOM      3  S   UNL     1       5.240   6.995  16.763  0.00  0.00    +0.000 S 
ATOM      4  O   UNL     1       4.992   7.134  15.338  0.00  0.00    +0.000 OA
ATOM      5  O   UNL     1       5.809   8.083  17.521  0.00  0.00    +0.000 OA
BRANCH   3   6
ATOM      6  C   UNL     1       6.357   5.678  16.798  0.00  0.00    +0.000 A 
ATOM      7  C   UNL     1       7.395   5.404  17.729  0.00  0.00    +0.000 A 
ATOM      8  C   UNL     1       7.828   6.119  18.958  0.00  0.00    +0.000 C 
ATOM      9  N   UNL     1       8.044   4.272  17.410  0.00  0.00    +0.000 NA
ATOM     10  N   UNL     1       7.462   3.855  16.280  0.00  0.00    +0.000 N 
ATOM     11  C   UNL     1       6.438   4.654  15.861  0.00  0.00    +0.000 A 
ATOM     12  C   UNL     1       5.678   4.367  14.623  0.00  0.00    +0.000 C 
ATOM     13  H   UNL     1       7.816   3.010  15.845  0.00  0.00    +0.000 HD
ENDBRANCH   3   6
ENDBRANCH   1   3
BRANCH   1  14
ATOM     14  C   UNL     1       3.886   5.720  18.808  0.00  0.00    +0.000 C 
BRANCH  14  15
ATOM     15  C   UNL     1       3.696   4.224  18.636  0.00  0.00    +0.000 A 
ATOM     16  C   UNL     1       2.823   3.679  17.692  0.00  0.00    +0.000 A 
ATOM     17  C   UNL     1       2.721   2.297  17.559  0.00  0.00    +0.000 A 
ATOM     18  C   UNL     1       3.443   1.497  18.428  0.00  0.00    +0.000 A 
ATOM     19  N   UNL     1       4.244   1.982  19.399  0.00  0.00    +0.000 NA
ATOM     20  C   UNL     1       4.360   3.328  19.473  0.00  0.00    +0.000 A 
ENDBRANCH  14  15
BRANCH  14  22
ATOM     21  C   UNL     1       1.907   5.135  20.382  0.00  0.00    +0.000 C 
ATOM     22  C   UNL     1       2.886   6.206  19.899  0.00  0.00    +0.000 C 
ENDBRANCH  14  22
ENDBRANCH   1  14
TORSDOF 5
ENDMDL
MODEL 9
REMARK VINA RESULT:      -6.7      1.826      5.544
REMARK  Name = 
REMARK  9 active torsions:
REMARK  status: ('A' for Active; 'I' for Inactive)
REMARK    1  A    between atoms: C_1  and  C_2
REMARK    2  A    between atoms: C_2  and  C_3
REMARK    3  A    between atoms: C_3  and  C_4
REMARK    4  A    between atoms: C_3  and  N_10
REMARK    5  A    between atoms: N_10  and  C_11
REMARK    6  A    between atoms: N_10  and  S_12
REMARK    7  A    between atoms: S_12  and  C_15
REMARK    8  A    between atoms: C_16  and  C_17
REMARK    9  A    between atoms: C_20  and  C_21
REMARK                            x       y       z     vdW  Elec       q    Type
REMARK                         _______ _______ _______ _____ _____    ______ ____
ROOT
ATOM      1  N   UNL     1       4.207   4.557  17.324  0.00  0.00    +0.000 NA
ATOM      2  C   UNL     1       4.984   4.129  16.120  0.00  0.00    +0.000 C 
ENDROOT
BRANCH   1   3
ATOM      3  S   UNL     1       4.123   3.242  18.466  0.00  0.00    +0.000 S 
ATOM      4  O   UNL     1       4.036   2.004  17.710  0.00  0.00    +0.000 OA
ATOM      5  O   UNL     1       5.162   3.434  19.449  0.00  0.00    +0.000 OA
BRANCH   3   6
ATOM      6  C   UNL     1       2.602   3.258  19.287  0.00  0.00    +0.000 A 
ATOM      7  C   UNL     1       2.279   2.791  20.589  0.00  0.00    +0.000 A 
ATOM      8  C   UNL     1       3.119   2.183  21.653  0.00  0.00    +0.000 C 
ATOM      9  N   UNL     1       0.978   2.988  20.864  0.00  0.00    +0.000 NA
ATOM     10  N   UNL     1       0.475   3.530  19.749  0.00  0.00    +0.000 N 
ATOM     11  C   UNL     1       1.401   3.722  18.765  0.00  0.00    +0.000 A 
ATOM     12  C   UNL     1       1.036   4.299  17.450  0.00  0.00    +0.000 C 
ATOM     13  H   UNL     1      -0.516   3.747  19.729  0.00  0.00    +0.000 HD
ENDBRANCH   3   6
ENDBRANCH   1   3
BRANCH   1  14
ATOM     14  C   UNL     1       4.709   5.883  17.900  0.00  0.00    +0.000 C 
BRANCH  14  15
ATOM     15  C   UNL     1       3.617   6.877  18.248  0.00  0.00    +0.000 A 
ATOM     16  C   UNL     1       2.899   6.820  19.444  0.00  0.00    +0.000 A 
ATOM     17  C   UNL     1       1.933   7.784  19.720  0.00  0.00    +0.000 A 
ATOM     18  C   UNL     1       1.661   8.739  18.754  0.00  0.00    +0.000 A 
ATOM     19  N   UNL     1       2.282   8.788  17.558  0.00  0.00    +0.000 NA
ATOM     20  C   UNL     1       3.248   7.867  17.338  0.00  0.00    +0.000 A 
ENDBRANCH  14  15
BRANCH  14  22
ATOM     21  C   UNL     1       7.072   6.888  17.517  0.00  0.00    +0.000 C 
ATOM     22  C   UNL     1       5.697   6.584  16.920  0.00  0.00    +0.000 C 
ENDBRANCH  14  22
ENDBRANCH   1  14
TORSDOF 5
ENDMDL
