MODEL 1
REMARK VINA RESULT:      -7.2      0.000      0.000
REMARK  Name = 
REMARK  5 active torsions:
REMARK  status: ('A' for Active; 'I' for Inactive)
REMARK    1  A    between atoms: C_1  and  O_2
REMARK    2  A    between atoms: O_2  and  C_3
REMARK    3  A    between atoms: C_16  and  C_17
REMARK    4  A    between atoms: C_19  and  O_20
REMARK    5  A    between atoms: O_20  and  C_21
REMARK                            x       y       z     vdW  Elec       q    Type
REMARK                         _______ _______ _______ _____ _____    ______ ____
ROOT
ATOM      1  C   UNL     1       6.069   3.979  13.197  0.00  0.00    +0.000 A 
ATOM      2  C   UNL     1       5.653   2.918  14.006  0.00  0.00    +0.000 A 
ATOM      3  C   UNL     1       5.845   2.960  15.381  0.00  0.00    +0.000 A 
ATOM      4  C   UNL     1       6.420   4.089  15.977  0.00  0.00    +0.000 A 
ATOM      5  C   UNL     1       6.842   5.156  15.159  0.00  0.00    +0.000 A 
ATOM      6  C   UNL     1       6.670   5.098  13.775  0.00  0.00    +0.000 A 
ATOM      7  O   UNL     1       7.400   6.321  15.667  0.00  0.00    +0.000 OA
ATOM      8  C   UNL     1       7.584   6.372  17.022  0.00  0.00    +0.000 C 
ATOM      9  C   UNL     1       7.211   5.429  17.882  0.00  0.00    +0.000 C 
ATOM     10  C   UNL     1       7.501   5.929  19.219  0.00  0.00    +0.000 C 
ATOM     11  O   UNL     1       7.341   5.321  20.263  0.00  0.00    +0.000 OA
ATOM     12  O   UNL     1       7.993   7.199  19.107  0.00  0.00    +0.000 OA
ATOM     13  C   UNL     1       8.060   7.575  17.721  0.00  0.00    +0.000 C 
ATOM     14  C   UNL     1       6.470   4.208  17.493  0.00  0.00    +0.000 C 
ENDROOT
BRANCH  14  15
ATOM     15  C   UNL     1       5.057   4.266  18.050  0.00  0.00    +0.000 A 
ATOM     16  C   UNL     1       4.199   5.335  17.729  0.00  0.00    +0.000 A 
ATOM     17  C   UNL     1       2.956   5.508  18.347  0.00  0.00    +0.000 A 
ATOM     18  C   UNL     1       2.557   4.579  19.314  0.00  0.00    +0.000 A 
ATOM     19  C   UNL     1       3.358   3.441  19.528  0.00  0.00    +0.000 A 
ATOM     20  C   UNL     1       4.594   3.279  18.910  0.00  0.00    +0.000 A 
ATOM     21  O   UNL     1       3.000   2.433  20.386  0.00  0.00    +0.000 OA
ATOM     22  C   UNL     1       2.392   3.026  21.525  0.00  0.00    +0.000 C 
ATOM     23  C   UNL     1       1.192   3.865  21.114  0.00  0.00    +0.000 C 
ATOM     24  O   UNL     1       1.442   4.817  20.072  0.00  0.00    +0.000 OA
BRANCH  17  25
ATOM     25  O   UNL     1       2.337   6.635  17.888  0.00  0.00    +0.000 OA
ATOM     26  C   UNL     1       2.980   7.893  17.966  0.00  0.00    +0.000 C 
ENDBRANCH  17  25
ENDBRANCH  14  15
BRANCH   1  28
ATOM     27  C   UNL     1       4.515   3.268  11.570  0.00  0.00    +0.000 C 
ATOM     28  O   UNL     1       5.787   3.831  11.868  0.00  0.00    +0.000 OA
ENDBRANCH   1  28
TORSDOF 3
ENDMDL
MODEL 2
REMARK VINA RESULT:      -6.9      3.118      5.435
REMARK  Name = 
REMARK  5 active torsions:
REMARK  status: ('A' for Active; 'I' for Inactive)
REMARK    1  A    between atoms: C_1  and  O_2
REMARK    2  A    between atoms: O_2  and  C_3
REMARK    3  A    between atoms: C_16  and  C_17
REMARK    4  A    between atoms: C_19  and  O_20
REMARK    5  A    between atoms: O_20  and  C_21
REMARK                            x       y       z     vdW  Elec       q    Type
REMARK                         _______ _______ _______ _____ _____    ______ ____
ROOT
ATOM      1  C   UNL     1       7.715   7.086  18.369  0.00  0.00    +0.000 A 
ATOM      2  C   UNL     1       6.885   7.809  17.509  0.00  0.00    +0.000 A 
ATOM      3  C   UNL     1       5.600   7.364  17.227  0.00  0.00    +0.000 A 
ATOM      4  C   UNL     1       5.107   6.203  17.838  0.00  0.00    +0.000 A 
ATOM      5  C   UNL     1       5.948   5.474  18.701  0.00  0.00    +0.000 A 
ATOM      6  C   UNL     1       7.247   5.912  18.962  0.00  0.00    +0.000 A 
ATOM      7  O   UNL     1       5.534   4.328  19.365  0.00  0.00    +0.000 OA
ATOM      8  C   UNL     1       4.266   3.889  19.098  0.00  0.00    +0.000 C 
ATOM      9  C   UNL     1       3.391   4.508  18.312  0.00  0.00    +0.000 C 
ATOM     10  C   UNL     1       2.143   3.760  18.388  0.00  0.00    +0.000 C 
ATOM     11  O   UNL     1       1.125   3.998  17.762  0.00  0.00    +0.000 OA
ATOM     12  O   UNL     1       2.307   2.736  19.278  0.00  0.00    +0.000 OA
ATOM     13  C   UNL     1       3.645   2.757  19.803  0.00  0.00    +0.000 C 
ATOM     14  C   UNL     1       3.647   5.814  17.665  0.00  0.00    +0.000 C 
ENDROOT
BRANCH  14  15
ATOM     15  C   UNL     1       2.755   6.878  18.286  0.00  0.00    +0.000 A 
ATOM     16  C   UNL     1       2.494   8.084  17.610  0.00  0.00    +0.000 A 
ATOM     17  C   UNL     1       1.816   9.148  18.213  0.00  0.00    +0.000 A 
ATOM     18  C   UNL     1       1.381   8.998  19.535  0.00  0.00    +0.000 A 
ATOM     19  C   UNL     1       1.524   7.741  20.154  0.00  0.00    +0.000 A 
ATOM     20  C   UNL     1       2.203   6.691  19.547  0.00  0.00    +0.000 A 
ATOM     21  O   UNL     1       1.043   7.475  21.411  0.00  0.00    +0.000 OA
ATOM     22  C   UNL     1       1.262   8.627  22.214  0.00  0.00    +0.000 C 
ATOM     23  C   UNL     1       0.584   9.842  21.601  0.00  0.00    +0.000 C 
ATOM     24  O   UNL     1       0.886  10.075  20.219  0.00  0.00    +0.000 OA
BRANCH  17  25
ATOM     25  O   UNL     1       1.723  10.212  17.363  0.00  0.00    +0.000 OA
ATOM     26  C   UNL     1       2.273  11.467  17.717  0.00  0.00    +0.000 C 
ENDBRANCH  17  25
ENDBRANCH  14  15
BRANCH   1  28
ATOM     27  C   UNL     1       8.938   9.061  18.780  0.00  0.00    +0.000 C 
ATOM     28  O   UNL     1       8.940   7.650  18.593  0.00  0.00    +0.000 OA
ENDBRANCH   1  28
TORSDOF 3
ENDMDL
MODEL 3
REMARK VINA RESULT:      -6.7      6.370     10.250
REMARK  Name = 
REMARK  5 active torsions:
REMARK  status: ('A' for Active; 'I' for Inactive)
REMARK    1  A    between atoms: C_1  and  O_2
REMARK    2  A    between atoms: O_2  and  C_3
REMARK    3  A    between atoms: C_16  and  C_17
REMARK    4  A    between atoms: C_19  and  O_20
REMARK    5  A    between atoms: O_20  and  C_21
REMARK                            x       y       z     vdW  Elec       q    Type
REMARK                         _______ _______ _______ _____ _____    ______ ____
ROOT
ATOM      1  C   UNL     1      -4.625  11.888  18.883  0.00  0.00    +0.000 A 
ATOM      2  C   UNL     1      -3.804  11.358  17.884  0.00  0.00    +0.000 A 
ATOM      3  C   UNL     1      -2.427  11.531  17.935  0.00  0.00    +0.000 A 
ATOM      4  C   UNL     1      -1.841  12.204  19.016  0.00  0.00    +0.000 A 
ATOM      5  C   UNL     1      -2.672  12.741  20.020  0.00  0.00    +0.000 A 
ATOM      6  C   UNL     1      -4.057  12.587  19.950  0.00  0.00    +0.000 A 
ATOM      7  O   UNL     1      -2.176  13.401  21.134  0.00  0.00    +0.000 OA
ATOM      8  C   UNL     1      -0.819  13.567  21.195  0.00  0.00    +0.000 C 
ATOM      9  C   UNL     1       0.051  13.090  20.311  0.00  0.00    +0.000 C 
ATOM     10  C   UNL     1       1.384  13.406  20.807  0.00  0.00    +0.000 C 
ATOM     11  O   UNL     1       2.436  13.170  20.240  0.00  0.00    +0.000 OA
ATOM     12  O   UNL     1       1.257  14.021  22.022  0.00  0.00    +0.000 OA
ATOM     13  C   UNL     1      -0.134  14.146  22.361  0.00  0.00    +0.000 C 
ATOM     14  C   UNL     1      -0.328  12.241  19.160  0.00  0.00    +0.000 C 
ENDROOT
BRANCH  14  15
ATOM     15  C   UNL     1       0.202  10.831  19.367  0.00  0.00    +0.000 A 
ATOM     16  C   UNL     1       0.129  10.211  20.628  0.00  0.00    +0.000 A 
ATOM     17  C   UNL     1       0.749   8.986  20.897  0.00  0.00    +0.000 A 
ATOM     18  C   UNL     1       1.460   8.359  19.868  0.00  0.00    +0.000 A 
ATOM     19  C   UNL     1       1.411   8.917  18.576  0.00  0.00    +0.000 A 
ATOM     20  C   UNL     1       0.795  10.137  18.320  0.00  0.00    +0.000 A 
ATOM     21  O   UNL     1       1.999   8.321  17.488  0.00  0.00    +0.000 OA
ATOM     22  C   UNL     1       3.236   7.765  17.912  0.00  0.00    +0.000 C 
ATOM     23  C   UNL     1       3.015   6.772  19.042  0.00  0.00    +0.000 C 
ATOM     24  O   UNL     1       2.233   7.262  20.140  0.00  0.00    +0.000 OA
BRANCH  17  25
ATOM     25  O   UNL     1       0.560   8.620  22.198  0.00  0.00    +0.000 OA
ATOM     26  C   UNL     1       0.008   9.530  23.130  0.00  0.00    +0.000 C 
ENDBRANCH  17  25
ENDBRANCH  14  15
BRANCH   1  28
ATOM     27  C   UNL     1      -6.698  11.513  19.945  0.00  0.00    +0.000 C 
ATOM     28  O   UNL     1      -5.956  11.616  18.735  0.00  0.00    +0.000 OA
ENDBRANCH   1  28
TORSDOF 3
ENDMDL
MODEL 4
REMARK VINA RESULT:      -6.7      6.115      9.827
REMARK  Name = 
REMARK  5 active torsions:
REMARK  status: ('A' for Active; 'I' for Inactive)
REMARK    1  A    between atoms: C_1  and  O_2
REMARK    2  A    between atoms: O_2  and  C_3
REMARK    3  A    between atoms: C_16  and  C_17
REMARK    4  A    between atoms: C_19  and  O_20
REMARK    5  A    between atoms: O_20  and  C_21
REMARK                            x       y       z     vdW  Elec       q    Type
REMARK                         _______ _______ _______ _____ _____    ______ ____
ROOT
ATOM      1  C   UNL     1       2.557   7.915  18.291  0.00  0.00    +0.000 A 
ATOM      2  C   UNL     1       1.937   8.874  17.485  0.00  0.00    +0.000 A 
ATOM      3  C   UNL     1       0.989   9.738  18.017  0.00  0.00    +0.000 A 
ATOM      4  C   UNL     1       0.675   9.686  19.381  0.00  0.00    +0.000 A 
ATOM      5  C   UNL     1       1.299   8.715  20.191  0.00  0.00    +0.000 A 
ATOM      6  C   UNL     1       2.232   7.832  19.646  0.00  0.00    +0.000 A 
ATOM      7  O   UNL     1       1.064   8.608  21.553  0.00  0.00    +0.000 OA
ATOM      8  C   UNL     1       0.137   9.463  22.085  0.00  0.00    +0.000 C 
ATOM      9  C   UNL     1      -0.496  10.419  21.414  0.00  0.00    +0.000 C 
ATOM     10  C   UNL     1      -1.309  11.151  22.376  0.00  0.00    +0.000 C 
ATOM     11  O   UNL     1      -2.069  12.070  22.122  0.00  0.00    +0.000 OA
ATOM     12  O   UNL     1      -1.081  10.630  23.619  0.00  0.00    +0.000 OA
ATOM     13  C   UNL     1      -0.140   9.546  23.527  0.00  0.00    +0.000 C 
ATOM     14  C   UNL     1      -0.229  10.743  19.995  0.00  0.00    +0.000 C 
ENDROOT
BRANCH  14  15
ATOM     15  C   UNL     1       0.435  12.107  19.896  0.00  0.00    +0.000 A 
ATOM     16  C   UNL     1       1.581  12.407  20.656  0.00  0.00    +0.000 A 
ATOM     17  C   UNL     1       2.122  13.696  20.715  0.00  0.00    +0.000 A 
ATOM     18  C   UNL     1       1.498  14.715  19.987  0.00  0.00    +0.000 A 
ATOM     19  C   UNL     1       0.438  14.377  19.124  0.00  0.00    +0.000 A 
ATOM     20  C   UNL     1      -0.094  13.094  19.074  0.00  0.00    +0.000 A 
ATOM     21  O   UNL     1      -0.170  15.293  18.303  0.00  0.00    +0.000 OA
ATOM     22  C   UNL     1      -0.276  16.516  19.018  0.00  0.00    +0.000 C 
ATOM     23  C   UNL     1       1.096  16.992  19.467  0.00  0.00    +0.000 C 
ATOM     24  O   UNL     1       1.880  16.017  20.168  0.00  0.00    +0.000 OA
BRANCH  17  25
ATOM     25  O   UNL     1       3.204  13.731  21.545  0.00  0.00    +0.000 OA
ATOM     26  C   UNL     1       4.423  14.307  21.115  0.00  0.00    +0.000 C 
ENDBRANCH  17  25
ENDBRANCH  14  15
BRANCH   1  28
ATOM     27  C   UNL     1       3.922   5.992  18.359  0.00  0.00    +0.000 C 
ATOM     28  O   UNL     1       3.497   7.153  17.655  0.00  0.00    +0.000 OA
ENDBRANCH   1  28
TORSDOF 3
ENDMDL
MODEL 5
REMARK VINA RESULT:      -6.5      8.981     12.143
REMARK  Name = 
REMARK  5 active torsions:
REMARK  status: ('A' for Active; 'I' for Inactive)
REMARK    1  A    between atoms: C_1  and  O_2
REMARK    2  A    between atoms: O_2  and  C_3
REMARK    3  A    between atoms: C_16  and  C_17
REMARK    4  A    between atoms: C_19  and  O_20
REMARK    5  A    between atoms: O_20  and  C_21
REMARK                            x       y       z     vdW  Elec       q    Type
REMARK                         _______ _______ _______ _____ _____    ______ ____
ROOT
ATOM      1  C   UNL     1       0.421   9.260  21.635  0.00  0.00    +0.000 A 
ATOM      2  C   UNL     1      -0.492   9.228  22.692  0.00  0.00    +0.000 A 
ATOM      3  C   UNL     1      -1.053  10.402  23.178  0.00  0.00    +0.000 A 
ATOM      4  C   UNL     1      -0.740  11.631  22.583  0.00  0.00    +0.000 A 
ATOM      5  C   UNL     1       0.184  11.662  21.519  0.00  0.00    +0.000 A 
ATOM      6  C   UNL     1       0.765  10.481  21.051  0.00  0.00    +0.000 A 
ATOM      7  O   UNL     1       0.534  12.829  20.858  0.00  0.00    +0.000 OA
ATOM      8  C   UNL     1      -0.022  13.989  21.327  0.00  0.00    +0.000 C 
ATOM      9  C   UNL     1      -0.911  14.068  22.312  0.00  0.00    +0.000 C 
ATOM     10  C   UNL     1      -1.310  15.465  22.417  0.00  0.00    +0.000 C 
ATOM     11  O   UNL     1      -2.075  15.933  23.242  0.00  0.00    +0.000 OA
ATOM     12  O   UNL     1      -0.674  16.171  21.433  0.00  0.00    +0.000 OA
ATOM     13  C   UNL     1       0.163  15.290  20.666  0.00  0.00    +0.000 C 
ATOM     14  C   UNL     1      -1.484  12.890  22.999  0.00  0.00    +0.000 C 
ENDROOT
BRANCH  14  15
ATOM     15  C   UNL     1      -2.957  12.757  22.646  0.00  0.00    +0.000 A 
ATOM     16  C   UNL     1      -3.373  12.697  21.303  0.00  0.00    +0.000 A 
ATOM     17  C   UNL     1      -4.722  12.738  20.936  0.00  0.00    +0.000 A 
ATOM     18  C   UNL     1      -5.686  12.837  21.946  0.00  0.00    +0.000 A 
ATOM     19  C   UNL     1      -5.267  12.756  23.288  0.00  0.00    +0.000 A 
ATOM     20  C   UNL     1      -3.923  12.719  23.643  0.00  0.00    +0.000 A 
ATOM     21  O   UNL     1      -6.148  12.749  24.340  0.00  0.00    +0.000 OA
ATOM     22  C   UNL     1      -7.195  13.660  24.037  0.00  0.00    +0.000 C 
ATOM     23  C   UNL     1      -7.877  13.275  22.734  0.00  0.00    +0.000 C 
ATOM     24  O   UNL     1      -6.995  13.070  21.622  0.00  0.00    +0.000 OA
BRANCH  17  25
ATOM     25  O   UNL     1      -4.859  12.703  19.578  0.00  0.00    +0.000 OA
ATOM     26  C   UNL     1      -4.047  11.850  18.794  0.00  0.00    +0.000 C 
ENDBRANCH  17  25
ENDBRANCH  14  15
BRANCH   1  28
ATOM     27  C   UNL     1       1.795   8.051  20.146  0.00  0.00    +0.000 C 
ATOM     28  O   UNL     1       0.869   8.035  21.226  0.00  0.00    +0.000 OA
ENDBRANCH   1  28
TORSDOF 3
ENDMDL
MODEL 6
REMARK VINA RESULT:      -6.4      6.262     10.191
REMARK  Name = 
REMARK  5 active torsions:
REMARK  status: ('A' for Active; 'I' for Inactive)
REMARK    1  A    between atoms: C_1  and  O_2
REMARK    2  A    between atoms: O_2  and  C_3
REMARK    3  A    between atoms: C_16  and  C_17
REMARK    4  A    between atoms: C_19  and  O_20
REMARK    5  A    between atoms: O_20  and  C_21
REMARK                            x       y       z     vdW  Elec       q    Type
REMARK                         _______ _______ _______ _____ _____    ______ ____
ROOT
ATOM      1  C   UNL     1       2.206   7.750  19.248  0.00  0.00    +0.000 A 
ATOM      2  C   UNL     1       2.310   8.658  18.192  0.00  0.00    +0.000 A 
ATOM      3  C   UNL     1       1.659   9.883  18.246  0.00  0.00    +0.000 A 
ATOM      4  C   UNL     1       0.923  10.240  19.383  0.00  0.00    +0.000 A 
ATOM      5  C   UNL     1       0.816   9.321  20.446  0.00  0.00    +0.000 A 
ATOM      6  C   UNL     1       1.451   8.080  20.376  0.00  0.00    +0.000 A 
ATOM      7  O   UNL     1       0.128   9.600  21.617  0.00  0.00    +0.000 OA
ATOM      8  C   UNL     1      -0.509  10.810  21.680  0.00  0.00    +0.000 C 
ATOM      9  C   UNL     1      -0.461  11.750  20.742  0.00  0.00    +0.000 C 
ATOM     10  C   UNL     1      -1.188  12.904  21.255  0.00  0.00    +0.000 C 
ATOM     11  O   UNL     1      -1.401  13.943  20.654  0.00  0.00    +0.000 OA
ATOM     12  O   UNL     1      -1.602  12.623  22.527  0.00  0.00    +0.000 OA
ATOM     13  C   UNL     1      -1.186  11.296  22.892  0.00  0.00    +0.000 C 
ATOM     14  C   UNL     1       0.357  11.645  19.514  0.00  0.00    +0.000 C 
ENDROOT
BRANCH  14  15
ATOM     15  C   UNL     1       1.495  12.653  19.569  0.00  0.00    +0.000 A 
ATOM     16  C   UNL     1       2.149  12.936  20.782  0.00  0.00    +0.000 A 
ATOM     17  C   UNL     1       3.084  13.969  20.904  0.00  0.00    +0.000 A 
ATOM     18  C   UNL     1       3.377  14.741  19.774  0.00  0.00    +0.000 A 
ATOM     19  C   UNL     1       2.822  14.363  18.536  0.00  0.00    +0.000 A 
ATOM     20  C   UNL     1       1.891  13.336  18.426  0.00  0.00    +0.000 A 
ATOM     21  O   UNL     1       3.127  15.002  17.361  0.00  0.00    +0.000 OA
ATOM     22  C   UNL     1       3.225  16.393  17.635  0.00  0.00    +0.000 C 
ATOM     23  C   UNL     1       4.275  16.654  18.703  0.00  0.00    +0.000 C 
ATOM     24  O   UNL     1       4.138  15.872  19.897  0.00  0.00    +0.000 OA
BRANCH  17  25
ATOM     25  O   UNL     1       3.545  14.060  22.186  0.00  0.00    +0.000 OA
ATOM     26  C   UNL     1       4.930  13.979  22.461  0.00  0.00    +0.000 C 
ENDBRANCH  17  25
ENDBRANCH  14  15
BRANCH   1  28
ATOM     27  C   UNL     1       2.380   5.444  19.717  0.00  0.00    +0.000 C 
ATOM     28  O   UNL     1       2.924   6.598  19.088  0.00  0.00    +0.000 OA
ENDBRANCH   1  28
TORSDOF 3
ENDMDL
MODEL 7
REMARK VINA RESULT:      -6.4      9.121     12.963
REMARK  Name = 
REMARK  5 active torsions:
REMARK  status: ('A' for Active; 'I' for Inactive)
REMARK    1  A    between atoms: C_1  and  O_2
REMARK    2  A    between atoms: O_2  and  C_3
REMARK    3  A    between atoms: C_16  and  C_17
REMARK    4  A    between atoms: C_19  and  O_20
REMARK    5  A    between atoms: O_20  and  C_21
REMARK                            x       y       z     vdW  Elec       q    Type
REMARK                         _______ _______ _______ _____ _____    ______ ____
ROOT
ATOM      1  C   UNL     1      -6.104  12.569  22.338  0.00  0.00    +0.000 A 
ATOM      2  C   UNL     1      -5.382  12.654  21.145  0.00  0.00    +0.000 A 
ATOM      3  C   UNL     1      -4.143  13.282  21.112  0.00  0.00    +0.000 A 
ATOM      4  C   UNL     1      -3.586  13.801  22.287  0.00  0.00    +0.000 A 
ATOM      5  C   UNL     1      -4.318  13.718  23.488  0.00  0.00    +0.000 A 
ATOM      6  C   UNL     1      -5.574  13.108  23.511  0.00  0.00    +0.000 A 
ATOM      7  O   UNL     1      -3.833  14.185  24.701  0.00  0.00    +0.000 OA
ATOM      8  C   UNL     1      -2.609  14.797  24.676  0.00  0.00    +0.000 C 
ATOM      9  C   UNL     1      -1.834  14.916  23.603  0.00  0.00    +0.000 C 
ATOM     10  C   UNL     1      -0.591  15.537  24.039  0.00  0.00    +0.000 C 
ATOM     11  O   UNL     1       0.345  15.852  23.324  0.00  0.00    +0.000 OA
ATOM     12  O   UNL     1      -0.649  15.716  25.394  0.00  0.00    +0.000 OA
ATOM     13  C   UNL     1      -1.913  15.245  25.892  0.00  0.00    +0.000 C 
ATOM     14  C   UNL     1      -2.160  14.331  22.284  0.00  0.00    +0.000 C 
ENDROOT
BRANCH  14  15
ATOM     15  C   UNL     1      -1.193  13.201  21.971  0.00  0.00    +0.000 A 
ATOM     16  C   UNL     1      -0.339  13.272  20.855  0.00  0.00    +0.000 A 
ATOM     17  C   UNL     1       0.445  12.188  20.443  0.00  0.00    +0.000 A 
ATOM     18  C   UNL     1       0.374  10.997  21.175  0.00  0.00    +0.000 A 
ATOM     19  C   UNL     1      -0.376  10.981  22.367  0.00  0.00    +0.000 A 
ATOM     20  C   UNL     1      -1.154  12.062  22.766  0.00  0.00    +0.000 A 
ATOM     21  O   UNL     1      -0.426   9.889  23.196  0.00  0.00    +0.000 OA
ATOM     22  C   UNL     1      -0.470   8.726  22.382  0.00  0.00    +0.000 C 
ATOM     23  C   UNL     1       0.739   8.673  21.460  0.00  0.00    +0.000 C 
ATOM     24  O   UNL     1       0.975   9.864  20.697  0.00  0.00    +0.000 OA
BRANCH  17  25
ATOM     25  O   UNL     1       1.154  12.499  19.319  0.00  0.00    +0.000 OA
ATOM     26  C   UNL     1       2.378  13.203  19.411  0.00  0.00    +0.000 C 
ENDBRANCH  17  25
ENDBRANCH  14  15
BRANCH   1  28
ATOM     27  C   UNL     1      -7.549  11.286  20.984  0.00  0.00    +0.000 C 
ATOM     28  O   UNL     1      -7.289  11.893  22.244  0.00  0.00    +0.000 OA
ENDBRANCH   1  28
TORSDOF 3
ENDMDL
MODEL 8
REMARK VINA RESULT:      -6.4      8.578     11.437
REMARK  Name = 
REMARK  5 active torsions:
REMARK  status: ('A' for Active; 'I' for Inactive)
REMARK    1  A    between atoms: C_1  and  O_2
REMARK    2  A    between atoms: O_2  and  C_3
REMARK    3  A    between atoms: C_16  and  C_17
REMARK    4  A    between atoms: C_19  and  O_20
REMARK    5  A    between atoms: O_20  and  C_21
REMARK                            x       y       z     vdW  Elec       q    Type
REMARK                         _______ _______ _______ _____ _____    ______ ____
ROOT
ATOM      1  C   UNL     1       2.696  14.145  19.679  0.00  0.00    +0.000 A 
ATOM      2  C   UNL     1       1.706  15.026  20.121  0.00  0.00    +0.000 A 
ATOM      3  C   UNL     1       0.361  14.728  19.939  0.00  0.00    +0.000 A 
ATOM      4  C   UNL     1      -0.017  13.516  19.346  0.00  0.00    +0.000 A 
ATOM      5  C   UNL     1       0.983  12.631  18.897  0.00  0.00    +0.000 A 
ATOM      6  C   UNL     1       2.333  12.947  19.060  0.00  0.00    +0.000 A 
ATOM      7  O   UNL     1       0.699  11.402  18.321  0.00  0.00    +0.000 OA
ATOM      8  C   UNL     1      -0.624  11.098  18.147  0.00  0.00    +0.000 C 
ATOM      9  C   UNL     1      -1.642  11.855  18.545  0.00  0.00    +0.000 C 
ATOM     10  C   UNL     1      -2.864  11.116  18.255  0.00  0.00    +0.000 C 
ATOM     11  O   UNL     1      -4.002  11.512  18.436  0.00  0.00    +0.000 OA
ATOM     12  O   UNL     1      -2.519   9.898  17.738  0.00  0.00    +0.000 OA
ATOM     13  C   UNL     1      -1.088   9.793  17.653  0.00  0.00    +0.000 C 
ATOM     14  C   UNL     1      -1.483  13.114  19.306  0.00  0.00    +0.000 C 
ENDROOT
BRANCH  14  15
ATOM     15  C   UNL     1      -2.003  12.926  20.722  0.00  0.00    +0.000 A 
ATOM     16  C   UNL     1      -1.380  12.023  21.604  0.00  0.00    +0.000 A 
ATOM     17  C   UNL     1      -1.924  11.703  22.853  0.00  0.00    +0.000 A 
ATOM     18  C   UNL     1      -3.126  12.310  23.233  0.00  0.00    +0.000 A 
ATOM     19  C   UNL     1      -3.667  13.313  22.405  0.00  0.00    +0.000 A 
ATOM     20  C   UNL     1      -3.121  13.622  21.164  0.00  0.00    +0.000 A 
ATOM     21  O   UNL     1      -4.789  14.027  22.742  0.00  0.00    +0.000 OA
ATOM     22  C   UNL     1      -5.701  13.135  23.368  0.00  0.00    +0.000 C 
ATOM     23  C   UNL     1      -5.063  12.487  24.586  0.00  0.00    +0.000 C 
ATOM     24  O   UNL     1      -3.783  11.884  24.356  0.00  0.00    +0.000 OA
BRANCH  17  25
ATOM     25  O   UNL     1      -1.152  10.780  23.498  0.00  0.00    +0.000 OA
ATOM     26  C   UNL     1      -0.239   9.975  22.777  0.00  0.00    +0.000 C 
ENDBRANCH  17  25
ENDBRANCH  14  15
BRANCH   1  28
ATOM     27  C   UNL     1       4.605  15.321  18.945  0.00  0.00    +0.000 C 
ATOM     28  O   UNL     1       3.976  14.537  19.952  0.00  0.00    +0.000 OA
ENDBRANCH   1  28
TORSDOF 3
ENDMDL
MODEL 9
REMARK VINA RESULT:      -6.3      6.346     10.070
REMARK  Name = 
REMARK  5 active torsions:
REMARK  status: ('A' for Active; 'I' for Inactive)
REMARK    1  A    between atoms: C_1  and  O_2
REMARK    2  A    between atoms: O_2  and  C_3
REMARK    3  A    between atoms: C_16  and  C_17
REMARK    4  A    between atoms: C_19  and  O_20
REMARK    5  A    between atoms: O_20  and  C_21
REMARK                            x       y       z     vdW  Elec       q    Type
REMARK                         _______ _______ _______ _____ _____    ______ ____
ROOT
ATOM      1  C   UNL     1       2.322   8.272  18.537  0.00  0.00    +0.000 A 
ATOM      2  C   UNL     1       1.856   9.242  17.645  0.00  0.00    +0.000 A 
ATOM      3  C   UNL     1       0.905  10.172  18.046  0.00  0.00    +0.000 A 
ATOM      4  C   UNL     1       0.434  10.174  19.365  0.00  0.00    +0.000 A 
ATOM      5  C   UNL     1       0.903   9.193  20.261  0.00  0.00    +0.000 A 
ATOM      6  C   UNL     1       1.839   8.244  19.847  0.00  0.00    +0.000 A 
ATOM      7  O   UNL     1       0.508   9.135  21.590  0.00  0.00    +0.000 OA
ATOM      8  C   UNL     1      -0.423  10.055  21.993  0.00  0.00    +0.000 C 
ATOM      9  C   UNL     1      -0.918  11.026  21.233  0.00  0.00    +0.000 C 
ATOM     10  C   UNL     1      -1.791  11.828  22.079  0.00  0.00    +0.000 C 
ATOM     11  O   UNL     1      -2.462  12.780  21.720  0.00  0.00    +0.000 OA
ATOM     12  O   UNL     1      -1.738  11.329  23.351  0.00  0.00    +0.000 OA
ATOM     13  C   UNL     1      -0.858  10.193  23.391  0.00  0.00    +0.000 C 
ATOM     14  C   UNL     1      -0.472  11.296  19.848  0.00  0.00    +0.000 C 
ENDROOT
BRANCH  14  15
ATOM     15  C   UNL     1       0.278  12.618  19.799  0.00  0.00    +0.000 A 
ATOM     16  C   UNL     1      -0.268  13.731  19.133  0.00  0.00    +0.000 A 
ATOM     17  C   UNL     1       0.458  14.909  18.928  0.00  0.00    +0.000 A 
ATOM     18  C   UNL     1       1.770  14.976  19.408  0.00  0.00    +0.000 A 
ATOM     19  C   UNL     1       2.258  13.913  20.191  0.00  0.00    +0.000 A 
ATOM     20  C   UNL     1       1.530  12.744  20.388  0.00  0.00    +0.000 A 
ATOM     21  O   UNL     1       3.496  13.933  20.781  0.00  0.00    +0.000 OA
ATOM     22  C   UNL     1       4.402  14.542  19.872  0.00  0.00    +0.000 C 
ATOM     23  C   UNL     1       3.932  15.941  19.507  0.00  0.00    +0.000 C 
ATOM     24  O   UNL     1       2.572  16.031  19.063  0.00  0.00    +0.000 OA
BRANCH  17  25
ATOM     25  O   UNL     1      -0.280  15.820  18.228  0.00  0.00    +0.000 OA
ATOM     26  C   UNL     1      -0.838  16.946  18.878  0.00  0.00    +0.000 C 
ENDBRANCH  17  25
ENDBRANCH  14  15
BRANCH   1  28
ATOM     27  C   UNL     1       2.966   6.056  18.050  0.00  0.00    +0.000 C 
ATOM     28  O   UNL     1       3.283   7.443  18.031  0.00  0.00    +0.000 OA
ENDBRANCH   1  28
TORSDOF 3
ENDMDL
