MODEL 1
REMARK VINA RESULT:      -9.1      0.000      0.000
REMARK  Name = 
REMARK  6 active torsions:
REMARK  status: ('A' for Active; 'I' for Inactive)
REMARK    1  A    between atoms: C_2  and  C_3
REMARK    2  A    between atoms: C_3  and  S_4
REMARK    3  A    between atoms: S_4  and  C_5
REMARK    4  A    between atoms: N_9  and  C_10
REMARK    5  A    between atoms: N_20  and  N_21
REMARK    6  A    between atoms: C_22  and  C_23
REMARK                            x       y       z     vdW  Elec       q    Type
REMARK                         _______ _______ _______ _____ _____    ______ ____
ROOT
ATOM      1  S   UNL     1       7.761   4.632  17.805  0.00  0.00    +0.000 S 
ENDROOT
BRANCH   1   2
ATOM      2  C   UNL     1       6.922   4.688  16.291  0.00  0.00    +0.000 A 
ATOM      3  N   UNL     1       7.492   4.833  15.117  0.00  0.00    +0.000 NA
ATOM      4  N   UNL     1       6.498   4.658  14.195  0.00  0.00    +0.000 NA
ATOM      5  N   UNL     1       5.336   4.410  14.781  0.00  0.00    +0.000 NA
ATOM      6  N   UNL     1       5.561   4.449  16.122  0.00  0.00    +0.000 N 
BRANCH   6   7
ATOM      7  C   UNL     1       4.505   4.331  17.071  0.00  0.00    +0.000 A 
ATOM      8  C   UNL     1       4.169   3.038  17.517  0.00  0.00    +0.000 A 
ATOM      9  C   UNL     1       3.130   2.839  18.415  0.00  0.00    +0.000 A 
ATOM     10  C   UNL     1       2.425   3.930  18.902  0.00  0.00    +0.000 A 
ATOM     11  C   UNL     1       2.749   5.235  18.508  0.00  0.00    +0.000 A 
ATOM     12  C   UNL     1       1.999   6.299  19.034  0.00  0.00    +0.000 A 
ATOM     13  C   UNL     1       2.256   7.617  18.665  0.00  0.00    +0.000 A 
ATOM     14  C   UNL     1       3.262   7.882  17.753  0.00  0.00    +0.000 A 
ATOM     15  C   UNL     1       4.013   6.832  17.215  0.00  0.00    +0.000 A 
ATOM     16  C   UNL     1       3.802   5.474  17.580  0.00  0.00    +0.000 A 
ENDBRANCH   6   7
ENDBRANCH   1   2
BRANCH   1  17
ATOM     17  C   UNL     1       7.118   6.096  18.653  0.00  0.00    +0.000 C 
BRANCH  17  19
ATOM     18  O   UNL     1       7.344   7.604  16.788  0.00  0.00    +0.000 OA
ATOM     19  C   UNL     1       7.644   7.337  17.951  0.00  0.00    +0.000 C 
ATOM     20  N   UNL     1       8.485   8.106  18.747  0.00  0.00    +0.000 N 
ATOM     21  H   UNL     1       8.713   7.830  19.695  0.00  0.00    +0.000 HD
BRANCH  20  22
ATOM     22  N   UNL     1       9.047   9.234  18.229  0.00  0.00    +0.000 NA
ATOM     23  C   UNL     1       8.997  10.290  18.973  0.00  0.00    +0.000 C 
BRANCH  23  24
ATOM     24  C   UNL     1       9.589  11.570  18.535  0.00  0.00    +0.000 A 
ATOM     25  C   UNL     1       9.024  12.790  18.923  0.00  0.00    +0.000 A 
ATOM     26  C   UNL     1       9.580  13.989  18.472  0.00  0.00    +0.000 A 
ATOM     27  C   UNL     1      10.695  13.963  17.635  0.00  0.00    +0.000 A 
ATOM     28 CL   UNL     1      11.366  15.438  17.058  0.00  0.00    +0.000 Cl
ATOM     29  C   UNL     1      11.268  12.749  17.255  0.00  0.00    +0.000 A 
ATOM     30  C   UNL     1      10.716  11.546  17.707  0.00  0.00    +0.000 A 
ENDBRANCH  23  24
ENDBRANCH  20  22
ENDBRANCH  17  19
ENDBRANCH   1  17
TORSDOF 6
ENDMDL
MODEL 2
REMARK VINA RESULT:      -8.9      0.966      1.056
REMARK  Name = 
REMARK  6 active torsions:
REMARK  status: ('A' for Active; 'I' for Inactive)
REMARK    1  A    between atoms: C_2  and  C_3
REMARK    2  A    between atoms: C_3  and  S_4
REMARK    3  A    between atoms: S_4  and  C_5
REMARK    4  A    between atoms: N_9  and  C_10
REMARK    5  A    between atoms: N_20  and  N_21
REMARK    6  A    between atoms: C_22  and  C_23
REMARK                            x       y       z     vdW  Elec       q    Type
REMARK                         _______ _______ _______ _____ _____    ______ ____
ROOT
ATOM      1  S   UNL     1       7.666   4.665  17.701  0.00  0.00    +0.000 S 
ENDROOT
BRANCH   1   2
ATOM      2  C   UNL     1       6.477   4.522  16.449  0.00  0.00    +0.000 A 
ATOM      3  N   UNL     1       6.730   4.541  15.161  0.00  0.00    +0.000 NA
ATOM      4  N   UNL     1       5.550   4.235  14.543  0.00  0.00    +0.000 NA
ATOM      5  N   UNL     1       4.584   4.031  15.426  0.00  0.00    +0.000 NA
ATOM      6  N   UNL     1       5.131   4.234  16.655  0.00  0.00    +0.000 N 
BRANCH   6   7
ATOM      7  C   UNL     1       4.350   4.204  17.846  0.00  0.00    +0.000 A 
ATOM      8  C   UNL     1       4.297   2.993  18.563  0.00  0.00    +0.000 A 
ATOM      9  C   UNL     1       3.531   2.876  19.715  0.00  0.00    +0.000 A 
ATOM     10  C   UNL     1       2.824   3.974  20.183  0.00  0.00    +0.000 A 
ATOM     11  C   UNL     1       2.875   5.206  19.516  0.00  0.00    +0.000 A 
ATOM     12  C   UNL     1       2.138   6.280  20.038  0.00  0.00    +0.000 A 
ATOM     13  C   UNL     1       2.129   7.523  19.411  0.00  0.00    +0.000 A 
ATOM     14  C   UNL     1       2.852   7.700  18.244  0.00  0.00    +0.000 A 
ATOM     15  C   UNL     1       3.586   6.636  17.708  0.00  0.00    +0.000 A 
ATOM     16  C   UNL     1       3.643   5.357  18.327  0.00  0.00    +0.000 A 
ENDBRANCH   6   7
ENDBRANCH   1   2
BRANCH   1  17
ATOM     17  C   UNL     1       7.121   6.151  18.578  0.00  0.00    +0.000 C 
BRANCH  17  19
ATOM     18  O   UNL     1       7.819   7.490  16.701  0.00  0.00    +0.000 OA
ATOM     19  C   UNL     1       7.760   7.365  17.923  0.00  0.00    +0.000 C 
ATOM     20  N   UNL     1       8.261   8.285  18.838  0.00  0.00    +0.000 N 
ATOM     21  H   UNL     1       8.200   8.124  19.835  0.00  0.00    +0.000 HD
BRANCH  20  22
ATOM     22  N   UNL     1       8.883   9.408  18.380  0.00  0.00    +0.000 NA
ATOM     23  C   UNL     1       9.497  10.120  19.268  0.00  0.00    +0.000 C 
BRANCH  23  24
ATOM     24  C   UNL     1      10.228  11.348  18.897  0.00  0.00    +0.000 A 
ATOM     25  C   UNL     1      11.229  11.864  19.728  0.00  0.00    +0.000 A 
ATOM     26  C   UNL     1      11.887  13.045  19.376  0.00  0.00    +0.000 A 
ATOM     27  C   UNL     1      11.540  13.704  18.198  0.00  0.00    +0.000 A 
ATOM     28 CL   UNL     1      12.332  15.172  17.774  0.00  0.00    +0.000 Cl
ATOM     29  C   UNL     1      10.550  13.188  17.361  0.00  0.00    +0.000 A 
ATOM     30  C   UNL     1       9.891  12.004  17.709  0.00  0.00    +0.000 A 
ENDBRANCH  23  24
ENDBRANCH  20  22
ENDBRANCH  17  19
ENDBRANCH   1  17
TORSDOF 6
ENDMDL
MODEL 3
REMARK VINA RESULT:      -8.7      2.145      3.461
REMARK  Name = 
REMARK  6 active torsions:
REMARK  status: ('A' for Active; 'I' for Inactive)
REMARK    1  A    between atoms: C_2  and  C_3
REMARK    2  A    between atoms: C_3  and  S_4
REMARK    3  A    between atoms: S_4  and  C_5
REMARK    4  A    between atoms: N_9  and  C_10
REMARK    5  A    between atoms: N_20  and  N_21
REMARK    6  A    between atoms: C_22  and  C_23
REMARK                            x       y       z     vdW  Elec       q    Type
REMARK                         _______ _______ _______ _____ _____    ______ ____
ROOT
ATOM      1  S   UNL     1       5.490   3.848  16.443  0.00  0.00    +0.000 S 
ENDROOT
BRANCH   1   2
ATOM      2  C   UNL     1       6.287   4.396  17.881  0.00  0.00    +0.000 A 
ATOM      3  N   UNL     1       7.579   4.316  18.105  0.00  0.00    +0.000 NA
ATOM      4  N   UNL     1       7.799   5.004  19.265  0.00  0.00    +0.000 NA
ATOM      5  N   UNL     1       6.672   5.501  19.752  0.00  0.00    +0.000 NA
ATOM      6  N   UNL     1       5.678   5.109  18.909  0.00  0.00    +0.000 N 
BRANCH   6   7
ATOM      7  C   UNL     1       4.306   5.376  19.181  0.00  0.00    +0.000 A 
ATOM      8  C   UNL     1       3.784   6.613  18.758  0.00  0.00    +0.000 A 
ATOM      9  C   UNL     1       2.465   6.960  19.016  0.00  0.00    +0.000 A 
ATOM     10  C   UNL     1       1.638   6.065  19.678  0.00  0.00    +0.000 A 
ATOM     11  C   UNL     1       2.109   4.810  20.088  0.00  0.00    +0.000 A 
ATOM     12  C   UNL     1       1.225   3.948  20.755  0.00  0.00    +0.000 A 
ATOM     13  C   UNL     1       1.638   2.697  21.207  0.00  0.00    +0.000 A 
ATOM     14  C   UNL     1       2.948   2.301  21.005  0.00  0.00    +0.000 A 
ATOM     15  C   UNL     1       3.843   3.152  20.348  0.00  0.00    +0.000 A 
ATOM     16  C   UNL     1       3.460   4.428  19.849  0.00  0.00    +0.000 A 
ENDBRANCH   6   7
ENDBRANCH   1   2
BRANCH   1  17
ATOM     17  C   UNL     1       5.534   5.323  15.395  0.00  0.00    +0.000 C 
BRANCH  17  19
ATOM     18  O   UNL     1       7.861   5.913  15.198  0.00  0.00    +0.000 OA
ATOM     19  C   UNL     1       6.778   6.127  15.738  0.00  0.00    +0.000 C 
ATOM     20  N   UNL     1       6.556   7.097  16.710  0.00  0.00    +0.000 N 
ATOM     21  H   UNL     1       5.645   7.220  17.135  0.00  0.00    +0.000 HD
BRANCH  20  22
ATOM     22  N   UNL     1       7.596   7.872  17.128  0.00  0.00    +0.000 NA
ATOM     23  C   UNL     1       7.287   9.037  17.597  0.00  0.00    +0.000 C 
BRANCH  23  24
ATOM     24  C   UNL     1       8.320   9.962  18.102  0.00  0.00    +0.000 A 
ATOM     25  C   UNL     1       9.148   9.596  19.170  0.00  0.00    +0.000 A 
ATOM     26  C   UNL     1      10.098  10.498  19.655  0.00  0.00    +0.000 A 
ATOM     27  C   UNL     1      10.215  11.760  19.072  0.00  0.00    +0.000 A 
ATOM     28 CL   UNL     1      11.368  12.881  19.684  0.00  0.00    +0.000 Cl
ATOM     29  C   UNL     1       9.399  12.124  18.001  0.00  0.00    +0.000 A 
ATOM     30  C   UNL     1       8.448  11.223  17.511  0.00  0.00    +0.000 A 
ENDBRANCH  23  24
ENDBRANCH  20  22
ENDBRANCH  17  19
ENDBRANCH   1  17
TORSDOF 6
ENDMDL
MODEL 4
REMARK VINA RESULT:      -8.4      5.315      7.949
REMARK  Name = 
REMARK  6 active torsions:
REMARK  status: ('A' for Active; 'I' for Inactive)
REMARK    1  A    between atoms: C_2  and  C_3
REMARK    2  A    between atoms: C_3  and  S_4
REMARK    3  A    between atoms: S_4  and  C_5
REMARK    4  A    between atoms: N_9  and  C_10
REMARK    5  A    between atoms: N_20  and  N_21
REMARK    6  A    between atoms: C_22  and  C_23
REMARK                            x       y       z     vdW  Elec       q    Type
REMARK                         _______ _______ _______ _____ _____    ______ ____
ROOT
ATOM      1  S   UNL     1       2.363   5.194  18.149  0.00  0.00    +0.000 S 
ENDROOT
BRANCH   1   2
ATOM      2  C   UNL     1       3.216   4.059  19.141  0.00  0.00    +0.000 A 
ATOM      3  N   UNL     1       2.654   3.188  19.947  0.00  0.00    +0.000 NA
ATOM      4  N   UNL     1       3.667   2.392  20.403  0.00  0.00    +0.000 NA
ATOM      5  N   UNL     1       4.833   2.758  19.892  0.00  0.00    +0.000 NA
ATOM      6  N   UNL     1       4.590   3.839  19.103  0.00  0.00    +0.000 N 
BRANCH   6   7
ATOM      7  C   UNL     1       5.639   4.567  18.472  0.00  0.00    +0.000 A 
ATOM      8  C   UNL     1       6.453   5.379  19.285  0.00  0.00    +0.000 A 
ATOM      9  C   UNL     1       7.474   6.145  18.739  0.00  0.00    +0.000 A 
ATOM     10  C   UNL     1       7.715   6.093  17.374  0.00  0.00    +0.000 A 
ATOM     11  C   UNL     1       6.948   5.274  16.534  0.00  0.00    +0.000 A 
ATOM     12  C   UNL     1       7.239   5.264  15.160  0.00  0.00    +0.000 A 
ATOM     13  C   UNL     1       6.500   4.489  14.271  0.00  0.00    +0.000 A 
ATOM     14  C   UNL     1       5.451   3.722  14.747  0.00  0.00    +0.000 A 
ATOM     15  C   UNL     1       5.145   3.727  16.112  0.00  0.00    +0.000 A 
ATOM     16  C   UNL     1       5.887   4.484  17.061  0.00  0.00    +0.000 A 
ENDBRANCH   6   7
ENDBRANCH   1   2
BRANCH   1  17
ATOM     17  C   UNL     1       3.375   6.685  18.316  0.00  0.00    +0.000 C 
BRANCH  17  19
ATOM     18  O   UNL     1       2.217   8.609  17.445  0.00  0.00    +0.000 OA
ATOM     19  C   UNL     1       2.454   7.890  18.414  0.00  0.00    +0.000 C 
ATOM     20  N   UNL     1       1.934   8.084  19.689  0.00  0.00    +0.000 N 
ATOM     21  H   UNL     1       2.176   7.470  20.457  0.00  0.00    +0.000 HD
BRANCH  20  22
ATOM     22  N   UNL     1       1.113   9.147  19.919  0.00  0.00    +0.000 NA
ATOM     23  C   UNL     1       0.485   9.148  21.050  0.00  0.00    +0.000 C 
BRANCH  23  24
ATOM     24  C   UNL     1      -0.417  10.254  21.428  0.00  0.00    +0.000 A 
ATOM     25  C   UNL     1      -0.928  11.125  20.459  0.00  0.00    +0.000 A 
ATOM     26  C   UNL     1      -1.754  12.185  20.841  0.00  0.00    +0.000 A 
ATOM     27  C   UNL     1      -2.063  12.369  22.188  0.00  0.00    +0.000 A 
ATOM     28 CL   UNL     1      -3.060  13.688  22.663  0.00  0.00    +0.000 Cl
ATOM     29  C   UNL     1      -1.565  11.497  23.156  0.00  0.00    +0.000 A 
ATOM     30  C   UNL     1      -0.739  10.433  22.777  0.00  0.00    +0.000 A 
ENDBRANCH  23  24
ENDBRANCH  20  22
ENDBRANCH  17  19
ENDBRANCH   1  17
TORSDOF 6
ENDMDL
MODEL 5
REMARK VINA RESULT:      -8.3      5.482      7.815
REMARK  Name = 
REMARK  6 active torsions:
REMARK  status: ('A' for Active; 'I' for Inactive)
REMARK    1  A    between atoms: C_2  and  C_3
REMARK    2  A    between atoms: C_3  and  S_4
REMARK    3  A    between atoms: S_4  and  C_5
REMARK    4  A    between atoms: N_9  and  C_10
REMARK    5  A    between atoms: N_20  and  N_21
REMARK    6  A    between atoms: C_22  and  C_23
REMARK                            x       y       z     vdW  Elec       q    Type
REMARK                         _______ _______ _______ _____ _____    ______ ____
ROOT
ATOM      1  S   UNL     1       1.973   5.403  18.390  0.00  0.00    +0.000 S 
ENDROOT
BRANCH   1   2
ATOM      2  C   UNL     1       2.556   3.775  18.506  0.00  0.00    +0.000 A 
ATOM      3  N   UNL     1       1.806   2.719  18.721  0.00  0.00    +0.000 NA
ATOM      4  N   UNL     1       2.631   1.640  18.574  0.00  0.00    +0.000 NA
ATOM      5  N   UNL     1       3.866   2.015  18.274  0.00  0.00    +0.000 NA
ATOM      6  N   UNL     1       3.864   3.375  18.250  0.00  0.00    +0.000 N 
BRANCH   6   7
ATOM      7  C   UNL     1       5.057   4.131  18.064  0.00  0.00    +0.000 A 
ATOM      8  C   UNL     1       5.661   4.692  19.205  0.00  0.00    +0.000 A 
ATOM      9  C   UNL     1       6.806   5.470  19.100  0.00  0.00    +0.000 A 
ATOM     10  C   UNL     1       7.381   5.679  17.856  0.00  0.00    +0.000 A 
ATOM     11  C   UNL     1       6.829   5.112  16.699  0.00  0.00    +0.000 A 
ATOM     12  C   UNL     1       7.456   5.360  15.467  0.00  0.00    +0.000 A 
ATOM     13  C   UNL     1       6.945   4.844  14.279  0.00  0.00    +0.000 A 
ATOM     14  C   UNL     1       5.791   4.081  14.311  0.00  0.00    +0.000 A 
ATOM     15  C   UNL     1       5.151   3.831  15.530  0.00  0.00    +0.000 A 
ATOM     16  C   UNL     1       5.649   4.318  16.770  0.00  0.00    +0.000 A 
ENDBRANCH   6   7
ENDBRANCH   1   2
BRANCH   1  17
ATOM     17  C   UNL     1       2.246   6.027  20.067  0.00  0.00    +0.000 C 
BRANCH  17  19
ATOM     18  O   UNL     1       1.982   8.210  19.082  0.00  0.00    +0.000 OA
ATOM     19  C   UNL     1       1.920   7.512  20.093  0.00  0.00    +0.000 C 
ATOM     20  N   UNL     1       1.562   7.975  21.354  0.00  0.00    +0.000 N 
ATOM     21  H   UNL     1       1.544   7.358  22.157  0.00  0.00    +0.000 HD
BRANCH  20  22
ATOM     22  N   UNL     1       1.270   9.296  21.521  0.00  0.00    +0.000 NA
ATOM     23  C   UNL     1       0.050   9.573  21.846  0.00  0.00    +0.000 C 
BRANCH  23  24
ATOM     24  C   UNL     1      -0.389  10.964  22.077  0.00  0.00    +0.000 A 
ATOM     25  C   UNL     1       0.196  12.024  21.375  0.00  0.00    +0.000 A 
ATOM     26  C   UNL     1      -0.210  13.336  21.632  0.00  0.00    +0.000 A 
ATOM     27  C   UNL     1      -1.195  13.581  22.588  0.00  0.00    +0.000 A 
ATOM     28 CL   UNL     1      -1.679  15.198  22.922  0.00  0.00    +0.000 Cl
ATOM     29  C   UNL     1      -1.788  12.525  23.281  0.00  0.00    +0.000 A 
ATOM     30  C   UNL     1      -1.386  11.210  23.026  0.00  0.00    +0.000 A 
ENDBRANCH  23  24
ENDBRANCH  20  22
ENDBRANCH  17  19
ENDBRANCH   1  17
TORSDOF 6
ENDMDL
MODEL 6
REMARK VINA RESULT:      -8.2      2.247      3.280
REMARK  Name = 
REMARK  6 active torsions:
REMARK  status: ('A' for Active; 'I' for Inactive)
REMARK    1  A    between atoms: C_2  and  C_3
REMARK    2  A    between atoms: C_3  and  S_4
REMARK    3  A    between atoms: S_4  and  C_5
REMARK    4  A    between atoms: N_9  and  C_10
REMARK    5  A    between atoms: N_20  and  N_21
REMARK    6  A    between atoms: C_22  and  C_23
REMARK                            x       y       z     vdW  Elec       q    Type
REMARK                         _______ _______ _______ _____ _____    ______ ____
ROOT
ATOM      1  S   UNL     1       5.592   5.301  15.972  0.00  0.00    +0.000 S 
ENDROOT
BRANCH   1   2
ATOM      2  C   UNL     1       4.500   6.245  16.931  0.00  0.00    +0.000 A 
ATOM      3  N   UNL     1       4.487   7.557  16.988  0.00  0.00    +0.000 NA
ATOM      4  N   UNL     1       3.381   7.888  17.719  0.00  0.00    +0.000 NA
ATOM      5  N   UNL     1       2.721   6.807  18.109  0.00  0.00    +0.000 NA
ATOM      6  N   UNL     1       3.422   5.736  17.649  0.00  0.00    +0.000 N 
BRANCH   6   7
ATOM      7  C   UNL     1       3.059   4.398  17.973  0.00  0.00    +0.000 A 
ATOM      8  C   UNL     1       3.092   3.442  16.939  0.00  0.00    +0.000 A 
ATOM      9  C   UNL     1       2.720   2.125  17.169  0.00  0.00    +0.000 A 
ATOM     10  C   UNL     1       2.334   1.734  18.442  0.00  0.00    +0.000 A 
ATOM     11  C   UNL     1       2.317   2.647  19.506  0.00  0.00    +0.000 A 
ATOM     12  C   UNL     1       1.915   2.192  20.772  0.00  0.00    +0.000 A 
ATOM     13  C   UNL     1       1.856   3.053  21.864  0.00  0.00    +0.000 A 
ATOM     14  C   UNL     1       2.189   4.386  21.696  0.00  0.00    +0.000 A 
ATOM     15  C   UNL     1       2.585   4.855  20.440  0.00  0.00    +0.000 A 
ATOM     16  C   UNL     1       2.682   4.007  19.302  0.00  0.00    +0.000 A 
ENDBRANCH   6   7
ENDBRANCH   1   2
BRANCH   1  17
ATOM     17  C   UNL     1       6.642   4.535  17.230  0.00  0.00    +0.000 C 
BRANCH  17  19
ATOM     18  O   UNL     1       6.955   5.522  19.405  0.00  0.00    +0.000 OA
ATOM     19  C   UNL     1       7.118   5.613  18.190  0.00  0.00    +0.000 C 
ATOM     20  N   UNL     1       7.734   6.686  17.552  0.00  0.00    +0.000 N 
ATOM     21  H   UNL     1       7.827   6.717  16.545  0.00  0.00    +0.000 HD
BRANCH  20  22
ATOM     22  N   UNL     1       8.184   7.734  18.297  0.00  0.00    +0.000 NA
ATOM     23  C   UNL     1       8.270   8.871  17.687  0.00  0.00    +0.000 C 
BRANCH  23  24
ATOM     24  C   UNL     1       8.724  10.089  18.388  0.00  0.00    +0.000 A 
ATOM     25  C   UNL     1       8.706  11.332  17.746  0.00  0.00    +0.000 A 
ATOM     26  C   UNL     1       9.170  12.468  18.416  0.00  0.00    +0.000 A 
ATOM     27  C   UNL     1       9.649  12.353  19.720  0.00  0.00    +0.000 A 
ATOM     28 CL   UNL     1      10.242  13.746  20.538  0.00  0.00    +0.000 Cl
ATOM     29  C   UNL     1       9.657  11.117  20.367  0.00  0.00    +0.000 A 
ATOM     30  C   UNL     1       9.192   9.979  19.701  0.00  0.00    +0.000 A 
ENDBRANCH  23  24
ENDBRANCH  20  22
ENDBRANCH  17  19
ENDBRANCH   1  17
TORSDOF 6
ENDMDL
MODEL 7
REMARK VINA RESULT:      -8.2      5.395      8.111
REMARK  Name = 
REMARK  6 active torsions:
REMARK  status: ('A' for Active; 'I' for Inactive)
REMARK    1  A    between atoms: C_2  and  C_3
REMARK    2  A    between atoms: C_3  and  S_4
REMARK    3  A    between atoms: S_4  and  C_5
REMARK    4  A    between atoms: N_9  and  C_10
REMARK    5  A    between atoms: N_20  and  N_21
REMARK    6  A    between atoms: C_22  and  C_23
REMARK                            x       y       z     vdW  Elec       q    Type
REMARK                         _______ _______ _______ _____ _____    ______ ____
ROOT
ATOM      1  S   UNL     1       2.377   5.094  18.064  0.00  0.00    +0.000 S 
ENDROOT
BRANCH   1   2
ATOM      2  C   UNL     1       3.251   4.003  19.088  0.00  0.00    +0.000 A 
ATOM      3  N   UNL     1       2.703   3.128  19.900  0.00  0.00    +0.000 NA
ATOM      4  N   UNL     1       3.734   2.372  20.384  0.00  0.00    +0.000 NA
ATOM      5  N   UNL     1       4.896   2.767  19.885  0.00  0.00    +0.000 NA
ATOM      6  N   UNL     1       4.631   3.826  19.074  0.00  0.00    +0.000 N 
BRANCH   6   7
ATOM      7  C   UNL     1       5.666   4.577  18.447  0.00  0.00    +0.000 A 
ATOM      8  C   UNL     1       6.468   5.396  19.266  0.00  0.00    +0.000 A 
ATOM      9  C   UNL     1       7.475   6.184  18.724  0.00  0.00    +0.000 A 
ATOM     10  C   UNL     1       7.714   6.147  17.358  0.00  0.00    +0.000 A 
ATOM     11  C   UNL     1       6.959   5.322  16.513  0.00  0.00    +0.000 A 
ATOM     12  C   UNL     1       7.248   5.329  15.139  0.00  0.00    +0.000 A 
ATOM     13  C   UNL     1       6.520   4.549  14.244  0.00  0.00    +0.000 A 
ATOM     14  C   UNL     1       5.485   3.760  14.716  0.00  0.00    +0.000 A 
ATOM     15  C   UNL     1       5.182   3.748  16.082  0.00  0.00    +0.000 A 
ATOM     16  C   UNL     1       5.912   4.510  17.035  0.00  0.00    +0.000 A 
ENDBRANCH   6   7
ENDBRANCH   1   2
BRANCH   1  17
ATOM     17  C   UNL     1       3.190   6.674  18.407  0.00  0.00    +0.000 C 
BRANCH  17  19
ATOM     18  O   UNL     1       1.802   7.222  20.297  0.00  0.00    +0.000 OA
ATOM     19  C   UNL     1       2.232   7.553  19.194  0.00  0.00    +0.000 C 
ATOM     20  N   UNL     1       1.904   8.735  18.539  0.00  0.00    +0.000 N 
ATOM     21  H   UNL     1       2.276   8.950  17.622  0.00  0.00    +0.000 HD
BRANCH  20  22
ATOM     22  N   UNL     1       1.032   9.602  19.125  0.00  0.00    +0.000 NA
ATOM     23  C   UNL     1      -0.060   9.840  18.475  0.00  0.00    +0.000 C 
BRANCH  23  24
ATOM     24  C   UNL     1      -1.096  10.744  19.013  0.00  0.00    +0.000 A 
ATOM     25  C   UNL     1      -2.261  11.012  18.285  0.00  0.00    +0.000 A 
ATOM     26  C   UNL     1      -3.214  11.896  18.797  0.00  0.00    +0.000 A 
ATOM     27  C   UNL     1      -2.997  12.507  20.032  0.00  0.00    +0.000 A 
ATOM     28 CL   UNL     1      -4.158  13.614  20.653  0.00  0.00    +0.000 Cl
ATOM     29  C   UNL     1      -1.842  12.234  20.766  0.00  0.00    +0.000 A 
ATOM     30  C   UNL     1      -0.887  11.348  20.257  0.00  0.00    +0.000 A 
ENDBRANCH  23  24
ENDBRANCH  20  22
ENDBRANCH  17  19
ENDBRANCH   1  17
TORSDOF 6
ENDMDL
MODEL 8
REMARK VINA RESULT:      -8.1      5.582      8.229
REMARK  Name = 
REMARK  6 active torsions:
REMARK  status: ('A' for Active; 'I' for Inactive)
REMARK    1  A    between atoms: C_2  and  C_3
REMARK    2  A    between atoms: C_3  and  S_4
REMARK    3  A    between atoms: S_4  and  C_5
REMARK    4  A    between atoms: N_9  and  C_10
REMARK    5  A    between atoms: N_20  and  N_21
REMARK    6  A    between atoms: C_22  and  C_23
REMARK                            x       y       z     vdW  Elec       q    Type
REMARK                         _______ _______ _______ _____ _____    ______ ____
ROOT
ATOM      1  S   UNL     1       2.135   5.304  18.209  0.00  0.00    +0.000 S 
ENDROOT
BRANCH   1   2
ATOM      2  C   UNL     1       2.940   4.119  19.183  0.00  0.00    +0.000 A 
ATOM      3  N   UNL     1       2.341   3.252  19.967  0.00  0.00    +0.000 NA
ATOM      4  N   UNL     1       3.322   2.412  20.413  0.00  0.00    +0.000 NA
ATOM      5  N   UNL     1       4.504   2.747  19.918  0.00  0.00    +0.000 NA
ATOM      6  N   UNL     1       4.306   3.851  19.150  0.00  0.00    +0.000 N 
BRANCH   6   7
ATOM      7  C   UNL     1       5.384   4.555  18.542  0.00  0.00    +0.000 A 
ATOM      8  C   UNL     1       6.226   5.313  19.378  0.00  0.00    +0.000 A 
ATOM      9  C   UNL     1       7.278   6.053  18.856  0.00  0.00    +0.000 A 
ATOM     10  C   UNL     1       7.522   6.028  17.491  0.00  0.00    +0.000 A 
ATOM     11  C   UNL     1       6.727   5.262  16.627  0.00  0.00    +0.000 A 
ATOM     12  C   UNL     1       7.023   5.277  15.254  0.00  0.00    +0.000 A 
ATOM     13  C   UNL     1       6.259   4.555  14.342  0.00  0.00    +0.000 A 
ATOM     14  C   UNL     1       5.179   3.817  14.795  0.00  0.00    +0.000 A 
ATOM     15  C   UNL     1       4.868   3.797  16.159  0.00  0.00    +0.000 A 
ATOM     16  C   UNL     1       5.634   4.500  17.129  0.00  0.00    +0.000 A 
ENDBRANCH   6   7
ENDBRANCH   1   2
BRANCH   1  17
ATOM     17  C   UNL     1       2.833   6.852  18.835  0.00  0.00    +0.000 C 
BRANCH  17  19
ATOM     18  O   UNL     1       1.532   6.690  20.856  0.00  0.00    +0.000 OA
ATOM     19  C   UNL     1       1.920   7.392  19.924  0.00  0.00    +0.000 C 
ATOM     20  N   UNL     1       1.580   8.729  19.744  0.00  0.00    +0.000 N 
ATOM     21  H   UNL     1       1.915   9.256  18.948  0.00  0.00    +0.000 HD
BRANCH  20  22
ATOM     22  N   UNL     1       0.744   9.330  20.638  0.00  0.00    +0.000 NA
ATOM     23  C   UNL     1       0.155  10.407  20.232  0.00  0.00    +0.000 C 
BRANCH  23  24
ATOM     24  C   UNL     1      -0.791  11.139  21.097  0.00  0.00    +0.000 A 
ATOM     25  C   UNL     1      -1.573  12.179  20.582  0.00  0.00    +0.000 A 
ATOM     26  C   UNL     1      -2.439  12.882  21.424  0.00  0.00    +0.000 A 
ATOM     27  C   UNL     1      -2.517  12.542  22.774  0.00  0.00    +0.000 A 
ATOM     28 CL   UNL     1      -3.565  13.422  23.818  0.00  0.00    +0.000 Cl
ATOM     29  C   UNL     1      -1.747  11.499  23.289  0.00  0.00    +0.000 A 
ATOM     30  C   UNL     1      -0.881  10.792  22.449  0.00  0.00    +0.000 A 
ENDBRANCH  23  24
ENDBRANCH  20  22
ENDBRANCH  17  19
ENDBRANCH   1  17
TORSDOF 6
ENDMDL
MODEL 9
REMARK VINA RESULT:      -8.1      6.624      9.486
REMARK  Name = 
REMARK  6 active torsions:
REMARK  status: ('A' for Active; 'I' for Inactive)
REMARK    1  A    between atoms: C_2  and  C_3
REMARK    2  A    between atoms: C_3  and  S_4
REMARK    3  A    between atoms: S_4  and  C_5
REMARK    4  A    between atoms: N_9  and  C_10
REMARK    5  A    between atoms: N_20  and  N_21
REMARK    6  A    between atoms: C_22  and  C_23
REMARK                            x       y       z     vdW  Elec       q    Type
REMARK                         _______ _______ _______ _____ _____    ______ ____
ROOT
ATOM      1  S   UNL     1      -0.346   9.418  21.152  0.00  0.00    +0.000 S 
ENDROOT
BRANCH   1   2
ATOM      2  C   UNL     1       0.126  11.083  21.055  0.00  0.00    +0.000 A 
ATOM      3  N   UNL     1       1.298  11.556  21.411  0.00  0.00    +0.000 NA
ATOM      4  N   UNL     1       1.305  12.866  21.021  0.00  0.00    +0.000 NA
ATOM      5  N   UNL     1       0.165  13.200  20.435  0.00  0.00    +0.000 NA
ATOM      6  N   UNL     1      -0.626  12.094  20.465  0.00  0.00    +0.000 N 
BRANCH   6   7
ATOM      7  C   UNL     1      -1.977  12.116  20.014  0.00  0.00    +0.000 A 
ATOM      8  C   UNL     1      -2.923  12.786  20.815  0.00  0.00    +0.000 A 
ATOM      9  C   UNL     1      -4.264  12.822  20.460  0.00  0.00    +0.000 A 
ATOM     10  C   UNL     1      -4.679  12.211  19.286  0.00  0.00    +0.000 A 
ATOM     11  C   UNL     1      -3.765  11.561  18.445  0.00  0.00    +0.000 A 
ATOM     12  C   UNL     1      -4.246  10.961  17.270  0.00  0.00    +0.000 A 
ATOM     13  C   UNL     1      -3.393  10.281  16.405  0.00  0.00    +0.000 A 
ATOM     14  C   UNL     1      -2.047  10.186  16.714  0.00  0.00    +0.000 A 
ATOM     15  C   UNL     1      -1.555  10.773  17.884  0.00  0.00    +0.000 A 
ATOM     16  C   UNL     1      -2.384  11.497  18.785  0.00  0.00    +0.000 A 
ENDBRANCH   6   7
ENDBRANCH   1   2
BRANCH   1  17
ATOM     17  C   UNL     1       1.182   8.618  21.698  0.00  0.00    +0.000 C 
BRANCH  17  19
ATOM     18  O   UNL     1       1.536   6.366  20.918  0.00  0.00    +0.000 OA
ATOM     19  C   UNL     1       1.577   7.570  20.670  0.00  0.00    +0.000 C 
ATOM     20  N   UNL     1       1.986   8.115  19.457  0.00  0.00    +0.000 N 
ATOM     21  H   UNL     1       2.016   9.116  19.312  0.00  0.00    +0.000 HD
BRANCH  20  22
ATOM     22  N   UNL     1       2.392   7.283  18.456  0.00  0.00    +0.000 NA
ATOM     23  C   UNL     1       3.670   7.142  18.317  0.00  0.00    +0.000 C 
BRANCH  23  24
ATOM     24  C   UNL     1       4.237   6.252  17.284  0.00  0.00    +0.000 A 
ATOM     25  C   UNL     1       4.088   4.863  17.376  0.00  0.00    +0.000 A 
ATOM     26  C   UNL     1       4.661   4.036  16.406  0.00  0.00    +0.000 A 
ATOM     27  C   UNL     1       5.378   4.601  15.352  0.00  0.00    +0.000 A 
ATOM     28 CL   UNL     1       6.104   3.583  14.170  0.00  0.00    +0.000 Cl
ATOM     29  C   UNL     1       5.519   5.986  15.251  0.00  0.00    +0.000 A 
ATOM     30  C   UNL     1       4.946   6.817  16.219  0.00  0.00    +0.000 A 
ENDBRANCH  23  24
ENDBRANCH  20  22
ENDBRANCH  17  19
ENDBRANCH   1  17
TORSDOF 6
ENDMDL
