MODEL 1
REMARK VINA RESULT:      -7.1      0.000      0.000
REMARK  Name = 
REMARK  8 active torsions:
REMARK  status: ('A' for Active; 'I' for Inactive)
REMARK    1  A    between atoms: C_1  and  C_2
REMARK    2  A    between atoms: N_6  and  C_7
REMARK    3  A    between atoms: C_7  and  P_8
REMARK    4  A    between atoms: C_7  and  P_12
REMARK    5  A    between atoms: P_8  and  O_11
REMARK    6  A    between atoms: P_12  and  O_14
REMARK    7  A    between atoms: P_12  and  O_15
REMARK    8  A    between atoms: N_16  and  C_17
REMARK                            x       y       z     vdW  Elec       q    Type
REMARK                         _______ _______ _______ _____ _____    ______ ____
ROOT
ATOM      1  C   UNL     1       5.940   5.275  17.479  0.00  0.00    +0.000 C 
ENDROOT
BRANCH   1   7
ATOM      2  C   UNL     1       0.732   2.345  18.773  0.00  0.00    +0.000 C 
ATOM      3  C   UNL     1       1.765   3.351  18.418  0.00  0.00    +0.000 A 
ATOM      4  C   UNL     1       1.516   4.667  18.327  0.00  0.00    +0.000 A 
ATOM      5  S   UNL     1       2.950   5.569  17.956  0.00  0.00    +0.000 S 
ATOM      6  C   UNL     1       3.939   4.080  17.912  0.00  0.00    +0.000 A 
ATOM      7  N   UNL     1       5.201   4.005  17.692  0.00  0.00    +0.000 NA
ATOM      8  N   UNL     1       3.099   2.998  18.170  0.00  0.00    +0.000 N 
ATOM      9  C   UNL     1       3.639   1.654  18.183  0.00  0.00    +0.000 C 
ENDBRANCH   1   7
BRANCH   1  10
ATOM     10  P   UNL     1       7.206   5.442  18.789  0.00  0.00    +0.000 P 
ATOM     11  O   UNL     1       6.215   4.992  19.868  0.00  0.00    +0.000 OA
ATOM     12  O   UNL     1       8.051   4.328  18.146  0.00  0.00    +0.000 OA
BRANCH  10  13
ATOM     13  O   UNL     1       8.403   5.600  20.028  0.00  0.00    +0.000 OA
ATOM     14  H   UNL     1       9.074   6.119  19.544  0.00  0.00    +0.000 HD
ENDBRANCH  10  13
ENDBRANCH   1  10
BRANCH   1  15
ATOM     15  P   UNL     1       6.750   5.324  15.838  0.00  0.00    +0.000 P 
ATOM     16  O   UNL     1       5.517   5.995  15.188  0.00  0.00    +0.000 OA
BRANCH  15  17
ATOM     17  O   UNL     1       7.733   6.573  16.294  0.00  0.00    +0.000 OA
ATOM     18  H   UNL     1       7.317   7.432  15.963  0.00  0.00    +0.000 HD
ENDBRANCH  15  17
BRANCH  15  19
ATOM     19  O   UNL     1       7.516   5.370  14.287  0.00  0.00    +0.000 OA
ATOM     20  H   UNL     1       8.284   4.787  14.441  0.00  0.00    +0.000 HD
ENDBRANCH  15  19
ENDBRANCH   1  15
TORSDOF 6
ENDMDL
MODEL 2
REMARK VINA RESULT:      -6.6      1.109      1.331
REMARK  Name = 
REMARK  8 active torsions:
REMARK  status: ('A' for Active; 'I' for Inactive)
REMARK    1  A    between atoms: C_1  and  C_2
REMARK    2  A    between atoms: N_6  and  C_7
REMARK    3  A    between atoms: C_7  and  P_8
REMARK    4  A    between atoms: C_7  and  P_12
REMARK    5  A    between atoms: P_8  and  O_11
REMARK    6  A    between atoms: P_12  and  O_14
REMARK    7  A    between atoms: P_12  and  O_15
REMARK    8  A    between atoms: N_16  and  C_17
REMARK                            x       y       z     vdW  Elec       q    Type
REMARK                         _______ _______ _______ _____ _____    ______ ____
ROOT
ATOM      1  C   UNL     1       5.966   5.048  17.451  0.00  0.00    +0.000 C 
ENDROOT
BRANCH   1   7
ATOM      2  C   UNL     1       0.944   3.213  20.416  0.00  0.00    +0.000 C 
ATOM      3  C   UNL     1       2.025   4.000  19.771  0.00  0.00    +0.000 A 
ATOM      4  C   UNL     1       2.139   5.333  19.887  0.00  0.00    +0.000 A 
ATOM      5  S   UNL     1       3.543   5.932  19.064  0.00  0.00    +0.000 S 
ATOM      6  C   UNL     1       3.994   4.288  18.526  0.00  0.00    +0.000 A 
ATOM      7  N   UNL     1       5.025   3.965  17.832  0.00  0.00    +0.000 NA
ATOM      8  N   UNL     1       3.031   3.401  19.002  0.00  0.00    +0.000 N 
ATOM      9  C   UNL     1       3.141   1.988  18.700  0.00  0.00    +0.000 C 
ENDBRANCH   1   7
BRANCH   1  10
ATOM     10  P   UNL     1       7.333   5.089  18.667  0.00  0.00    +0.000 P 
ATOM     11  O   UNL     1       8.229   4.242  17.758  0.00  0.00    +0.000 OA
ATOM     12  O   UNL     1       7.461   6.615  18.506  0.00  0.00    +0.000 OA
BRANCH  10  13
ATOM     13  O   UNL     1       8.625   5.127  19.817  0.00  0.00    +0.000 OA
ATOM     14  H   UNL     1       8.718   6.093  19.928  0.00  0.00    +0.000 HD
ENDBRANCH  10  13
ENDBRANCH   1  10
BRANCH   1  15
ATOM     15  P   UNL     1       6.651   4.796  15.772  0.00  0.00    +0.000 P 
ATOM     16  O   UNL     1       5.312   5.196  15.107  0.00  0.00    +0.000 OA
BRANCH  15  17
ATOM     17  O   UNL     1       7.528   6.196  15.855  0.00  0.00    +0.000 OA
ATOM     18  H   UNL     1       8.376   6.062  15.323  0.00  0.00    +0.000 HD
ENDBRANCH  15  17
BRANCH  15  19
ATOM     19  O   UNL     1       7.297   4.559  14.186  0.00  0.00    +0.000 OA
ATOM     20  H   UNL     1       7.544   3.615  14.224  0.00  0.00    +0.000 HD
ENDBRANCH  15  19
ENDBRANCH   1  15
TORSDOF 6
ENDMDL
MODEL 3
REMARK VINA RESULT:      -6.6      1.602      1.885
REMARK  Name = 
REMARK  8 active torsions:
REMARK  status: ('A' for Active; 'I' for Inactive)
REMARK    1  A    between atoms: C_1  and  C_2
REMARK    2  A    between atoms: N_6  and  C_7
REMARK    3  A    between atoms: C_7  and  P_8
REMARK    4  A    between atoms: C_7  and  P_12
REMARK    5  A    between atoms: P_8  and  O_11
REMARK    6  A    between atoms: P_12  and  O_14
REMARK    7  A    between atoms: P_12  and  O_15
REMARK    8  A    between atoms: N_16  and  C_17
REMARK                            x       y       z     vdW  Elec       q    Type
REMARK                         _______ _______ _______ _____ _____    ______ ____
ROOT
ATOM      1  C   UNL     1       5.766   5.421  17.451  0.00  0.00    +0.000 C 
ENDROOT
BRANCH   1   7
ATOM      2  C   UNL     1       1.903   3.106  21.586  0.00  0.00    +0.000 C 
ATOM      3  C   UNL     1       2.580   3.938  20.559  0.00  0.00    +0.000 A 
ATOM      4  C   UNL     1       2.161   5.164  20.207  0.00  0.00    +0.000 A 
ATOM      5  S   UNL     1       3.207   5.888  19.028  0.00  0.00    +0.000 S 
ATOM      6  C   UNL     1       4.264   4.446  19.004  0.00  0.00    +0.000 A 
ATOM      7  N   UNL     1       5.331   4.289  18.308  0.00  0.00    +0.000 NA
ATOM      8  N   UNL     1       3.733   3.509  19.889  0.00  0.00    +0.000 N 
ATOM      9  C   UNL     1       4.388   2.227  20.060  0.00  0.00    +0.000 C 
ENDBRANCH   1   7
BRANCH   1  10
ATOM     10  P   UNL     1       7.193   6.243  18.248  0.00  0.00    +0.000 P 
ATOM     11  O   UNL     1       7.793   4.898  18.667  0.00  0.00    +0.000 OA
ATOM     12  O   UNL     1       7.663   6.795  16.889  0.00  0.00    +0.000 OA
BRANCH  10  13
ATOM     13  O   UNL     1       8.542   7.021  19.002  0.00  0.00    +0.000 OA
ATOM     14  H   UNL     1       8.069   7.677  19.548  0.00  0.00    +0.000 HD
ENDBRANCH  10  13
ENDBRANCH   1  10
BRANCH   1  15
ATOM     15  P   UNL     1       6.243   4.860  15.775  0.00  0.00    +0.000 P 
ATOM     16  O   UNL     1       5.107   3.810  15.743  0.00  0.00    +0.000 OA
BRANCH  15  17
ATOM     17  O   UNL     1       5.602   6.214  15.074  0.00  0.00    +0.000 OA
ATOM     18  H   UNL     1       4.635   6.021  14.855  0.00  0.00    +0.000 HD
ENDBRANCH  15  17
BRANCH  15  19
ATOM     19  O   UNL     1       6.694   4.331  14.191  0.00  0.00    +0.000 OA
ATOM     20  H   UNL     1       6.056   3.606  14.048  0.00  0.00    +0.000 HD
ENDBRANCH  15  19
ENDBRANCH   1  15
TORSDOF 6
ENDMDL
MODEL 4
REMARK VINA RESULT:      -6.5      0.752      1.241
REMARK  Name = 
REMARK  8 active torsions:
REMARK  status: ('A' for Active; 'I' for Inactive)
REMARK    1  A    between atoms: C_1  and  C_2
REMARK    2  A    between atoms: N_6  and  C_7
REMARK    3  A    between atoms: C_7  and  P_8
REMARK    4  A    between atoms: C_7  and  P_12
REMARK    5  A    between atoms: P_8  and  O_11
REMARK    6  A    between atoms: P_12  and  O_14
REMARK    7  A    between atoms: P_12  and  O_15
REMARK    8  A    between atoms: N_16  and  C_17
REMARK                            x       y       z     vdW  Elec       q    Type
REMARK                         _______ _______ _______ _____ _____    ______ ____
ROOT
ATOM      1  C   UNL     1       6.042   5.193  17.478  0.00  0.00    +0.000 C 
ENDROOT
BRANCH   1   7
ATOM      2  C   UNL     1       0.756   2.410  18.780  0.00  0.00    +0.000 C 
ATOM      3  C   UNL     1       1.817   3.387  18.428  0.00  0.00    +0.000 A 
ATOM      4  C   UNL     1       1.607   4.711  18.354  0.00  0.00    +0.000 A 
ATOM      5  S   UNL     1       3.065   5.573  17.981  0.00  0.00    +0.000 S 
ATOM      6  C   UNL     1       4.008   4.055  17.913  0.00  0.00    +0.000 A 
ATOM      7  N   UNL     1       5.266   3.944  17.683  0.00  0.00    +0.000 NA
ATOM      8  N   UNL     1       3.137   2.997  18.166  0.00  0.00    +0.000 N 
ATOM      9  C   UNL     1       3.636   1.636  18.159  0.00  0.00    +0.000 C 
ENDBRANCH   1   7
BRANCH   1  10
ATOM     10  P   UNL     1       7.338   5.294  18.765  0.00  0.00    +0.000 P 
ATOM     11  O   UNL     1       7.758   6.691  18.299  0.00  0.00    +0.000 OA
ATOM     12  O   UNL     1       6.271   5.248  19.875  0.00  0.00    +0.000 OA
BRANCH  10  13
ATOM     13  O   UNL     1       8.564   5.389  19.983  0.00  0.00    +0.000 OA
ATOM     14  H   UNL     1       9.342   5.562  19.420  0.00  0.00    +0.000 HD
ENDBRANCH  10  13
ENDBRANCH   1  10
BRANCH   1  15
ATOM     15  P   UNL     1       6.821   5.247  15.823  0.00  0.00    +0.000 P 
ATOM     16  O   UNL     1       6.355   3.808  15.497  0.00  0.00    +0.000 OA
BRANCH  15  17
ATOM     17  O   UNL     1       5.632   6.231  15.229  0.00  0.00    +0.000 OA
ATOM     18  H   UNL     1       4.751   5.747  15.326  0.00  0.00    +0.000 HD
ENDBRANCH  15  17
BRANCH  15  19
ATOM     19  O   UNL     1       7.556   5.298  14.258  0.00  0.00    +0.000 OA
ATOM     20  H   UNL     1       7.539   6.256  14.075  0.00  0.00    +0.000 HD
ENDBRANCH  15  19
ENDBRANCH   1  15
TORSDOF 6
ENDMDL
MODEL 5
REMARK VINA RESULT:      -6.4      1.619      1.802
REMARK  Name = 
REMARK  8 active torsions:
REMARK  status: ('A' for Active; 'I' for Inactive)
REMARK    1  A    between atoms: C_1  and  C_2
REMARK    2  A    between atoms: N_6  and  C_7
REMARK    3  A    between atoms: C_7  and  P_8
REMARK    4  A    between atoms: C_7  and  P_12
REMARK    5  A    between atoms: P_8  and  O_11
REMARK    6  A    between atoms: P_12  and  O_14
REMARK    7  A    between atoms: P_12  and  O_15
REMARK    8  A    between atoms: N_16  and  C_17
REMARK                            x       y       z     vdW  Elec       q    Type
REMARK                         _______ _______ _______ _____ _____    ______ ____
ROOT
ATOM      1  C   UNL     1       5.628   4.969  17.619  0.00  0.00    +0.000 C 
ENDROOT
BRANCH   1   7
ATOM      2  C   UNL     1       1.477   2.653  21.465  0.00  0.00    +0.000 C 
ATOM      3  C   UNL     1       2.193   3.423  20.417  0.00  0.00    +0.000 A 
ATOM      4  C   UNL     1       1.658   4.475  19.777  0.00  0.00    +0.000 A 
ATOM      5  S   UNL     1       2.778   5.187  18.660  0.00  0.00    +0.000 S 
ATOM      6  C   UNL     1       4.036   3.987  19.076  0.00  0.00    +0.000 A 
ATOM      7  N   UNL     1       5.226   3.927  18.598  0.00  0.00    +0.000 NA
ATOM      8  N   UNL     1       3.505   3.120  20.029  0.00  0.00    +0.000 N 
ATOM      9  C   UNL     1       4.312   2.030  20.541  0.00  0.00    +0.000 C 
ENDBRANCH   1   7
BRANCH   1  10
ATOM     10  P   UNL     1       7.079   5.865  18.282  0.00  0.00    +0.000 P 
ATOM     11  O   UNL     1       6.543   7.206  17.770  0.00  0.00    +0.000 OA
ATOM     12  O   UNL     1       6.683   5.488  19.721  0.00  0.00    +0.000 OA
BRANCH  10  13
ATOM     13  O   UNL     1       8.451   6.712  18.908  0.00  0.00    +0.000 OA
ATOM     14  H   UNL     1       7.997   7.452  19.356  0.00  0.00    +0.000 HD
ENDBRANCH  10  13
ENDBRANCH   1  10
BRANCH   1  15
ATOM     15  P   UNL     1       6.048   4.246  15.991  0.00  0.00    +0.000 P 
ATOM     16  O   UNL     1       5.361   5.409  15.236  0.00  0.00    +0.000 OA
BRANCH  15  17
ATOM     17  O   UNL     1       7.633   4.699  16.132  0.00  0.00    +0.000 OA
ATOM     18  H   UNL     1       8.048   4.668  15.211  0.00  0.00    +0.000 HD
ENDBRANCH  15  17
BRANCH  15  19
ATOM     19  O   UNL     1       6.446   3.564  14.452  0.00  0.00    +0.000 OA
ATOM     20  H   UNL     1       6.892   4.319  14.022  0.00  0.00    +0.000 HD
ENDBRANCH  15  19
ENDBRANCH   1  15
TORSDOF 6
ENDMDL
MODEL 6
REMARK VINA RESULT:      -6.3      1.519      3.416
REMARK  Name = 
REMARK  8 active torsions:
REMARK  status: ('A' for Active; 'I' for Inactive)
REMARK    1  A    between atoms: C_1  and  C_2
REMARK    2  A    between atoms: N_6  and  C_7
REMARK    3  A    between atoms: C_7  and  P_8
REMARK    4  A    between atoms: C_7  and  P_12
REMARK    5  A    between atoms: P_8  and  O_11
REMARK    6  A    between atoms: P_12  and  O_14
REMARK    7  A    between atoms: P_12  and  O_15
REMARK    8  A    between atoms: N_16  and  C_17
REMARK                            x       y       z     vdW  Elec       q    Type
REMARK                         _______ _______ _______ _____ _____    ______ ____
ROOT
ATOM      1  C   UNL     1       6.137   4.701  17.233  0.00  0.00    +0.000 C 
ENDROOT
BRANCH   1   7
ATOM      2  C   UNL     1       0.808   3.757  20.078  0.00  0.00    +0.000 C 
ATOM      3  C   UNL     1       2.230   3.750  19.651  0.00  0.00    +0.000 A 
ATOM      4  C   UNL     1       3.149   2.908  20.151  0.00  0.00    +0.000 A 
ATOM      5  S   UNL     1       4.695   3.119  19.395  0.00  0.00    +0.000 S 
ATOM      6  C   UNL     1       4.064   4.426  18.350  0.00  0.00    +0.000 A 
ATOM      7  N   UNL     1       4.718   5.076  17.457  0.00  0.00    +0.000 NA
ATOM      8  N   UNL     1       2.720   4.617  18.665  0.00  0.00    +0.000 N 
ATOM      9  C   UNL     1       1.955   5.635  17.972  0.00  0.00    +0.000 C 
ENDBRANCH   1   7
BRANCH   1  10
ATOM     10  P   UNL     1       6.533   4.942  15.463  0.00  0.00    +0.000 P 
ATOM     11  O   UNL     1       6.042   3.533  15.113  0.00  0.00    +0.000 OA
ATOM     12  O   UNL     1       5.484   6.065  15.358  0.00  0.00    +0.000 OA
BRANCH  10  13
ATOM     13  O   UNL     1       6.907   5.170  13.789  0.00  0.00    +0.000 OA
ATOM     14  H   UNL     1       7.724   4.639  13.729  0.00  0.00    +0.000 HD
ENDBRANCH  10  13
ENDBRANCH   1  10
BRANCH   1  15
ATOM     15  P   UNL     1       7.276   5.704  18.255  0.00  0.00    +0.000 P 
ATOM     16  O   UNL     1       8.278   4.533  18.386  0.00  0.00    +0.000 OA
BRANCH  15  17
ATOM     17  O   UNL     1       7.790   6.568  16.942  0.00  0.00    +0.000 OA
ATOM     18  H   UNL     1       7.180   7.367  16.838  0.00  0.00    +0.000 HD
ENDBRANCH  15  17
BRANCH  15  19
ATOM     19  O   UNL     1       8.353   6.653  19.221  0.00  0.00    +0.000 OA
ATOM     20  H   UNL     1       9.092   6.788  18.598  0.00  0.00    +0.000 HD
ENDBRANCH  15  19
ENDBRANCH   1  15
TORSDOF 6
ENDMDL
MODEL 7
REMARK VINA RESULT:      -6.2      1.515      3.415
REMARK  Name = 
REMARK  8 active torsions:
REMARK  status: ('A' for Active; 'I' for Inactive)
REMARK    1  A    between atoms: C_1  and  C_2
REMARK    2  A    between atoms: N_6  and  C_7
REMARK    3  A    between atoms: C_7  and  P_8
REMARK    4  A    between atoms: C_7  and  P_12
REMARK    5  A    between atoms: P_8  and  O_11
REMARK    6  A    between atoms: P_12  and  O_14
REMARK    7  A    between atoms: P_12  and  O_15
REMARK    8  A    between atoms: N_16  and  C_17
REMARK                            x       y       z     vdW  Elec       q    Type
REMARK                         _______ _______ _______ _____ _____    ______ ____
ROOT
ATOM      1  C   UNL     1       5.614   5.088  17.821  0.00  0.00    +0.000 C 
ENDROOT
BRANCH   1   7
ATOM      2  C   UNL     1       0.373   2.908  20.093  0.00  0.00    +0.000 C 
ATOM      3  C   UNL     1       1.686   3.082  19.423  0.00  0.00    +0.000 A 
ATOM      4  C   UNL     1       2.251   2.143  18.647  0.00  0.00    +0.000 A 
ATOM      5  S   UNL     1       3.751   2.687  17.967  0.00  0.00    +0.000 S 
ATOM      6  C   UNL     1       3.609   4.270  18.786  0.00  0.00    +0.000 A 
ATOM      7  N   UNL     1       4.432   5.252  18.705  0.00  0.00    +0.000 NA
ATOM      8  N   UNL     1       2.432   4.264  19.533  0.00  0.00    +0.000 N 
ATOM      9  C   UNL     1       2.070   5.427  20.317  0.00  0.00    +0.000 C 
ENDBRANCH   1   7
BRANCH   1  10
ATOM     10  P   UNL     1       5.357   6.085  16.309  0.00  0.00    +0.000 P 
ATOM     11  O   UNL     1       6.748   6.716  16.434  0.00  0.00    +0.000 OA
ATOM     12  O   UNL     1       5.273   4.808  15.454  0.00  0.00    +0.000 OA
BRANCH  10  13
ATOM     13  O   UNL     1       5.114   7.029  14.879  0.00  0.00    +0.000 OA
ATOM     14  H   UNL     1       4.447   7.660  15.210  0.00  0.00    +0.000 HD
ENDBRANCH  10  13
ENDBRANCH   1  10
BRANCH   1  15
ATOM     15  P   UNL     1       7.159   5.618  18.647  0.00  0.00    +0.000 P 
ATOM     16  O   UNL     1       6.643   5.156  20.031  0.00  0.00    +0.000 OA
BRANCH  15  17
ATOM     17  O   UNL     1       7.997   4.326  18.043  0.00  0.00    +0.000 OA
ATOM     18  H   UNL     1       8.501   4.638  17.226  0.00  0.00    +0.000 HD
ENDBRANCH  15  17
BRANCH  15  19
ATOM     19  O   UNL     1       8.619   6.120  19.428  0.00  0.00    +0.000 OA
ATOM     20  H   UNL     1       9.261   5.492  19.044  0.00  0.00    +0.000 HD
ENDBRANCH  15  19
ENDBRANCH   1  15
TORSDOF 6
ENDMDL
MODEL 8
REMARK VINA RESULT:      -6.2      1.330      1.773
REMARK  Name = 
REMARK  8 active torsions:
REMARK  status: ('A' for Active; 'I' for Inactive)
REMARK    1  A    between atoms: C_1  and  C_2
REMARK    2  A    between atoms: N_6  and  C_7
REMARK    3  A    between atoms: C_7  and  P_8
REMARK    4  A    between atoms: C_7  and  P_12
REMARK    5  A    between atoms: P_8  and  O_11
REMARK    6  A    between atoms: P_12  and  O_14
REMARK    7  A    between atoms: P_12  and  O_15
REMARK    8  A    between atoms: N_16  and  C_17
REMARK                            x       y       z     vdW  Elec       q    Type
REMARK                         _______ _______ _______ _____ _____    ______ ____
ROOT
ATOM      1  C   UNL     1       5.510   4.804  16.291  0.00  0.00    +0.000 C 
ENDROOT
BRANCH   1   7
ATOM      2  C   UNL     1       1.073   3.325  20.230  0.00  0.00    +0.000 C 
ATOM      3  C   UNL     1       2.004   4.029  19.312  0.00  0.00    +0.000 A 
ATOM      4  C   UNL     1       2.055   5.365  19.192  0.00  0.00    +0.000 A 
ATOM      5  S   UNL     1       3.292   5.864  18.083  0.00  0.00    +0.000 S 
ATOM      6  C   UNL     1       3.757   4.169  17.757  0.00  0.00    +0.000 A 
ATOM      7  N   UNL     1       4.697   3.769  16.978  0.00  0.00    +0.000 NA
ATOM      8  N   UNL     1       2.925   3.342  18.509  0.00  0.00    +0.000 N 
ATOM      9  C   UNL     1       3.073   1.903  18.426  0.00  0.00    +0.000 C 
ENDBRANCH   1   7
BRANCH   1  10
ATOM     10  P   UNL     1       6.834   5.355  17.426  0.00  0.00    +0.000 P 
ATOM     11  O   UNL     1       7.855   4.427  16.760  0.00  0.00    +0.000 OA
ATOM     12  O   UNL     1       6.756   6.785  16.861  0.00  0.00    +0.000 OA
BRANCH  10  13
ATOM     13  O   UNL     1       8.087   5.876  18.500  0.00  0.00    +0.000 OA
ATOM     14  H   UNL     1       8.369   5.012  18.857  0.00  0.00    +0.000 HD
ENDBRANCH  10  13
ENDBRANCH   1  10
BRANCH   1  15
ATOM     15  P   UNL     1       6.256   4.167  14.746  0.00  0.00    +0.000 P 
ATOM     16  O   UNL     1       4.901   4.225  14.002  0.00  0.00    +0.000 OA
BRANCH  15  17
ATOM     17  O   UNL     1       6.986   5.617  14.430  0.00  0.00    +0.000 OA
ATOM     18  H   UNL     1       7.682   5.465  13.714  0.00  0.00    +0.000 HD
ENDBRANCH  15  17
BRANCH  15  19
ATOM     19  O   UNL     1       6.962   3.566  13.285  0.00  0.00    +0.000 OA
ATOM     20  H   UNL     1       6.163   3.373  12.758  0.00  0.00    +0.000 HD
ENDBRANCH  15  19
ENDBRANCH   1  15
TORSDOF 6
ENDMDL
MODEL 9
REMARK VINA RESULT:      -6.1      1.476      3.387
REMARK  Name = 
REMARK  8 active torsions:
REMARK  status: ('A' for Active; 'I' for Inactive)
REMARK    1  A    between atoms: C_1  and  C_2
REMARK    2  A    between atoms: N_6  and  C_7
REMARK    3  A    between atoms: C_7  and  P_8
REMARK    4  A    between atoms: C_7  and  P_12
REMARK    5  A    between atoms: P_8  and  O_11
REMARK    6  A    between atoms: P_12  and  O_14
REMARK    7  A    between atoms: P_12  and  O_15
REMARK    8  A    between atoms: N_16  and  C_17
REMARK                            x       y       z     vdW  Elec       q    Type
REMARK                         _______ _______ _______ _____ _____    ______ ____
ROOT
ATOM      1  C   UNL     1       6.140   4.520  17.590  0.00  0.00    +0.000 C 
ENDROOT
BRANCH   1   7
ATOM      2  C   UNL     1       0.637   3.641  20.106  0.00  0.00    +0.000 C 
ATOM      3  C   UNL     1       2.071   3.578  19.729  0.00  0.00    +0.000 A 
ATOM      4  C   UNL     1       2.903   2.610  20.147  0.00  0.00    +0.000 A 
ATOM      5  S   UNL     1       4.492   2.794  19.477  0.00  0.00    +0.000 S 
ATOM      6  C   UNL     1       4.005   4.268  18.591  0.00  0.00    +0.000 A 
ATOM      7  N   UNL     1       4.743   4.973  17.813  0.00  0.00    +0.000 NA
ATOM      8  N   UNL     1       2.666   4.522  18.882  0.00  0.00    +0.000 N 
ATOM      9  C   UNL     1       2.009   5.676  18.302  0.00  0.00    +0.000 C 
ENDBRANCH   1   7
BRANCH   1  10
ATOM     10  P   UNL     1       6.468   4.502  15.790  0.00  0.00    +0.000 P 
ATOM     11  O   UNL     1       5.004   4.824  15.473  0.00  0.00    +0.000 OA
ATOM     12  O   UNL     1       7.409   5.714  15.927  0.00  0.00    +0.000 OA
BRANCH  10  13
ATOM     13  O   UNL     1       6.779   4.486  14.088  0.00  0.00    +0.000 OA
ATOM     14  H   UNL     1       7.603   5.010  14.066  0.00  0.00    +0.000 HD
ENDBRANCH  10  13
ENDBRANCH   1  10
BRANCH   1  15
ATOM     15  P   UNL     1       7.351   5.612  18.421  0.00  0.00    +0.000 P 
ATOM     16  O   UNL     1       6.703   5.368  19.805  0.00  0.00    +0.000 OA
BRANCH  15  17
ATOM     17  O   UNL     1       8.548   4.478  18.297  0.00  0.00    +0.000 OA
ATOM     18  H   UNL     1       9.058   4.657  17.444  0.00  0.00    +0.000 HD
ENDBRANCH  15  17
BRANCH  15  19
ATOM     19  O   UNL     1       8.496   6.644  19.206  0.00  0.00    +0.000 OA
ATOM     20  H   UNL     1       7.937   7.417  19.414  0.00  0.00    +0.000 HD
ENDBRANCH  15  19
ENDBRANCH   1  15
TORSDOF 6
ENDMDL
