MODEL 1
REMARK VINA RESULT:      -7.7      0.000      0.000
REMARK  Name = 
REMARK  11 active torsions:
REMARK  status: ('A' for Active; 'I' for Inactive)
REMARK    1  A    between atoms: C_1  and  O_2
REMARK    2  A    between atoms: O_2  and  N_3
REMARK    3  A    between atoms: N_6  and  C_7
REMARK    4  A    between atoms: C_7  and  C_8
REMARK    5  A    between atoms: N_10  and  C_11
REMARK    6  A    between atoms: C_15  and  C_16
REMARK    7  A    between atoms: C_16  and  O_18
REMARK    8  A    between atoms: C_22  and  C_23
REMARK    9  A    between atoms: C_23  and  C_24
REMARK   10  A    between atoms: C_30  and  O_31
REMARK   11  A    between atoms: O_31  and  C_32
REMARK                            x       y       z     vdW  Elec       q    Type
REMARK                         _______ _______ _______ _____ _____    ______ ____
ROOT
ATOM      1  N   UNL     1      -2.831  11.128  17.741  0.00  0.00    +0.000 NA
ATOM      2  C   UNL     1      -2.028  11.456  18.717  0.00  0.00    +0.000 C 
ATOM      3  C   UNL     1      -0.950  10.524  19.250  0.00  0.00    +0.000 C 
ATOM      4  N   UNL     1       0.389  11.111  19.215  0.00  0.00    +0.000 N 
ATOM      5  C   UNL     1       0.836  11.995  20.174  0.00  0.00    +0.000 C 
ATOM      6  O   UNL     1       2.021  12.028  20.494  0.00  0.00    +0.000 OA
ATOM      7  C   UNL     1      -0.164  12.895  20.890  0.00  0.00    +0.000 C 
ATOM      8  C   UNL     1      -1.165  13.509  19.904  0.00  0.00    +0.000 C 
ATOM      9  N   UNL     1      -2.216  12.671  19.348  0.00  0.00    +0.000 N 
ATOM     10  H   UNL     1      -2.890  13.219  18.813  0.00  0.00    +0.000 HD
ENDROOT
BRANCH   1  12
ATOM     11  C   UNL     1      -2.885   9.777  15.846  0.00  0.00    +0.000 C 
ATOM     12  O   UNL     1      -2.499   9.868  17.208  0.00  0.00    +0.000 OA
ENDBRANCH   1  12
BRANCH   4  13
ATOM     13  C   UNL     1       1.371  10.412  18.375  0.00  0.00    +0.000 C 
BRANCH  13  14
ATOM     14  C   UNL     1       1.628   8.985  18.861  0.00  0.00    +0.000 C 
ATOM     15  O   UNL     1       1.437   8.666  20.034  0.00  0.00    +0.000 OA
ATOM     16  N   UNL     1       2.068   8.132  17.858  0.00  0.00    +0.000 N 
ATOM     17  H   UNL     1       2.384   8.572  17.001  0.00  0.00    +0.000 HD
BRANCH  16  18
ATOM     18  C   UNL     1       2.491   6.824  18.127  0.00  0.00    +0.000 A 
ATOM     19  C   UNL     1       1.567   5.782  18.050  0.00  0.00    +0.000 A 
ATOM     20  C   UNL     1       2.004   4.465  18.196  0.00  0.00    +0.000 A 
ATOM     21  C   UNL     1       3.349   4.200  18.470  0.00  0.00    +0.000 A 
ATOM     22  C   UNL     1       4.262   5.255  18.590  0.00  0.00    +0.000 A 
ATOM     23  C   UNL     1       3.825   6.567  18.437  0.00  0.00    +0.000 A 
BRANCH  22  24
ATOM     24  C   UNL     1       5.675   4.946  18.926  0.00  0.00    +0.000 C 
ATOM     25  O   UNL     1       6.344   5.653  19.661  0.00  0.00    +0.000 OA
BRANCH  24  26
ATOM     26  O   UNL     1       6.145   3.804  18.374  0.00  0.00    +0.000 OA
ATOM     27  H   UNL     1       6.168   3.026  18.964  0.00  0.00    +0.000 HD
ENDBRANCH  24  26
ENDBRANCH  22  24
ENDBRANCH  16  18
ENDBRANCH  13  14
ENDBRANCH   4  13
BRANCH   7  28
ATOM     28  C   UNL     1      -0.616  12.241  22.213  0.00  0.00    +0.000 C 
BRANCH  28  29
ATOM     29  C   UNL     1      -1.627  12.924  23.117  0.00  0.00    +0.000 A 
ATOM     30  C   UNL     1      -2.885  12.356  23.381  0.00  0.00    +0.000 A 
ATOM     31  C   UNL     1      -3.792  12.999  24.225  0.00  0.00    +0.000 A 
ATOM     32 CL   UNL     1      -5.310  12.264  24.564  0.00  0.00    +0.000 Cl
ATOM     33  C   UNL     1      -3.486  14.232  24.787  0.00  0.00    +0.000 A 
ATOM     34  C   UNL     1      -2.278  14.849  24.473  0.00  0.00    +0.000 A 
ATOM     35  C   UNL     1      -1.347  14.211  23.644  0.00  0.00    +0.000 A 
BRANCH  35  36
ATOM     36  O   UNL     1      -0.148  14.771  23.270  0.00  0.00    +0.000 OA
ATOM     37  C   UNL     1       0.037  16.160  23.532  0.00  0.00    +0.000 C 
ENDBRANCH  35  36
ENDBRANCH  28  29
ENDBRANCH   7  28
TORSDOF 9
ENDMDL
MODEL 2
REMARK VINA RESULT:      -7.6      1.437      1.946
REMARK  Name = 
REMARK  11 active torsions:
REMARK  status: ('A' for Active; 'I' for Inactive)
REMARK    1  A    between atoms: C_1  and  O_2
REMARK    2  A    between atoms: O_2  and  N_3
REMARK    3  A    between atoms: N_6  and  C_7
REMARK    4  A    between atoms: C_7  and  C_8
REMARK    5  A    between atoms: N_10  and  C_11
REMARK    6  A    between atoms: C_15  and  C_16
REMARK    7  A    between atoms: C_16  and  O_18
REMARK    8  A    between atoms: C_22  and  C_23
REMARK    9  A    between atoms: C_23  and  C_24
REMARK   10  A    between atoms: C_30  and  O_31
REMARK   11  A    between atoms: O_31  and  C_32
REMARK                            x       y       z     vdW  Elec       q    Type
REMARK                         _______ _______ _______ _____ _____    ______ ____
ROOT
ATOM      1  N   UNL     1      -2.532  11.216  17.152  0.00  0.00    +0.000 NA
ATOM      2  C   UNL     1      -1.860  11.441  18.250  0.00  0.00    +0.000 C 
ATOM      3  C   UNL     1      -0.918  10.417  18.867  0.00  0.00    +0.000 C 
ATOM      4  N   UNL     1       0.440  10.925  19.057  0.00  0.00    +0.000 N 
ATOM      5  C   UNL     1       0.789  11.725  20.123  0.00  0.00    +0.000 C 
ATOM      6  O   UNL     1       1.917  11.670  20.607  0.00  0.00    +0.000 OA
ATOM      7  C   UNL     1      -0.256  12.641  20.750  0.00  0.00    +0.000 C 
ATOM      8  C   UNL     1      -1.073  13.368  19.676  0.00  0.00    +0.000 C 
ATOM      9  N   UNL     1      -2.075  12.627  18.926  0.00  0.00    +0.000 N 
ATOM     10  H   UNL     1      -2.637  13.243  18.338  0.00  0.00    +0.000 HD
ENDROOT
BRANCH   1  12
ATOM     11  C   UNL     1      -2.915   9.742  15.392  0.00  0.00    +0.000 C 
ATOM     12  O   UNL     1      -2.191   9.972  16.590  0.00  0.00    +0.000 OA
ENDBRANCH   1  12
BRANCH   4  13
ATOM     13  C   UNL     1       1.496  10.219  18.319  0.00  0.00    +0.000 C 
BRANCH  13  14
ATOM     14  C   UNL     1       1.739   8.814  18.872  0.00  0.00    +0.000 C 
ATOM     15  O   UNL     1       1.511   8.544  20.050  0.00  0.00    +0.000 OA
ATOM     16  N   UNL     1       2.212   7.920  17.919  0.00  0.00    +0.000 N 
ATOM     17  H   UNL     1       2.554   8.325  17.056  0.00  0.00    +0.000 HD
BRANCH  16  18
ATOM     18  C   UNL     1       2.628   6.626  18.256  0.00  0.00    +0.000 A 
ATOM     19  C   UNL     1       3.991   6.370  18.410  0.00  0.00    +0.000 A 
ATOM     20  C   UNL     1       4.407   5.118  18.863  0.00  0.00    +0.000 A 
ATOM     21  C   UNL     1       3.466   4.114  19.111  0.00  0.00    +0.000 A 
ATOM     22  C   UNL     1       2.103   4.367  18.911  0.00  0.00    +0.000 A 
ATOM     23  C   UNL     1       1.690   5.618  18.466  0.00  0.00    +0.000 A 
BRANCH  22  24
ATOM     24  C   UNL     1       1.130   3.268  19.140  0.00  0.00    +0.000 C 
ATOM     25  O   UNL     1       0.754   2.530  18.244  0.00  0.00    +0.000 OA
BRANCH  24  26
ATOM     26  O   UNL     1       0.723   3.137  20.422  0.00  0.00    +0.000 OA
ATOM     27  H   UNL     1       0.462   3.964  20.871  0.00  0.00    +0.000 HD
ENDBRANCH  24  26
ENDBRANCH  22  24
ENDBRANCH  16  18
ENDBRANCH  13  14
ENDBRANCH   4  13
BRANCH   7  28
ATOM     28  C   UNL     1      -0.924  11.940  21.952  0.00  0.00    +0.000 C 
BRANCH  28  29
ATOM     29  C   UNL     1      -1.793  12.718  22.925  0.00  0.00    +0.000 A 
ATOM     30  C   UNL     1      -3.080  12.282  23.279  0.00  0.00    +0.000 A 
ATOM     31  C   UNL     1      -3.853  13.009  24.185  0.00  0.00    +0.000 A 
ATOM     32 CL   UNL     1      -5.411  12.433  24.633  0.00  0.00    +0.000 Cl
ATOM     33  C   UNL     1      -3.382  14.199  24.724  0.00  0.00    +0.000 A 
ATOM     34  C   UNL     1      -2.142  14.691  24.324  0.00  0.00    +0.000 A 
ATOM     35  C   UNL     1      -1.343  13.965  23.430  0.00  0.00    +0.000 A 
BRANCH  35  36
ATOM     36  O   UNL     1      -0.122  14.401  22.972  0.00  0.00    +0.000 OA
ATOM     37  C   UNL     1       0.116  15.806  22.974  0.00  0.00    +0.000 C 
ENDBRANCH  35  36
ENDBRANCH  28  29
ENDBRANCH   7  28
TORSDOF 9
ENDMDL
MODEL 3
REMARK VINA RESULT:      -7.5      4.872      8.106
REMARK  Name = 
REMARK  11 active torsions:
REMARK  status: ('A' for Active; 'I' for Inactive)
REMARK    1  A    between atoms: C_1  and  O_2
REMARK    2  A    between atoms: O_2  and  N_3
REMARK    3  A    between atoms: N_6  and  C_7
REMARK    4  A    between atoms: C_7  and  C_8
REMARK    5  A    between atoms: N_10  and  C_11
REMARK    6  A    between atoms: C_15  and  C_16
REMARK    7  A    between atoms: C_16  and  O_18
REMARK    8  A    between atoms: C_22  and  C_23
REMARK    9  A    between atoms: C_23  and  C_24
REMARK   10  A    between atoms: C_30  and  O_31
REMARK   11  A    between atoms: O_31  and  C_32
REMARK                            x       y       z     vdW  Elec       q    Type
REMARK                         _______ _______ _______ _____ _____    ______ ____
ROOT
ATOM      1  N   UNL     1       3.935   2.252  19.173  0.00  0.00    +0.000 NA
ATOM      2  C   UNL     1       3.739   3.532  18.999  0.00  0.00    +0.000 C 
ATOM      3  C   UNL     1       4.682   4.594  19.545  0.00  0.00    +0.000 C 
ATOM      4  N   UNL     1       5.193   5.496  18.514  0.00  0.00    +0.000 N 
ATOM      5  C   UNL     1       4.459   6.557  18.027  0.00  0.00    +0.000 C 
ATOM      6  O   UNL     1       5.014   7.588  17.658  0.00  0.00    +0.000 OA
ATOM      7  C   UNL     1       2.937   6.472  18.009  0.00  0.00    +0.000 C 
ATOM      8  C   UNL     1       2.462   5.107  17.496  0.00  0.00    +0.000 C 
ATOM      9  N   UNL     1       2.585   3.944  18.361  0.00  0.00    +0.000 N 
ATOM     10  H   UNL     1       2.120   3.129  17.962  0.00  0.00    +0.000 HD
ENDROOT
BRANCH   1  12
ATOM     11  C   UNL     1       4.940   1.344  21.065  0.00  0.00    +0.000 C 
ATOM     12  O   UNL     1       5.155   2.007  19.829  0.00  0.00    +0.000 OA
ENDBRANCH   1  12
BRANCH   4  13
ATOM     13  C   UNL     1       6.650   5.490  18.323  0.00  0.00    +0.000 C 
BRANCH  13  14
ATOM     14  C   UNL     1       7.047   4.897  16.970  0.00  0.00    +0.000 C 
ATOM     15  O   UNL     1       8.007   4.137  16.864  0.00  0.00    +0.000 OA
ATOM     16  N   UNL     1       6.218   5.295  15.929  0.00  0.00    +0.000 N 
ATOM     17  H   UNL     1       5.608   6.082  16.117  0.00  0.00    +0.000 HD
BRANCH  16  18
ATOM     18  C   UNL     1       6.496   4.976  14.594  0.00  0.00    +0.000 A 
ATOM     19  C   UNL     1       7.610   5.546  13.977  0.00  0.00    +0.000 A 
ATOM     20  C   UNL     1       7.964   5.141  12.690  0.00  0.00    +0.000 A 
ATOM     21  C   UNL     1       7.176   4.210  12.007  0.00  0.00    +0.000 A 
ATOM     22  C   UNL     1       6.033   3.677  12.617  0.00  0.00    +0.000 A 
ATOM     23  C   UNL     1       5.686   4.077  13.903  0.00  0.00    +0.000 A 
BRANCH  22  24
ATOM     24  C   UNL     1       5.190   2.725  11.850  0.00  0.00    +0.000 C 
ATOM     25  O   UNL     1       5.586   1.620  11.518  0.00  0.00    +0.000 OA
BRANCH  24  26
ATOM     26  O   UNL     1       3.943   3.172  11.579  0.00  0.00    +0.000 OA
ATOM     27  H   UNL     1       3.215   2.688  12.015  0.00  0.00    +0.000 HD
ENDBRANCH  24  26
ENDBRANCH  22  24
ENDBRANCH  16  18
ENDBRANCH  13  14
ENDBRANCH   4  13
BRANCH   7  28
ATOM     28  C   UNL     1       2.354   7.114  19.286  0.00  0.00    +0.000 C 
BRANCH  28  29
ATOM     29  C   UNL     1       1.836   8.542  19.275  0.00  0.00    +0.000 A 
ATOM     30  C   UNL     1       2.358   9.512  18.404  0.00  0.00    +0.000 A 
ATOM     31  C   UNL     1       1.856  10.814  18.406  0.00  0.00    +0.000 A 
ATOM     32 CL   UNL     1       2.486  11.973  17.301  0.00  0.00    +0.000 Cl
ATOM     33  C   UNL     1       0.859  11.188  19.297  0.00  0.00    +0.000 A 
ATOM     34  C   UNL     1       0.384  10.263  20.224  0.00  0.00    +0.000 A 
ATOM     35  C   UNL     1       0.862   8.946  20.224  0.00  0.00    +0.000 A 
BRANCH  35  36
ATOM     36  O   UNL     1       0.459   7.989  21.126  0.00  0.00    +0.000 OA
ATOM     37  C   UNL     1      -0.397   8.404  22.186  0.00  0.00    +0.000 C 
ENDBRANCH  35  36
ENDBRANCH  28  29
ENDBRANCH   7  28
TORSDOF 9
ENDMDL
MODEL 4
REMARK VINA RESULT:      -7.3      1.674      2.120
REMARK  Name = 
REMARK  11 active torsions:
REMARK  status: ('A' for Active; 'I' for Inactive)
REMARK    1  A    between atoms: C_1  and  O_2
REMARK    2  A    between atoms: O_2  and  N_3
REMARK    3  A    between atoms: N_6  and  C_7
REMARK    4  A    between atoms: C_7  and  C_8
REMARK    5  A    between atoms: N_10  and  C_11
REMARK    6  A    between atoms: C_15  and  C_16
REMARK    7  A    between atoms: C_16  and  O_18
REMARK    8  A    between atoms: C_22  and  C_23
REMARK    9  A    between atoms: C_23  and  C_24
REMARK   10  A    between atoms: C_30  and  O_31
REMARK   11  A    between atoms: O_31  and  C_32
REMARK                            x       y       z     vdW  Elec       q    Type
REMARK                         _______ _______ _______ _____ _____    ______ ____
ROOT
ATOM      1  N   UNL     1      -2.624  11.373  17.466  0.00  0.00    +0.000 NA
ATOM      2  C   UNL     1      -2.013  11.683  18.579  0.00  0.00    +0.000 C 
ATOM      3  C   UNL     1      -1.125  10.706  19.335  0.00  0.00    +0.000 C 
ATOM      4  N   UNL     1       0.228  11.212  19.560  0.00  0.00    +0.000 N 
ATOM      5  C   UNL     1       0.529  12.097  20.573  0.00  0.00    +0.000 C 
ATOM      6  O   UNL     1       1.626  12.071  21.125  0.00  0.00    +0.000 OA
ATOM      7  C   UNL     1      -0.535  13.076  21.057  0.00  0.00    +0.000 C 
ATOM      8  C   UNL     1      -1.277  13.717  19.878  0.00  0.00    +0.000 C 
ATOM      9  N   UNL     1      -2.246  12.926  19.136  0.00  0.00    +0.000 N 
ATOM     10  H   UNL     1      -2.763  13.495  18.467  0.00  0.00    +0.000 HD
ENDROOT
BRANCH   1  12
ATOM     11  C   UNL     1      -2.824   9.807  15.756  0.00  0.00    +0.000 C 
ATOM     12  O   UNL     1      -2.272  10.081  17.034  0.00  0.00    +0.000 OA
ENDBRANCH   1  12
BRANCH   4  13
ATOM     13  C   UNL     1       1.313  10.433  18.948  0.00  0.00    +0.000 C 
BRANCH  13  14
ATOM     14  C   UNL     1       1.520   9.091  19.652  0.00  0.00    +0.000 C 
ATOM     15  O   UNL     1       1.231   8.941  20.838  0.00  0.00    +0.000 OA
ATOM     16  N   UNL     1       2.036   8.105  18.820  0.00  0.00    +0.000 N 
ATOM     17  H   UNL     1       2.424   8.421  17.938  0.00  0.00    +0.000 HD
BRANCH  16  18
ATOM     18  C   UNL     1       2.428   6.852  19.306  0.00  0.00    +0.000 A 
ATOM     19  C   UNL     1       1.718   6.281  20.363  0.00  0.00    +0.000 A 
ATOM     20  C   UNL     1       2.023   4.983  20.773  0.00  0.00    +0.000 A 
ATOM     21  C   UNL     1       3.068   4.283  20.163  0.00  0.00    +0.000 A 
ATOM     22  C   UNL     1       3.805   4.882  19.133  0.00  0.00    +0.000 A 
ATOM     23  C   UNL     1       3.495   6.173  18.720  0.00  0.00    +0.000 A 
BRANCH  22  24
ATOM     24  C   UNL     1       4.938   4.131  18.534  0.00  0.00    +0.000 C 
ATOM     25  O   UNL     1       5.947   3.856  19.162  0.00  0.00    +0.000 OA
BRANCH  24  26
ATOM     26  O   UNL     1       4.745   3.754  17.249  0.00  0.00    +0.000 OA
ATOM     27  H   UNL     1       5.537   3.768  16.679  0.00  0.00    +0.000 HD
ENDBRANCH  24  26
ENDBRANCH  22  24
ENDBRANCH  16  18
ENDBRANCH  13  14
ENDBRANCH   4  13
BRANCH   7  28
ATOM     28  C   UNL     1      -1.283  12.490  22.273  0.00  0.00    +0.000 C 
BRANCH  28  29
ATOM     29  C   UNL     1      -2.013  13.393  23.250  0.00  0.00    +0.000 A 
ATOM     30  C   UNL     1      -1.326  14.285  24.089  0.00  0.00    +0.000 A 
ATOM     31  C   UNL     1      -2.022  15.114  24.970  0.00  0.00    +0.000 A 
ATOM     32 CL   UNL     1      -1.159  16.226  25.959  0.00  0.00    +0.000 Cl
ATOM     33  C   UNL     1      -3.406  15.045  25.064  0.00  0.00    +0.000 A 
ATOM     34  C   UNL     1      -4.101  14.110  24.300  0.00  0.00    +0.000 A 
ATOM     35  C   UNL     1      -3.420  13.283  23.395  0.00  0.00    +0.000 A 
BRANCH  35  36
ATOM     36  O   UNL     1      -4.036  12.322  22.630  0.00  0.00    +0.000 OA
ATOM     37  C   UNL     1      -4.989  12.761  21.665  0.00  0.00    +0.000 C 
ENDBRANCH  35  36
ENDBRANCH  28  29
ENDBRANCH   7  28
TORSDOF 9
ENDMDL
MODEL 5
REMARK VINA RESULT:      -7.3      2.026      2.735
REMARK  Name = 
REMARK  11 active torsions:
REMARK  status: ('A' for Active; 'I' for Inactive)
REMARK    1  A    between atoms: C_1  and  O_2
REMARK    2  A    between atoms: O_2  and  N_3
REMARK    3  A    between atoms: N_6  and  C_7
REMARK    4  A    between atoms: C_7  and  C_8
REMARK    5  A    between atoms: N_10  and  C_11
REMARK    6  A    between atoms: C_15  and  C_16
REMARK    7  A    between atoms: C_16  and  O_18
REMARK    8  A    between atoms: C_22  and  C_23
REMARK    9  A    between atoms: C_23  and  C_24
REMARK   10  A    between atoms: C_30  and  O_31
REMARK   11  A    between atoms: O_31  and  C_32
REMARK                            x       y       z     vdW  Elec       q    Type
REMARK                         _______ _______ _______ _____ _____    ______ ____
ROOT
ATOM      1  N   UNL     1      -2.429  11.243  16.757  0.00  0.00    +0.000 NA
ATOM      2  C   UNL     1      -1.759  11.538  17.839  0.00  0.00    +0.000 C 
ATOM      3  C   UNL     1      -0.859  10.540  18.552  0.00  0.00    +0.000 C 
ATOM      4  N   UNL     1       0.515  11.015  18.713  0.00  0.00    +0.000 N 
ATOM      5  C   UNL     1       0.883  11.891  19.711  0.00  0.00    +0.000 C 
ATOM      6  O   UNL     1       2.004  11.840  20.210  0.00  0.00    +0.000 OA
ATOM      7  C   UNL     1      -0.134  12.894  20.245  0.00  0.00    +0.000 C 
ATOM      8  C   UNL     1      -0.917  13.553  19.104  0.00  0.00    +0.000 C 
ATOM      9  N   UNL     1      -1.937  12.785  18.408  0.00  0.00    +0.000 N 
ATOM     10  H   UNL     1      -2.472  13.367  17.764  0.00  0.00    +0.000 HD
ENDROOT
BRANCH   1  12
ATOM     11  C   UNL     1      -2.790   9.664  15.085  0.00  0.00    +0.000 C 
ATOM     12  O   UNL     1      -2.127   9.944  16.308  0.00  0.00    +0.000 OA
ENDBRANCH   1  12
BRANCH   4  13
ATOM     13  C   UNL     1       1.551  10.212  18.050  0.00  0.00    +0.000 C 
BRANCH  13  14
ATOM     14  C   UNL     1       1.745   8.856  18.729  0.00  0.00    +0.000 C 
ATOM     15  O   UNL     1       1.449   8.685  19.910  0.00  0.00    +0.000 OA
ATOM     16  N   UNL     1       2.258   7.883  17.881  0.00  0.00    +0.000 N 
ATOM     17  H   UNL     1       2.653   8.212  17.007  0.00  0.00    +0.000 HD
BRANCH  16  18
ATOM     18  C   UNL     1       2.639   6.617  18.345  0.00  0.00    +0.000 A 
ATOM     19  C   UNL     1       3.963   6.405  18.729  0.00  0.00    +0.000 A 
ATOM     20  C   UNL     1       4.323   5.187  19.306  0.00  0.00    +0.000 A 
ATOM     21  C   UNL     1       3.373   4.171  19.448  0.00  0.00    +0.000 A 
ATOM     22  C   UNL     1       2.056   4.377  19.018  0.00  0.00    +0.000 A 
ATOM     23  C   UNL     1       1.698   5.595  18.450  0.00  0.00    +0.000 A 
BRANCH  22  24
ATOM     24  C   UNL     1       1.080   3.265  19.140  0.00  0.00    +0.000 C 
ATOM     25  O   UNL     1       0.928   2.428  18.266  0.00  0.00    +0.000 OA
BRANCH  24  26
ATOM     26  O   UNL     1       0.401   3.241  20.309  0.00  0.00    +0.000 OA
ATOM     27  H   UNL     1       0.682   2.560  20.950  0.00  0.00    +0.000 HD
ENDBRANCH  24  26
ENDBRANCH  22  24
ENDBRANCH  16  18
ENDBRANCH  13  14
ENDBRANCH   4  13
BRANCH   7  28
ATOM     28  C   UNL     1      -0.836  12.322  21.495  0.00  0.00    +0.000 C 
BRANCH  28  29
ATOM     29  C   UNL     1      -1.670  13.214  22.398  0.00  0.00    +0.000 A 
ATOM     30  C   UNL     1      -1.128  13.824  23.541  0.00  0.00    +0.000 A 
ATOM     31  C   UNL     1      -1.913  14.649  24.347  0.00  0.00    +0.000 A 
ATOM     32 CL   UNL     1      -1.215  15.416  25.720  0.00  0.00    +0.000 Cl
ATOM     33  C   UNL     1      -3.257  14.851  24.059  0.00  0.00    +0.000 A 
ATOM     34  C   UNL     1      -3.834  14.192  22.977  0.00  0.00    +0.000 A 
ATOM     35  C   UNL     1      -3.057  13.375  22.145  0.00  0.00    +0.000 A 
BRANCH  35  36
ATOM     36  O   UNL     1      -3.564  12.673  21.076  0.00  0.00    +0.000 OA
ATOM     37  C   UNL     1      -4.975  12.485  21.025  0.00  0.00    +0.000 C 
ENDBRANCH  35  36
ENDBRANCH  28  29
ENDBRANCH   7  28
TORSDOF 9
ENDMDL
MODEL 6
REMARK VINA RESULT:      -7.1      4.489      7.669
REMARK  Name = 
REMARK  11 active torsions:
REMARK  status: ('A' for Active; 'I' for Inactive)
REMARK    1  A    between atoms: C_1  and  O_2
REMARK    2  A    between atoms: O_2  and  N_3
REMARK    3  A    between atoms: N_6  and  C_7
REMARK    4  A    between atoms: C_7  and  C_8
REMARK    5  A    between atoms: N_10  and  C_11
REMARK    6  A    between atoms: C_15  and  C_16
REMARK    7  A    between atoms: C_16  and  O_18
REMARK    8  A    between atoms: C_22  and  C_23
REMARK    9  A    between atoms: C_23  and  C_24
REMARK   10  A    between atoms: C_30  and  O_31
REMARK   11  A    between atoms: O_31  and  C_32
REMARK                            x       y       z     vdW  Elec       q    Type
REMARK                         _______ _______ _______ _____ _____    ______ ____
ROOT
ATOM      1  N   UNL     1       2.420   2.517  19.589  0.00  0.00    +0.000 NA
ATOM      2  C   UNL     1       2.523   3.798  19.350  0.00  0.00    +0.000 C 
ATOM      3  C   UNL     1       3.776   4.600  19.669  0.00  0.00    +0.000 C 
ATOM      4  N   UNL     1       4.321   5.303  18.508  0.00  0.00    +0.000 N 
ATOM      5  C   UNL     1       3.805   6.499  18.057  0.00  0.00    +0.000 C 
ATOM      6  O   UNL     1       4.531   7.339  17.533  0.00  0.00    +0.000 OA
ATOM      7  C   UNL     1       2.327   6.808  18.271  0.00  0.00    +0.000 C 
ATOM      8  C   UNL     1       1.452   5.595  17.939  0.00  0.00    +0.000 C 
ATOM      9  N   UNL     1       1.420   4.471  18.861  0.00  0.00    +0.000 N 
ATOM     10  H   UNL     1       0.708   3.788  18.598  0.00  0.00    +0.000 HD
ENDROOT
BRANCH   1  12
ATOM     11  C   UNL     1       4.298   1.247  19.067  0.00  0.00    +0.000 C 
ATOM     12  O   UNL     1       3.630   1.989  20.074  0.00  0.00    +0.000 OA
ENDBRANCH   1  12
BRANCH   4  13
ATOM     13  C   UNL     1       5.679   4.915  18.105  0.00  0.00    +0.000 C 
BRANCH  13  14
ATOM     14  C   UNL     1       5.722   4.391  16.669  0.00  0.00    +0.000 C 
ATOM     15  O   UNL     1       5.272   3.283  16.381  0.00  0.00    +0.000 OA
ATOM     16  N   UNL     1       6.291   5.285  15.771  0.00  0.00    +0.000 N 
ATOM     17  H   UNL     1       6.808   6.058  16.175  0.00  0.00    +0.000 HD
BRANCH  16  18
ATOM     18  C   UNL     1       6.550   4.938  14.440  0.00  0.00    +0.000 A 
ATOM     19  C   UNL     1       7.660   5.488  13.798  0.00  0.00    +0.000 A 
ATOM     20  C   UNL     1       7.995   5.056  12.514  0.00  0.00    +0.000 A 
ATOM     21  C   UNL     1       7.191   4.118  11.859  0.00  0.00    +0.000 A 
ATOM     22  C   UNL     1       6.053   3.605  12.494  0.00  0.00    +0.000 A 
ATOM     23  C   UNL     1       5.725   4.031  13.777  0.00  0.00    +0.000 A 
BRANCH  22  24
ATOM     24  C   UNL     1       5.194   2.643  11.757  0.00  0.00    +0.000 C 
ATOM     25  O   UNL     1       4.071   2.927  11.376  0.00  0.00    +0.000 OA
BRANCH  24  26
ATOM     26  O   UNL     1       5.772   1.444  11.518  0.00  0.00    +0.000 OA
ATOM     27  H   UNL     1       5.273   0.664  11.828  0.00  0.00    +0.000 HD
ENDBRANCH  24  26
ENDBRANCH  22  24
ENDBRANCH  16  18
ENDBRANCH  13  14
ENDBRANCH   4  13
BRANCH   7  28
ATOM     28  C   UNL     1       2.137   7.624  19.568  0.00  0.00    +0.000 C 
BRANCH  28  29
ATOM     29  C   UNL     1       1.559   9.027  19.530  0.00  0.00    +0.000 A 
ATOM     30  C   UNL     1       2.098  10.028  18.705  0.00  0.00    +0.000 A 
ATOM     31  C   UNL     1       1.540  11.306  18.681  0.00  0.00    +0.000 A 
ATOM     32 CL   UNL     1       2.194  12.503  17.631  0.00  0.00    +0.000 Cl
ATOM     33  C   UNL     1       0.466  11.627  19.500  0.00  0.00    +0.000 A 
ATOM     34  C   UNL     1      -0.032  10.674  20.385  0.00  0.00    +0.000 A 
ATOM     35  C   UNL     1       0.503   9.378  20.410  0.00  0.00    +0.000 A 
BRANCH  35  36
ATOM     36  O   UNL     1       0.080   8.396  21.274  0.00  0.00    +0.000 OA
ATOM     37  C   UNL     1      -0.533   8.811  22.491  0.00  0.00    +0.000 C 
ENDBRANCH  35  36
ENDBRANCH  28  29
ENDBRANCH   7  28
TORSDOF 9
ENDMDL
MODEL 7
REMARK VINA RESULT:      -7.0      2.379      3.599
REMARK  Name = 
REMARK  11 active torsions:
REMARK  status: ('A' for Active; 'I' for Inactive)
REMARK    1  A    between atoms: C_1  and  O_2
REMARK    2  A    between atoms: O_2  and  N_3
REMARK    3  A    between atoms: N_6  and  C_7
REMARK    4  A    between atoms: C_7  and  C_8
REMARK    5  A    between atoms: N_10  and  C_11
REMARK    6  A    between atoms: C_15  and  C_16
REMARK    7  A    between atoms: C_16  and  O_18
REMARK    8  A    between atoms: C_22  and  C_23
REMARK    9  A    between atoms: C_23  and  C_24
REMARK   10  A    between atoms: C_30  and  O_31
REMARK   11  A    between atoms: O_31  and  C_32
REMARK                            x       y       z     vdW  Elec       q    Type
REMARK                         _______ _______ _______ _____ _____    ______ ____
ROOT
ATOM      1  N   UNL     1       2.191   9.800  17.549  0.00  0.00    +0.000 NA
ATOM      2  C   UNL     1       1.403  10.440  18.373  0.00  0.00    +0.000 C 
ATOM      3  C   UNL     1       0.538   9.735  19.407  0.00  0.00    +0.000 C 
ATOM      4  N   UNL     1       0.777  10.201  20.772  0.00  0.00    +0.000 N 
ATOM      5  C   UNL     1       0.224  11.363  21.266  0.00  0.00    +0.000 C 
ATOM      6  O   UNL     1      -0.076  11.461  22.453  0.00  0.00    +0.000 OA
ATOM      7  C   UNL     1      -0.079  12.514  20.314  0.00  0.00    +0.000 C 
ATOM      8  C   UNL     1       1.081  12.749  19.339  0.00  0.00    +0.000 C 
ATOM      9  N   UNL     1       1.289  11.812  18.246  0.00  0.00    +0.000 N 
ATOM     10  H   UNL     1       2.002  12.143  17.597  0.00  0.00    +0.000 HD
ENDROOT
BRANCH   1  12
ATOM     11  C   UNL     1       3.440   7.839  17.462  0.00  0.00    +0.000 C 
ATOM     12  O   UNL     1       2.196   8.419  17.818  0.00  0.00    +0.000 OA
ENDBRANCH   1  12
BRANCH   4  13
ATOM     13  C   UNL     1       1.271   9.189  21.716  0.00  0.00    +0.000 C 
BRANCH  13  14
ATOM     14  C   UNL     1       1.016   7.767  21.216  0.00  0.00    +0.000 C 
ATOM     15  O   UNL     1      -0.111   7.275  21.239  0.00  0.00    +0.000 OA
ATOM     16  N   UNL     1       2.159   7.135  20.742  0.00  0.00    +0.000 N 
ATOM     17  H   UNL     1       3.043   7.570  20.980  0.00  0.00    +0.000 HD
BRANCH  16  18
ATOM     18  C   UNL     1       2.162   5.784  20.373  0.00  0.00    +0.000 A 
ATOM     19  C   UNL     1       1.052   4.995  20.675  0.00  0.00    +0.000 A 
ATOM     20  C   UNL     1       0.995   3.682  20.205  0.00  0.00    +0.000 A 
ATOM     21  C   UNL     1       2.066   3.150  19.482  0.00  0.00    +0.000 A 
ATOM     22  C   UNL     1       3.196   3.936  19.222  0.00  0.00    +0.000 A 
ATOM     23  C   UNL     1       3.248   5.246  19.685  0.00  0.00    +0.000 A 
BRANCH  22  24
ATOM     24  C   UNL     1       4.337   3.330  18.490  0.00  0.00    +0.000 C 
ATOM     25  O   UNL     1       4.210   2.806  17.396  0.00  0.00    +0.000 OA
BRANCH  24  26
ATOM     26  O   UNL     1       5.528   3.434  19.122  0.00  0.00    +0.000 OA
ATOM     27  H   UNL     1       5.515   3.266  20.084  0.00  0.00    +0.000 HD
ENDBRANCH  24  26
ENDBRANCH  22  24
ENDBRANCH  16  18
ENDBRANCH  13  14
ENDBRANCH   4  13
BRANCH   7  28
ATOM     28  C   UNL     1      -1.546  12.439  19.837  0.00  0.00    +0.000 C 
BRANCH  28  29
ATOM     29  C   UNL     1      -2.658  13.108  20.625  0.00  0.00    +0.000 A 
ATOM     30  C   UNL     1      -2.401  13.820  21.809  0.00  0.00    +0.000 A 
ATOM     31  C   UNL     1      -3.441  14.435  22.507  0.00  0.00    +0.000 A 
ATOM     32 CL   UNL     1      -3.095  15.335  23.933  0.00  0.00    +0.000 Cl
ATOM     33  C   UNL     1      -4.754  14.323  22.070  0.00  0.00    +0.000 A 
ATOM     34  C   UNL     1      -5.039  13.554  20.945  0.00  0.00    +0.000 A 
ATOM     35  C   UNL     1      -4.007  12.944  20.219  0.00  0.00    +0.000 A 
BRANCH  35  36
ATOM     36  O   UNL     1      -4.216  12.150  19.116  0.00  0.00    +0.000 OA
ATOM     37  C   UNL     1      -5.487  11.517  18.994  0.00  0.00    +0.000 C 
ENDBRANCH  35  36
ENDBRANCH  28  29
ENDBRANCH   7  28
TORSDOF 9
ENDMDL
MODEL 8
REMARK VINA RESULT:      -7.0      3.481      9.428
REMARK  Name = 
REMARK  11 active torsions:
REMARK  status: ('A' for Active; 'I' for Inactive)
REMARK    1  A    between atoms: C_1  and  O_2
REMARK    2  A    between atoms: O_2  and  N_3
REMARK    3  A    between atoms: N_6  and  C_7
REMARK    4  A    between atoms: C_7  and  C_8
REMARK    5  A    between atoms: N_10  and  C_11
REMARK    6  A    between atoms: C_15  and  C_16
REMARK    7  A    between atoms: C_16  and  O_18
REMARK    8  A    between atoms: C_22  and  C_23
REMARK    9  A    between atoms: C_23  and  C_24
REMARK   10  A    between atoms: C_30  and  O_31
REMARK   11  A    between atoms: O_31  and  C_32
REMARK                            x       y       z     vdW  Elec       q    Type
REMARK                         _______ _______ _______ _____ _____    ______ ____
ROOT
ATOM      1  N   UNL     1       2.266  12.993  18.137  0.00  0.00    +0.000 NA
ATOM      2  C   UNL     1       1.923  11.836  18.638  0.00  0.00    +0.000 C 
ATOM      3  C   UNL     1       1.680  11.618  20.124  0.00  0.00    +0.000 C 
ATOM      4  N   UNL     1       0.356  11.072  20.417  0.00  0.00    +0.000 N 
ATOM      5  C   UNL     1       0.062   9.731  20.286  0.00  0.00    +0.000 C 
ATOM      6  O   UNL     1      -0.756   9.192  21.027  0.00  0.00    +0.000 OA
ATOM      7  C   UNL     1       0.808   8.896  19.252  0.00  0.00    +0.000 C 
ATOM      8  C   UNL     1       0.920   9.636  17.914  0.00  0.00    +0.000 C 
ATOM      9  N   UNL     1       1.855  10.744  17.794  0.00  0.00    +0.000 N 
ATOM     10  H   UNL     1       1.932  11.068  16.830  0.00  0.00    +0.000 HD
ENDROOT
BRANCH   1  12
ATOM     11  C   UNL     1       1.371  15.035  18.806  0.00  0.00    +0.000 C 
ATOM     12  O   UNL     1       2.280  13.994  19.126  0.00  0.00    +0.000 OA
ENDBRANCH   1  12
BRANCH   4  13
ATOM     13  C   UNL     1      -0.514  11.915  21.248  0.00  0.00    +0.000 C 
BRANCH  13  14
ATOM     14  C   UNL     1      -1.687  12.487  20.451  0.00  0.00    +0.000 C 
ATOM     15  O   UNL     1      -1.530  12.932  19.315  0.00  0.00    +0.000 OA
ATOM     16  N   UNL     1      -2.896  12.433  21.132  0.00  0.00    +0.000 N 
ATOM     17  H   UNL     1      -2.842  12.246  22.127  0.00  0.00    +0.000 HD
BRANCH  16  18
ATOM     18  C   UNL     1      -4.058  13.033  20.632  0.00  0.00    +0.000 A 
ATOM     19  C   UNL     1      -4.342  14.355  20.977  0.00  0.00    +0.000 A 
ATOM     20  C   UNL     1      -5.431  15.000  20.388  0.00  0.00    +0.000 A 
ATOM     21  C   UNL     1      -6.258  14.306  19.500  0.00  0.00    +0.000 A 
ATOM     22  C   UNL     1      -5.991  12.966  19.194  0.00  0.00    +0.000 A 
ATOM     23  C   UNL     1      -4.902  12.327  19.777  0.00  0.00    +0.000 A 
BRANCH  22  24
ATOM     24  C   UNL     1      -6.914  12.242  18.283  0.00  0.00    +0.000 C 
ATOM     25  O   UNL     1      -7.257  12.695  17.203  0.00  0.00    +0.000 OA
BRANCH  24  26
ATOM     26  O   UNL     1      -7.313  11.031  18.734  0.00  0.00    +0.000 OA
ATOM     27  H   UNL     1      -8.272  10.928  18.881  0.00  0.00    +0.000 HD
ENDBRANCH  24  26
ENDBRANCH  22  24
ENDBRANCH  16  18
ENDBRANCH  13  14
ENDBRANCH   4  13
BRANCH   7  28
ATOM     28  C   UNL     1       2.022   8.201  19.906  0.00  0.00    +0.000 C 
BRANCH  28  29
ATOM     29  C   UNL     1       2.281   6.720  19.695  0.00  0.00    +0.000 A 
ATOM     30  C   UNL     1       1.771   5.747  20.571  0.00  0.00    +0.000 A 
ATOM     31  C   UNL     1       2.015   4.392  20.346  0.00  0.00    +0.000 A 
ATOM     32 CL   UNL     1       1.346   3.217  21.412  0.00  0.00    +0.000 Cl
ATOM     33  C   UNL     1       2.798   3.979  19.277  0.00  0.00    +0.000 A 
ATOM     34  C   UNL     1       3.380   4.931  18.444  0.00  0.00    +0.000 A 
ATOM     35  C   UNL     1       3.131   6.296  18.641  0.00  0.00    +0.000 A 
BRANCH  35  36
ATOM     36  O   UNL     1       3.692   7.292  17.876  0.00  0.00    +0.000 OA
ATOM     37  C   UNL     1       4.675   6.909  16.919  0.00  0.00    +0.000 C 
ENDBRANCH  35  36
ENDBRANCH  28  29
ENDBRANCH   7  28
TORSDOF 9
ENDMDL
MODEL 9
REMARK VINA RESULT:      -7.0      3.030      4.159
REMARK  Name = 
REMARK  11 active torsions:
REMARK  status: ('A' for Active; 'I' for Inactive)
REMARK    1  A    between atoms: C_1  and  O_2
REMARK    2  A    between atoms: O_2  and  N_3
REMARK    3  A    between atoms: N_6  and  C_7
REMARK    4  A    between atoms: C_7  and  C_8
REMARK    5  A    between atoms: N_10  and  C_11
REMARK    6  A    between atoms: C_15  and  C_16
REMARK    7  A    between atoms: C_16  and  O_18
REMARK    8  A    between atoms: C_22  and  C_23
REMARK    9  A    between atoms: C_23  and  C_24
REMARK   10  A    between atoms: C_30  and  O_31
REMARK   11  A    between atoms: O_31  and  C_32
REMARK                            x       y       z     vdW  Elec       q    Type
REMARK                         _______ _______ _______ _____ _____    ______ ____
ROOT
ATOM      1  N   UNL     1       1.038  12.121  18.977  0.00  0.00    +0.000 NA
ATOM      2  C   UNL     1       0.019  12.201  19.792  0.00  0.00    +0.000 C 
ATOM      3  C   UNL     1      -0.661  10.977  20.389  0.00  0.00    +0.000 C 
ATOM      4  N   UNL     1      -0.702  10.997  21.850  0.00  0.00    +0.000 N 
ATOM      5  C   UNL     1      -1.637  11.722  22.556  0.00  0.00    +0.000 C 
ATOM      6  O   UNL     1      -2.054  11.325  23.641  0.00  0.00    +0.000 OA
ATOM      7  C   UNL     1      -2.209  13.000  21.952  0.00  0.00    +0.000 C 
ATOM      8  C   UNL     1      -1.105  13.861  21.325  0.00  0.00    +0.000 C 
ATOM      9  N   UNL     1      -0.516  13.446  20.062  0.00  0.00    +0.000 N 
ATOM     10  H   UNL     1       0.107  14.160  19.685  0.00  0.00    +0.000 HD
ENDROOT
BRANCH   1  12
ATOM     11  C   UNL     1       2.418  10.682  17.777  0.00  0.00    +0.000 C 
ATOM     12  O   UNL     1       1.460  10.788  18.819  0.00  0.00    +0.000 OA
ENDBRANCH   1  12
BRANCH   4  13
ATOM     13  C   UNL     1       0.007   9.900  22.525  0.00  0.00    +0.000 C 
BRANCH  13  14
ATOM     14  C   UNL     1       0.126   8.663  21.634  0.00  0.00    +0.000 C 
ATOM     15  O   UNL     1      -0.847   7.947  21.402  0.00  0.00    +0.000 OA
ATOM     16  N   UNL     1       1.407   8.465  21.133  0.00  0.00    +0.000 N 
ATOM     17  H   UNL     1       2.148   8.999  21.573  0.00  0.00    +0.000 HD
BRANCH  16  18
ATOM     18  C   UNL     1       1.754   7.315  20.415  0.00  0.00    +0.000 A 
ATOM     19  C   UNL     1       2.338   7.452  19.154  0.00  0.00    +0.000 A 
ATOM     20  C   UNL     1       2.798   6.318  18.485  0.00  0.00    +0.000 A 
ATOM     21  C   UNL     1       2.627   5.051  19.052  0.00  0.00    +0.000 A 
ATOM     22  C   UNL     1       1.999   4.920  20.297  0.00  0.00    +0.000 A 
ATOM     23  C   UNL     1       1.548   6.053  20.966  0.00  0.00    +0.000 A 
BRANCH  22  24
ATOM     24  C   UNL     1       1.791   3.559  20.854  0.00  0.00    +0.000 C 
ATOM     25  O   UNL     1       2.669   2.951  21.444  0.00  0.00    +0.000 OA
BRANCH  24  26
ATOM     26  O   UNL     1       0.544   3.066  20.680  0.00  0.00    +0.000 OA
ATOM     27  H   UNL     1       0.106   3.307  19.841  0.00  0.00    +0.000 HD
ENDBRANCH  24  26
ENDBRANCH  22  24
ENDBRANCH  16  18
ENDBRANCH  13  14
ENDBRANCH   4  13
BRANCH   7  28
ATOM     28  C   UNL     1      -3.528  12.694  21.210  0.00  0.00    +0.000 C 
BRANCH  28  29
ATOM     29  C   UNL     1      -4.841  13.302  21.669  0.00  0.00    +0.000 A 
ATOM     30  C   UNL     1      -4.884  14.355  22.598  0.00  0.00    +0.000 A 
ATOM     31  C   UNL     1      -6.104  14.904  22.994  0.00  0.00    +0.000 A 
ATOM     32 CL   UNL     1      -6.128  16.219  24.103  0.00  0.00    +0.000 Cl
ATOM     33  C   UNL     1      -7.302  14.394  22.510  0.00  0.00    +0.000 A 
ATOM     34  C   UNL     1      -7.285  13.298  21.651  0.00  0.00    +0.000 A 
ATOM     35  C   UNL     1      -6.069  12.745  21.227  0.00  0.00    +0.000 A 
BRANCH  35  36
ATOM     36  O   UNL     1      -5.976  11.649  20.403  0.00  0.00    +0.000 OA
ATOM     37  C   UNL     1      -7.191  11.099  19.902  0.00  0.00    +0.000 C 
ENDBRANCH  35  36
ENDBRANCH  28  29
ENDBRANCH   7  28
TORSDOF 9
ENDMDL
