MODEL 1
REMARK VINA RESULT:      -5.0      0.000      0.000
REMARK  Name = 
REMARK  5 active torsions:
REMARK  status: ('A' for Active; 'I' for Inactive)
REMARK    1  A    between atoms: C_1  and  C_2
REMARK    2  A    between atoms: C_2  and  C_3
REMARK    3  A    between atoms: C_4  and  C_5
REMARK    4  A    between atoms: C_5  and  S_6
REMARK    5  A    between atoms: S_6  and  C_7
REMARK                            x       y       z     vdW  Elec       q    Type
REMARK                         _______ _______ _______ _____ _____    ______ ____
ROOT
ATOM      1  S   UNL     1       5.839   3.987  15.967  0.00  0.00    +0.000 S 
ENDROOT
BRANCH   1   2
ATOM      2  C   UNL     1       7.089   4.884  16.762  0.00  0.00    +0.000 C 
ATOM      3  N   UNL     1       7.427   6.047  16.342  0.00  0.00    +0.000 NA
ATOM      4  N   UNL     1       7.634   4.318  17.857  0.00  0.00    +0.000 N 
ATOM      5  H   UNL     1       6.846   6.275  15.531  0.00  0.00    +0.000 HD
ATOM      6  H   UNL     1       7.022   3.678  18.346  0.00  0.00    +0.000 HD
ATOM      7  H   UNL     1       8.084   5.000  18.456  0.00  0.00    +0.000 HD
ENDBRANCH   1   2
BRANCH   1   8
ATOM      8  C   UNL     1       6.468   4.081  14.268  0.00  0.00    +0.000 C 
BRANCH   8  12
ATOM      9  C   UNL     1       4.180   3.184  11.233  0.00  0.00    +0.000 C 
ATOM     10  C   UNL     1       5.392   3.254  12.122  0.00  0.00    +0.000 C 
ATOM     11  C   UNL     1       6.643   2.582  11.629  0.00  0.00    +0.000 C 
ATOM     12  C   UNL     1       5.337   3.928  13.289  0.00  0.00    +0.000 C 
ENDBRANCH   8  12
ENDBRANCH   1   8
TORSDOF 3
ENDMDL
MODEL 2
REMARK VINA RESULT:      -4.9      0.116      1.093
REMARK  Name = 
REMARK  5 active torsions:
REMARK  status: ('A' for Active; 'I' for Inactive)
REMARK    1  A    between atoms: C_1  and  C_2
REMARK    2  A    between atoms: C_2  and  C_3
REMARK    3  A    between atoms: C_4  and  C_5
REMARK    4  A    between atoms: C_5  and  S_6
REMARK    5  A    between atoms: S_6  and  C_7
REMARK                            x       y       z     vdW  Elec       q    Type
REMARK                         _______ _______ _______ _____ _____    ______ ____
ROOT
ATOM      1  S   UNL     1       5.944   3.832  15.897  0.00  0.00    +0.000 S 
ENDROOT
BRANCH   1   2
ATOM      2  C   UNL     1       7.115   4.762  16.771  0.00  0.00    +0.000 C 
ATOM      3  N   UNL     1       7.646   4.302  17.844  0.00  0.00    +0.000 NA
ATOM      4  N   UNL     1       7.465   5.948  16.236  0.00  0.00    +0.000 N 
ATOM      5  H   UNL     1       7.254   3.373  18.021  0.00  0.00    +0.000 HD
ATOM      6  H   UNL     1       7.362   6.001  15.231  0.00  0.00    +0.000 HD
ATOM      7  H   UNL     1       8.362   6.272  16.577  0.00  0.00    +0.000 HD
ENDBRANCH   1   2
BRANCH   1   8
ATOM      8  C   UNL     1       6.494   4.208  14.210  0.00  0.00    +0.000 C 
BRANCH   8  12
ATOM      9  C   UNL     1       4.169   3.182  11.245  0.00  0.00    +0.000 C 
ATOM     10  C   UNL     1       5.385   3.271  12.127  0.00  0.00    +0.000 C 
ATOM     11  C   UNL     1       6.609   2.520  11.684  0.00  0.00    +0.000 C 
ATOM     12  C   UNL     1       5.356   4.028  13.244  0.00  0.00    +0.000 C 
ENDBRANCH   8  12
ENDBRANCH   1   8
TORSDOF 3
ENDMDL
MODEL 3
REMARK VINA RESULT:      -4.7      3.356      5.168
REMARK  Name = 
REMARK  5 active torsions:
REMARK  status: ('A' for Active; 'I' for Inactive)
REMARK    1  A    between atoms: C_1  and  C_2
REMARK    2  A    between atoms: C_2  and  C_3
REMARK    3  A    between atoms: C_4  and  C_5
REMARK    4  A    between atoms: C_5  and  S_6
REMARK    5  A    between atoms: S_6  and  C_7
REMARK                            x       y       z     vdW  Elec       q    Type
REMARK                         _______ _______ _______ _____ _____    ______ ____
ROOT
ATOM      1  S   UNL     1       5.430   4.064  16.266  0.00  0.00    +0.000 S 
ENDROOT
BRANCH   1   2
ATOM      2  C   UNL     1       7.083   4.581  16.211  0.00  0.00    +0.000 C 
ATOM      3  N   UNL     1       7.906   4.235  17.131  0.00  0.00    +0.000 NA
ATOM      4  N   UNL     1       7.453   5.306  15.138  0.00  0.00    +0.000 N 
ATOM      5  H   UNL     1       7.402   3.655  17.809  0.00  0.00    +0.000 HD
ATOM      6  H   UNL     1       6.905   5.133  14.305  0.00  0.00    +0.000 HD
ATOM      7  H   UNL     1       8.454   5.282  14.986  0.00  0.00    +0.000 HD
ENDBRANCH   1   2
BRANCH   1   8
ATOM      8  C   UNL     1       5.062   4.493  17.989  0.00  0.00    +0.000 C 
BRANCH   8  12
ATOM      9  C   UNL     1       2.560   7.488  18.124  0.00  0.00    +0.000 C 
ATOM     10  C   UNL     1       3.079   6.077  18.056  0.00  0.00    +0.000 C 
ATOM     11  C   UNL     1       2.061   4.976  17.952  0.00  0.00    +0.000 C 
ATOM     12  C   UNL     1       4.408   5.845  18.056  0.00  0.00    +0.000 C 
ENDBRANCH   8  12
ENDBRANCH   1   8
TORSDOF 3
ENDMDL
MODEL 4
REMARK VINA RESULT:      -4.7      3.723      4.797
REMARK  Name = 
REMARK  5 active torsions:
REMARK  status: ('A' for Active; 'I' for Inactive)
REMARK    1  A    between atoms: C_1  and  C_2
REMARK    2  A    between atoms: C_2  and  C_3
REMARK    3  A    between atoms: C_4  and  C_5
REMARK    4  A    between atoms: C_5  and  S_6
REMARK    5  A    between atoms: S_6  and  C_7
REMARK                            x       y       z     vdW  Elec       q    Type
REMARK                         _______ _______ _______ _____ _____    ______ ____
ROOT
ATOM      1  S   UNL     1       5.716   5.024  18.169  0.00  0.00    +0.000 S 
ENDROOT
BRANCH   1   2
ATOM      2  C   UNL     1       7.224   4.997  17.318  0.00  0.00    +0.000 C 
ATOM      3  N   UNL     1       8.122   4.130  17.607  0.00  0.00    +0.000 NA
ATOM      4  N   UNL     1       7.368   5.890  16.320  0.00  0.00    +0.000 N 
ATOM      5  H   UNL     1       7.764   3.540  18.364  0.00  0.00    +0.000 HD
ATOM      6  H   UNL     1       6.501   6.182  15.889  0.00  0.00    +0.000 HD
ATOM      7  H   UNL     1       8.085   5.614  15.659  0.00  0.00    +0.000 HD
ENDBRANCH   1   2
BRANCH   1   8
ATOM      8  C   UNL     1       4.709   4.093  16.981  0.00  0.00    +0.000 C 
BRANCH   8  12
ATOM      9  C   UNL     1       1.227   3.081  18.430  0.00  0.00    +0.000 C 
ATOM     10  C   UNL     1       2.672   2.990  18.020  0.00  0.00    +0.000 C 
ATOM     11  C   UNL     1       3.369   1.678  18.252  0.00  0.00    +0.000 C 
ATOM     12  C   UNL     1       3.279   4.047  17.441  0.00  0.00    +0.000 C 
ENDBRANCH   8  12
ENDBRANCH   1   8
TORSDOF 3
ENDMDL
MODEL 5
REMARK VINA RESULT:      -4.6      3.830      4.823
REMARK  Name = 
REMARK  5 active torsions:
REMARK  status: ('A' for Active; 'I' for Inactive)
REMARK    1  A    between atoms: C_1  and  C_2
REMARK    2  A    between atoms: C_2  and  C_3
REMARK    3  A    between atoms: C_4  and  C_5
REMARK    4  A    between atoms: C_5  and  S_6
REMARK    5  A    between atoms: S_6  and  C_7
REMARK                            x       y       z     vdW  Elec       q    Type
REMARK                         _______ _______ _______ _____ _____    ______ ____
ROOT
ATOM      1  S   UNL     1       4.066   3.227  19.168  0.00  0.00    +0.000 S 
ENDROOT
BRANCH   1   2
ATOM      2  C   UNL     1       3.310   1.812  18.514  0.00  0.00    +0.000 C 
ATOM      3  N   UNL     1       2.070   1.825  18.187  0.00  0.00    +0.000 NA
ATOM      4  N   UNL     1       4.101   0.738  18.325  0.00  0.00    +0.000 N 
ATOM      5  H   UNL     1       1.698   2.759  18.384  0.00  0.00    +0.000 HD
ATOM      6  H   UNL     1       5.077   0.958  18.174  0.00  0.00    +0.000 HD
ATOM      7  H   UNL     1       3.713   0.091  17.649  0.00  0.00    +0.000 HD
ENDBRANCH   1   2
BRANCH   1   8
ATOM      8  C   UNL     1       3.854   4.336  17.748  0.00  0.00    +0.000 C 
BRANCH   8  12
ATOM      9  C   UNL     1       6.152   4.058  14.604  0.00  0.00    +0.000 C 
ATOM     10  C   UNL     1       5.340   4.664  15.716  0.00  0.00    +0.000 C 
ATOM     11  C   UNL     1       5.254   6.164  15.764  0.00  0.00    +0.000 C 
ATOM     12  C   UNL     1       4.699   3.867  16.597  0.00  0.00    +0.000 C 
ENDBRANCH   8  12
ENDBRANCH   1   8
TORSDOF 3
ENDMDL
MODEL 6
REMARK VINA RESULT:      -4.6      3.309      5.062
REMARK  Name = 
REMARK  5 active torsions:
REMARK  status: ('A' for Active; 'I' for Inactive)
REMARK    1  A    between atoms: C_1  and  C_2
REMARK    2  A    between atoms: C_2  and  C_3
REMARK    3  A    between atoms: C_4  and  C_5
REMARK    4  A    between atoms: C_5  and  S_6
REMARK    5  A    between atoms: S_6  and  C_7
REMARK                            x       y       z     vdW  Elec       q    Type
REMARK                         _______ _______ _______ _____ _____    ______ ____
ROOT
ATOM      1  S   UNL     1       5.413   4.079  16.236  0.00  0.00    +0.000 S 
ENDROOT
BRANCH   1   2
ATOM      2  C   UNL     1       7.048   4.641  16.131  0.00  0.00    +0.000 C 
ATOM      3  N   UNL     1       7.429   5.361  15.140  0.00  0.00    +0.000 NA
ATOM      4  N   UNL     1       7.861   4.328  17.159  0.00  0.00    +0.000 N 
ATOM      5  H   UNL     1       6.627   5.497  14.518  0.00  0.00    +0.000 HD
ATOM      6  H   UNL     1       7.386   4.185  18.040  0.00  0.00    +0.000 HD
ATOM      7  H   UNL     1       8.662   4.946  17.216  0.00  0.00    +0.000 HD
ENDBRANCH   1   2
BRANCH   1   8
ATOM      8  C   UNL     1       5.073   4.535  17.959  0.00  0.00    +0.000 C 
BRANCH   8  12
ATOM      9  C   UNL     1       2.593   7.548  18.098  0.00  0.00    +0.000 C 
ATOM     10  C   UNL     1       3.102   6.133  18.045  0.00  0.00    +0.000 C 
ATOM     11  C   UNL     1       2.075   5.037  17.988  0.00  0.00    +0.000 C 
ATOM     12  C   UNL     1       4.430   5.892  18.015  0.00  0.00    +0.000 C 
ENDBRANCH   8  12
ENDBRANCH   1   8
TORSDOF 3
ENDMDL
MODEL 7
REMARK VINA RESULT:      -4.6      4.096      5.493
REMARK  Name = 
REMARK  5 active torsions:
REMARK  status: ('A' for Active; 'I' for Inactive)
REMARK    1  A    between atoms: C_1  and  C_2
REMARK    2  A    between atoms: C_2  and  C_3
REMARK    3  A    between atoms: C_4  and  C_5
REMARK    4  A    between atoms: C_5  and  S_6
REMARK    5  A    between atoms: S_6  and  C_7
REMARK                            x       y       z     vdW  Elec       q    Type
REMARK                         _______ _______ _______ _____ _____    ______ ____
ROOT
ATOM      1  S   UNL     1       4.441   4.719  17.262  0.00  0.00    +0.000 S 
ENDROOT
BRANCH   1   2
ATOM      2  C   UNL     1       4.601   4.506  18.973  0.00  0.00    +0.000 C 
ATOM      3  N   UNL     1       4.089   5.354  19.787  0.00  0.00    +0.000 NA
ATOM      4  N   UNL     1       5.235   3.392  19.386  0.00  0.00    +0.000 N 
ATOM      5  H   UNL     1       3.626   6.084  19.238  0.00  0.00    +0.000 HD
ATOM      6  H   UNL     1       5.182   2.615  18.740  0.00  0.00    +0.000 HD
ATOM      7  H   UNL     1       5.003   3.151  20.342  0.00  0.00    +0.000 HD
ENDBRANCH   1   2
BRANCH   1   8
ATOM      8  C   UNL     1       6.201   4.775  16.824  0.00  0.00    +0.000 C 
BRANCH   8  12
ATOM      9  C   UNL     1       7.878   8.194  17.685  0.00  0.00    +0.000 C 
ATOM     10  C   UNL     1       7.461   6.753  17.796  0.00  0.00    +0.000 C 
ATOM     11  C   UNL     1       7.906   6.003  19.021  0.00  0.00    +0.000 C 
ATOM     12  C   UNL     1       6.691   6.196  16.838  0.00  0.00    +0.000 C 
ENDBRANCH   8  12
ENDBRANCH   1   8
TORSDOF 3
ENDMDL
MODEL 8
REMARK VINA RESULT:      -4.6      3.789      4.613
REMARK  Name = 
REMARK  5 active torsions:
REMARK  status: ('A' for Active; 'I' for Inactive)
REMARK    1  A    between atoms: C_1  and  C_2
REMARK    2  A    between atoms: C_2  and  C_3
REMARK    3  A    between atoms: C_4  and  C_5
REMARK    4  A    between atoms: C_5  and  S_6
REMARK    5  A    between atoms: S_6  and  C_7
REMARK                            x       y       z     vdW  Elec       q    Type
REMARK                         _______ _______ _______ _____ _____    ______ ____
ROOT
ATOM      1  S   UNL     1       5.952   5.909  17.757  0.00  0.00    +0.000 S 
ENDROOT
BRANCH   1   2
ATOM      2  C   UNL     1       7.232   4.911  17.149  0.00  0.00    +0.000 C 
ATOM      3  N   UNL     1       7.871   4.120  17.929  0.00  0.00    +0.000 NA
ATOM      4  N   UNL     1       7.471   4.979  15.824  0.00  0.00    +0.000 N 
ATOM      5  H   UNL     1       7.481   4.217  18.871  0.00  0.00    +0.000 HD
ATOM      6  H   UNL     1       6.670   5.244  15.266  0.00  0.00    +0.000 HD
ATOM      7  H   UNL     1       7.961   4.161  15.482  0.00  0.00    +0.000 HD
ENDBRANCH   1   2
BRANCH   1   8
ATOM      8  C   UNL     1       4.599   5.287  16.721  0.00  0.00    +0.000 C 
BRANCH   8  12
ATOM      9  C   UNL     1       2.819   2.030  17.932  0.00  0.00    +0.000 C 
ATOM     10  C   UNL     1       3.035   3.471  17.558  0.00  0.00    +0.000 C 
ATOM     11  C   UNL     1       1.870   4.406  17.728  0.00  0.00    +0.000 C 
ATOM     12  C   UNL     1       4.244   3.883  17.123  0.00  0.00    +0.000 C 
ENDBRANCH   8  12
ENDBRANCH   1   8
TORSDOF 3
ENDMDL
MODEL 9
REMARK VINA RESULT:      -4.6      2.404      3.556
REMARK  Name = 
REMARK  5 active torsions:
REMARK  status: ('A' for Active; 'I' for Inactive)
REMARK    1  A    between atoms: C_1  and  C_2
REMARK    2  A    between atoms: C_2  and  C_3
REMARK    3  A    between atoms: C_4  and  C_5
REMARK    4  A    between atoms: C_5  and  S_6
REMARK    5  A    between atoms: S_6  and  C_7
REMARK                            x       y       z     vdW  Elec       q    Type
REMARK                         _______ _______ _______ _____ _____    ______ ____
ROOT
ATOM      1  S   UNL     1       7.483   6.907  17.835  0.00  0.00    +0.000 S 
ENDROOT
BRANCH   1   2
ATOM      2  C   UNL     1       7.786   5.481  18.771  0.00  0.00    +0.000 C 
ATOM      3  N   UNL     1       7.777   5.526  20.052  0.00  0.00    +0.000 NA
ATOM      4  N   UNL     1       7.975   4.338  18.084  0.00  0.00    +0.000 N 
ATOM      5  H   UNL     1       7.570   6.488  20.336  0.00  0.00    +0.000 HD
ATOM      6  H   UNL     1       7.526   4.313  17.178  0.00  0.00    +0.000 HD
ATOM      7  H   UNL     1       7.805   3.517  18.652  0.00  0.00    +0.000 HD
ENDBRANCH   1   2
BRANCH   1   8
ATOM      8  C   UNL     1       5.817   6.500  17.242  0.00  0.00    +0.000 C 
BRANCH   8  12
ATOM      9  C   UNL     1       5.562   4.149  14.135  0.00  0.00    +0.000 C 
ATOM     10  C   UNL     1       5.412   4.657  15.543  0.00  0.00    +0.000 C 
ATOM     11  C   UNL     1       4.748   3.743  16.535  0.00  0.00    +0.000 C 
ATOM     12  C   UNL     1       5.894   5.872  15.878  0.00  0.00    +0.000 C 
ENDBRANCH   8  12
ENDBRANCH   1   8
TORSDOF 3
ENDMDL
