MODEL 1
REMARK VINA RESULT:      -7.4      0.000      0.000
REMARK  Name = 
REMARK  8 active torsions:
REMARK  status: ('A' for Active; 'I' for Inactive)
REMARK    1  A    between atoms: C_1  and  O_2
REMARK    2  A    between atoms: O_2  and  C_3
REMARK    3  A    between atoms: C_7  and  N_8
REMARK    4  A    between atoms: N_8  and  C_9
REMARK    5  A    between atoms: C_9  and  C_10
REMARK    6  A    between atoms: N_12  and  N_13
REMARK    7  A    between atoms: C_14  and  C_15
REMARK    8  A    between atoms: C_14  and  C_16
REMARK                            x       y       z     vdW  Elec       q    Type
REMARK                         _______ _______ _______ _____ _____    ______ ____
ROOT
ATOM      1  C   UNL     1       7.461   7.368  17.964  0.00  0.00    +0.000 C 
ATOM      2  O   UNL     1       7.895   6.494  18.716  0.00  0.00    +0.000 OA
ATOM      3  N   UNL     1       6.278   7.294  17.238  0.00  0.00    +0.000 N 
ATOM      4  H   UNL     1       5.931   8.134  16.794  0.00  0.00    +0.000 HD
ENDROOT
BRANCH   3   5
ATOM      5  N   UNL     1       5.513   6.171  17.306  0.00  0.00    +0.000 NA
ATOM      6  C   UNL     1       4.235   6.235  17.550  0.00  0.00    +0.000 C 
ATOM      7  C   UNL     1       3.447   7.515  17.758  0.00  0.00    +0.000 C 
BRANCH   6   8
ATOM      8  C   UNL     1       3.471   4.939  17.624  0.00  0.00    +0.000 A 
ATOM      9  C   UNL     1       2.106   4.966  17.922  0.00  0.00    +0.000 A 
ATOM     10  C   UNL     1       1.417   3.766  17.971  0.00  0.00    +0.000 A 
ATOM     11  N   UNL     1       1.989   2.564  17.750  0.00  0.00    +0.000 NA
ATOM     12  C   UNL     1       3.306   2.559  17.469  0.00  0.00    +0.000 A 
ATOM     13  C   UNL     1       4.085   3.704  17.398  0.00  0.00    +0.000 A 
ENDBRANCH   6   8
ENDBRANCH   3   5
BRANCH   1  14
ATOM     14  C   UNL     1       8.196   8.697  17.764  0.00  0.00    +0.000 C 
BRANCH  14  15
ATOM     15  N   UNL     1       8.924   9.063  18.983  0.00  0.00    +0.000 N 
ATOM     16  H   UNL     1       9.659   8.389  19.204  0.00  0.00    +0.000 HD
BRANCH  15  21
ATOM     17  C   UNL     1       9.987  12.600  18.339  0.00  0.00    +0.000 A 
ATOM     18  C   UNL     1      10.065  13.067  19.651  0.00  0.00    +0.000 A 
ATOM     19  C   UNL     1       9.794  12.213  20.715  0.00  0.00    +0.000 A 
ATOM     20  C   UNL     1       9.449  10.881  20.467  0.00  0.00    +0.000 A 
ATOM     21  C   UNL     1       9.377  10.377  19.160  0.00  0.00    +0.000 A 
ATOM     22  C   UNL     1       9.629  11.266  18.103  0.00  0.00    +0.000 A 
BRANCH  17  24
ATOM     23  C   UNL     1      11.494  13.377  16.671  0.00  0.00    +0.000 C 
ATOM     24  O   UNL     1      10.273  13.535  17.382  0.00  0.00    +0.000 OA
ENDBRANCH  17  24
ENDBRANCH  15  21
ENDBRANCH  14  15
ENDBRANCH   1  14
TORSDOF 6
ENDMDL
MODEL 2
REMARK VINA RESULT:      -7.3      4.142      7.038
REMARK  Name = 
REMARK  8 active torsions:
REMARK  status: ('A' for Active; 'I' for Inactive)
REMARK    1  A    between atoms: C_1  and  O_2
REMARK    2  A    between atoms: O_2  and  C_3
REMARK    3  A    between atoms: C_7  and  N_8
REMARK    4  A    between atoms: N_8  and  C_9
REMARK    5  A    between atoms: C_9  and  C_10
REMARK    6  A    between atoms: N_12  and  N_13
REMARK    7  A    between atoms: C_14  and  C_15
REMARK    8  A    between atoms: C_14  and  C_16
REMARK                            x       y       z     vdW  Elec       q    Type
REMARK                         _______ _______ _______ _____ _____    ______ ____
ROOT
ATOM      1  C   UNL     1       2.427   3.995  17.992  0.00  0.00    +0.000 C 
ATOM      2  O   UNL     1       1.346   4.134  17.420  0.00  0.00    +0.000 OA
ATOM      3  N   UNL     1       2.959   4.868  18.935  0.00  0.00    +0.000 N 
ATOM      4  H   UNL     1       3.765   4.569  19.468  0.00  0.00    +0.000 HD
ENDROOT
BRANCH   3   5
ATOM      5  N   UNL     1       2.280   5.999  19.267  0.00  0.00    +0.000 NA
ATOM      6  C   UNL     1       2.549   7.142  18.704  0.00  0.00    +0.000 C 
ATOM      7  C   UNL     1       3.594   7.362  17.626  0.00  0.00    +0.000 C 
BRANCH   6   8
ATOM      8  C   UNL     1       1.758   8.344  19.148  0.00  0.00    +0.000 A 
ATOM      9  C   UNL     1       1.437   9.334  18.216  0.00  0.00    +0.000 A 
ATOM     10  C   UNL     1       0.697  10.425  18.639  0.00  0.00    +0.000 A 
ATOM     11  N   UNL     1       0.266  10.591  19.907  0.00  0.00    +0.000 NA
ATOM     12  C   UNL     1       0.590   9.628  20.792  0.00  0.00    +0.000 A 
ATOM     13  C   UNL     1       1.327   8.500  20.469  0.00  0.00    +0.000 A 
ENDBRANCH   6   8
ENDBRANCH   3   5
BRANCH   1  14
ATOM     14  C   UNL     1       3.325   2.782  17.735  0.00  0.00    +0.000 C 
BRANCH  14  15
ATOM     15  N   UNL     1       4.732   3.138  17.941  0.00  0.00    +0.000 N 
ATOM     16  H   UNL     1       5.286   2.338  18.253  0.00  0.00    +0.000 HD
BRANCH  15  21
ATOM     17  C   UNL     1       6.974   5.622  16.251  0.00  0.00    +0.000 A 
ATOM     18  C   UNL     1       6.929   5.134  14.946  0.00  0.00    +0.000 A 
ATOM     19  C   UNL     1       6.149   4.022  14.642  0.00  0.00    +0.000 A 
ATOM     20  C   UNL     1       5.405   3.398  15.647  0.00  0.00    +0.000 A 
ATOM     21  C   UNL     1       5.418   3.875  16.967  0.00  0.00    +0.000 A 
ATOM     22  C   UNL     1       6.233   4.981  17.253  0.00  0.00    +0.000 A 
BRANCH  17  24
ATOM     23  C   UNL     1       7.542   7.512  17.579  0.00  0.00    +0.000 C 
ATOM     24  O   UNL     1       7.778   6.716  16.424  0.00  0.00    +0.000 OA
ENDBRANCH  17  24
ENDBRANCH  15  21
ENDBRANCH  14  15
ENDBRANCH   1  14
TORSDOF 6
ENDMDL
MODEL 3
REMARK VINA RESULT:      -7.2      4.702      6.835
REMARK  Name = 
REMARK  8 active torsions:
REMARK  status: ('A' for Active; 'I' for Inactive)
REMARK    1  A    between atoms: C_1  and  O_2
REMARK    2  A    between atoms: O_2  and  C_3
REMARK    3  A    between atoms: C_7  and  N_8
REMARK    4  A    between atoms: N_8  and  C_9
REMARK    5  A    between atoms: C_9  and  C_10
REMARK    6  A    between atoms: N_12  and  N_13
REMARK    7  A    between atoms: C_14  and  C_15
REMARK    8  A    between atoms: C_14  and  C_16
REMARK                            x       y       z     vdW  Elec       q    Type
REMARK                         _______ _______ _______ _____ _____    ______ ____
ROOT
ATOM      1  C   UNL     1       3.081   4.262  19.718  0.00  0.00    +0.000 C 
ATOM      2  O   UNL     1       2.383   3.831  20.636  0.00  0.00    +0.000 OA
ATOM      3  N   UNL     1       3.172   5.594  19.330  0.00  0.00    +0.000 N 
ATOM      4  H   UNL     1       3.905   5.858  18.685  0.00  0.00    +0.000 HD
ENDROOT
BRANCH   3   5
ATOM      5  N   UNL     1       2.427   6.536  19.967  0.00  0.00    +0.000 NA
ATOM      6  C   UNL     1       2.127   7.666  19.394  0.00  0.00    +0.000 C 
ATOM      7  C   UNL     1       2.527   8.067  17.986  0.00  0.00    +0.000 C 
BRANCH   6   8
ATOM      8  C   UNL     1       1.312   8.657  20.183  0.00  0.00    +0.000 A 
ATOM      9  C   UNL     1       1.234   8.526  21.572  0.00  0.00    +0.000 A 
ATOM     10  C   UNL     1       0.492   9.455  22.282  0.00  0.00    +0.000 A 
ATOM     11  N   UNL     1      -0.165  10.485  21.709  0.00  0.00    +0.000 NA
ATOM     12  C   UNL     1      -0.081  10.590  20.369  0.00  0.00    +0.000 A 
ATOM     13  C   UNL     1       0.632   9.713  19.568  0.00  0.00    +0.000 A 
ENDBRANCH   6   8
ENDBRANCH   3   5
BRANCH   1  14
ATOM     14  C   UNL     1       3.981   3.341  18.890  0.00  0.00    +0.000 C 
BRANCH  14  15
ATOM     15  N   UNL     1       5.390   3.583  19.213  0.00  0.00    +0.000 N 
ATOM     16  H   UNL     1       5.904   2.710  19.352  0.00  0.00    +0.000 HD
BRANCH  15  21
ATOM     17  C   UNL     1       6.834   5.504  16.337  0.00  0.00    +0.000 A 
ATOM     18  C   UNL     1       7.504   6.509  17.034  0.00  0.00    +0.000 A 
ATOM     19  C   UNL     1       7.491   6.523  18.425  0.00  0.00    +0.000 A 
ATOM     20  C   UNL     1       6.809   5.523  19.124  0.00  0.00    +0.000 A 
ATOM     21  C   UNL     1       6.138   4.490  18.451  0.00  0.00    +0.000 A 
ATOM     22  C   UNL     1       6.145   4.513  17.048  0.00  0.00    +0.000 A 
BRANCH  17  24
ATOM     23  C   UNL     1       6.525   4.460  14.222  0.00  0.00    +0.000 C 
ATOM     24  O   UNL     1       6.918   5.601  14.974  0.00  0.00    +0.000 OA
ENDBRANCH  17  24
ENDBRANCH  15  21
ENDBRANCH  14  15
ENDBRANCH   1  14
TORSDOF 6
ENDMDL
MODEL 4
REMARK VINA RESULT:      -7.1      4.045      6.953
REMARK  Name = 
REMARK  8 active torsions:
REMARK  status: ('A' for Active; 'I' for Inactive)
REMARK    1  A    between atoms: C_1  and  O_2
REMARK    2  A    between atoms: O_2  and  C_3
REMARK    3  A    between atoms: C_7  and  N_8
REMARK    4  A    between atoms: N_8  and  C_9
REMARK    5  A    between atoms: C_9  and  C_10
REMARK    6  A    between atoms: N_12  and  N_13
REMARK    7  A    between atoms: C_14  and  C_15
REMARK    8  A    between atoms: C_14  and  C_16
REMARK                            x       y       z     vdW  Elec       q    Type
REMARK                         _______ _______ _______ _____ _____    ______ ____
ROOT
ATOM      1  C   UNL     1       2.879   3.969  19.971  0.00  0.00    +0.000 C 
ATOM      2  O   UNL     1       1.772   3.626  20.386  0.00  0.00    +0.000 OA
ATOM      3  N   UNL     1       3.356   5.274  19.924  0.00  0.00    +0.000 N 
ATOM      4  H   UNL     1       4.338   5.421  19.732  0.00  0.00    +0.000 HD
ENDROOT
BRANCH   3   5
ATOM      5  N   UNL     1       2.561   6.298  20.333  0.00  0.00    +0.000 NA
ATOM      6  C   UNL     1       2.298   7.307  19.551  0.00  0.00    +0.000 C 
ATOM      7  C   UNL     1       2.797   7.464  18.127  0.00  0.00    +0.000 C 
BRANCH   6   8
ATOM      8  C   UNL     1       1.422   8.404  20.095  0.00  0.00    +0.000 A 
ATOM      9  C   UNL     1       1.110   9.497  19.283  0.00  0.00    +0.000 A 
ATOM     10  C   UNL     1       0.291  10.490  19.795  0.00  0.00    +0.000 A 
ATOM     11  N   UNL     1      -0.225  10.465  21.041  0.00  0.00    +0.000 NA
ATOM     12  C   UNL     1       0.091   9.405  21.810  0.00  0.00    +0.000 A 
ATOM     13  C   UNL     1       0.902   8.363  21.393  0.00  0.00    +0.000 A 
ENDBRANCH   6   8
ENDBRANCH   3   5
BRANCH   1  14
ATOM     14  C   UNL     1       3.902   2.946  19.468  0.00  0.00    +0.000 C 
BRANCH  14  15
ATOM     15  N   UNL     1       5.209   3.584  19.283  0.00  0.00    +0.000 N 
ATOM     16  H   UNL     1       5.977   2.959  19.538  0.00  0.00    +0.000 HD
BRANCH  15  21
ATOM     17  C   UNL     1       6.756   5.883  16.758  0.00  0.00    +0.000 A 
ATOM     18  C   UNL     1       6.139   5.413  15.599  0.00  0.00    +0.000 A 
ATOM     19  C   UNL     1       5.215   4.375  15.670  0.00  0.00    +0.000 A 
ATOM     20  C   UNL     1       4.901   3.807  16.908  0.00  0.00    +0.000 A 
ATOM     21  C   UNL     1       5.493   4.268  18.094  0.00  0.00    +0.000 A 
ATOM     22  C   UNL     1       6.441   5.298  17.992  0.00  0.00    +0.000 A 
BRANCH  17  24
ATOM     23  C   UNL     1       7.715   7.904  17.565  0.00  0.00    +0.000 C 
ATOM     24  O   UNL     1       7.646   6.903  16.558  0.00  0.00    +0.000 OA
ENDBRANCH  17  24
ENDBRANCH  15  21
ENDBRANCH  14  15
ENDBRANCH   1  14
TORSDOF 6
ENDMDL
MODEL 5
REMARK VINA RESULT:      -7.1      1.074      1.978
REMARK  Name = 
REMARK  8 active torsions:
REMARK  status: ('A' for Active; 'I' for Inactive)
REMARK    1  A    between atoms: C_1  and  O_2
REMARK    2  A    between atoms: O_2  and  C_3
REMARK    3  A    between atoms: C_7  and  N_8
REMARK    4  A    between atoms: N_8  and  C_9
REMARK    5  A    between atoms: C_9  and  C_10
REMARK    6  A    between atoms: N_12  and  N_13
REMARK    7  A    between atoms: C_14  and  C_15
REMARK    8  A    between atoms: C_14  and  C_16
REMARK                            x       y       z     vdW  Elec       q    Type
REMARK                         _______ _______ _______ _____ _____    ______ ____
ROOT
ATOM      1  C   UNL     1       7.402   7.238  17.954  0.00  0.00    +0.000 C 
ATOM      2  O   UNL     1       7.886   6.344  18.649  0.00  0.00    +0.000 OA
ATOM      3  N   UNL     1       6.170   7.185  17.313  0.00  0.00    +0.000 N 
ATOM      4  H   UNL     1       5.795   8.037  16.917  0.00  0.00    +0.000 HD
ENDROOT
BRANCH   3   5
ATOM      5  N   UNL     1       5.407   6.063  17.407  0.00  0.00    +0.000 NA
ATOM      6  C   UNL     1       4.122   6.130  17.606  0.00  0.00    +0.000 C 
ATOM      7  C   UNL     1       3.322   7.414  17.733  0.00  0.00    +0.000 C 
BRANCH   6   8
ATOM      8  C   UNL     1       3.361   4.835  17.714  0.00  0.00    +0.000 A 
ATOM      9  C   UNL     1       1.991   4.867  17.983  0.00  0.00    +0.000 A 
ATOM     10  C   UNL     1       1.304   3.667  18.064  0.00  0.00    +0.000 A 
ATOM     11  N   UNL     1       1.885   2.460  17.900  0.00  0.00    +0.000 NA
ATOM     12  C   UNL     1       3.208   2.450  17.647  0.00  0.00    +0.000 A 
ATOM     13  C   UNL     1       3.984   3.594  17.548  0.00  0.00    +0.000 A 
ENDBRANCH   6   8
ENDBRANCH   3   5
BRANCH   1  14
ATOM     14  C   UNL     1       8.126   8.570  17.736  0.00  0.00    +0.000 C 
BRANCH  14  15
ATOM     15  N   UNL     1       8.862   8.952  18.945  0.00  0.00    +0.000 N 
ATOM     16  H   UNL     1       9.642   8.319  19.131  0.00  0.00    +0.000 HD
BRANCH  15  21
ATOM     17  C   UNL     1       9.822  12.200  20.552  0.00  0.00    +0.000 A 
ATOM     18  C   UNL     1      10.229  12.912  19.425  0.00  0.00    +0.000 A 
ATOM     19  C   UNL     1      10.158  12.327  18.164  0.00  0.00    +0.000 A 
ATOM     20  C   UNL     1       9.671  11.023  18.029  0.00  0.00    +0.000 A 
ATOM     21  C   UNL     1       9.239  10.287  19.142  0.00  0.00    +0.000 A 
ATOM     22  C   UNL     1       9.346  10.890  20.405  0.00  0.00    +0.000 A 
BRANCH  17  24
ATOM     23  C   UNL     1       8.834  12.830  22.622  0.00  0.00    +0.000 C 
ATOM     24  O   UNL     1       9.943  12.881  21.733  0.00  0.00    +0.000 OA
ENDBRANCH  17  24
ENDBRANCH  15  21
ENDBRANCH  14  15
ENDBRANCH   1  14
TORSDOF 6
ENDMDL
MODEL 6
REMARK VINA RESULT:      -7.1      4.435      7.483
REMARK  Name = 
REMARK  8 active torsions:
REMARK  status: ('A' for Active; 'I' for Inactive)
REMARK    1  A    between atoms: C_1  and  O_2
REMARK    2  A    between atoms: O_2  and  C_3
REMARK    3  A    between atoms: C_7  and  N_8
REMARK    4  A    between atoms: N_8  and  C_9
REMARK    5  A    between atoms: C_9  and  C_10
REMARK    6  A    between atoms: N_12  and  N_13
REMARK    7  A    between atoms: C_14  and  C_15
REMARK    8  A    between atoms: C_14  and  C_16
REMARK                            x       y       z     vdW  Elec       q    Type
REMARK                         _______ _______ _______ _____ _____    ______ ____
ROOT
ATOM      1  C   UNL     1       2.066   5.021  20.118  0.00  0.00    +0.000 C 
ATOM      2  O   UNL     1       1.307   4.537  20.958  0.00  0.00    +0.000 OA
ATOM      3  N   UNL     1       2.322   6.377  19.947  0.00  0.00    +0.000 N 
ATOM      4  H   UNL     1       3.091   6.651  19.350  0.00  0.00    +0.000 HD
ENDROOT
BRANCH   3   5
ATOM      5  N   UNL     1       1.684   7.288  20.730  0.00  0.00    +0.000 NA
ATOM      6  C   UNL     1       1.380   8.473  20.282  0.00  0.00    +0.000 C 
ATOM      7  C   UNL     1       1.657   8.975  18.877  0.00  0.00    +0.000 C 
BRANCH   6   8
ATOM      8  C   UNL     1       0.690   9.423  21.225  0.00  0.00    +0.000 A 
ATOM      9  C   UNL     1       0.557  10.766  20.867  0.00  0.00    +0.000 A 
ATOM     10  C   UNL     1      -0.093  11.622  21.741  0.00  0.00    +0.000 A 
ATOM     11  N   UNL     1      -0.607  11.233  22.927  0.00  0.00    +0.000 NA
ATOM     12  C   UNL     1      -0.463   9.935  23.256  0.00  0.00    +0.000 A 
ATOM     13  C   UNL     1       0.171   9.000  22.453  0.00  0.00    +0.000 A 
ENDBRANCH   6   8
ENDBRANCH   3   5
BRANCH   1  14
ATOM     14  C   UNL     1       2.863   4.142  19.150  0.00  0.00    +0.000 C 
BRANCH  14  15
ATOM     15  N   UNL     1       2.946   4.781  17.834  0.00  0.00    +0.000 N 
ATOM     16  H   UNL     1       2.325   5.589  17.763  0.00  0.00    +0.000 HD
BRANCH  15  21
ATOM     17  C   UNL     1       6.116   6.513  16.830  0.00  0.00    +0.000 A 
ATOM     18  C   UNL     1       6.815   5.434  16.290  0.00  0.00    +0.000 A 
ATOM     19  C   UNL     1       6.229   4.173  16.242  0.00  0.00    +0.000 A 
ATOM     20  C   UNL     1       4.932   3.991  16.732  0.00  0.00    +0.000 A 
ATOM     21  C   UNL     1       4.197   5.059  17.268  0.00  0.00    +0.000 A 
ATOM     22  C   UNL     1       4.821   6.315  17.328  0.00  0.00    +0.000 A 
BRANCH  17  24
ATOM     23  C   UNL     1       7.887   7.819  17.732  0.00  0.00    +0.000 C 
ATOM     24  O   UNL     1       6.800   7.698  16.823  0.00  0.00    +0.000 OA
ENDBRANCH  17  24
ENDBRANCH  15  21
ENDBRANCH  14  15
ENDBRANCH   1  14
TORSDOF 6
ENDMDL
MODEL 7
REMARK VINA RESULT:      -7.1      4.478      7.474
REMARK  Name = 
REMARK  8 active torsions:
REMARK  status: ('A' for Active; 'I' for Inactive)
REMARK    1  A    between atoms: C_1  and  O_2
REMARK    2  A    between atoms: O_2  and  C_3
REMARK    3  A    between atoms: C_7  and  N_8
REMARK    4  A    between atoms: N_8  and  C_9
REMARK    5  A    between atoms: C_9  and  C_10
REMARK    6  A    between atoms: N_12  and  N_13
REMARK    7  A    between atoms: C_14  and  C_15
REMARK    8  A    between atoms: C_14  and  C_16
REMARK                            x       y       z     vdW  Elec       q    Type
REMARK                         _______ _______ _______ _____ _____    ______ ____
ROOT
ATOM      1  C   UNL     1       2.282   5.218  20.210  0.00  0.00    +0.000 C 
ATOM      2  O   UNL     1       1.464   4.698  20.970  0.00  0.00    +0.000 OA
ATOM      3  N   UNL     1       2.478   6.585  20.048  0.00  0.00    +0.000 N 
ATOM      4  H   UNL     1       3.291   6.898  19.534  0.00  0.00    +0.000 HD
ENDROOT
BRANCH   3   5
ATOM      5  N   UNL     1       1.709   7.465  20.745  0.00  0.00    +0.000 NA
ATOM      6  C   UNL     1       1.299   8.579  20.209  0.00  0.00    +0.000 C 
ATOM      7  C   UNL     1       1.586   9.024  18.787  0.00  0.00    +0.000 C 
BRANCH   6   8
ATOM      8  C   UNL     1       0.467   9.501  21.061  0.00  0.00    +0.000 A 
ATOM      9  C   UNL     1       0.193   9.147  22.385  0.00  0.00    +0.000 A 
ATOM     10  C   UNL     1      -0.562  10.014  23.158  0.00  0.00    +0.000 A 
ATOM     11  N   UNL     1      -1.053  11.186  22.706  0.00  0.00    +0.000 NA
ATOM     12  C   UNL     1      -0.782  11.507  21.426  0.00  0.00    +0.000 A 
ATOM     13  C   UNL     1      -0.039  10.709  20.571  0.00  0.00    +0.000 A 
ENDBRANCH   6   8
ENDBRANCH   3   5
BRANCH   1  14
ATOM     14  C   UNL     1       3.227   4.378  19.346  0.00  0.00    +0.000 C 
BRANCH  14  15
ATOM     15  N   UNL     1       3.163   4.816  17.949  0.00  0.00    +0.000 N 
ATOM     16  H   UNL     1       2.477   5.561  17.814  0.00  0.00    +0.000 HD
BRANCH  15  21
ATOM     17  C   UNL     1       6.308   6.451  16.731  0.00  0.00    +0.000 A 
ATOM     18  C   UNL     1       6.823   5.421  15.946  0.00  0.00    +0.000 A 
ATOM     19  C   UNL     1       6.122   4.227  15.810  0.00  0.00    +0.000 A 
ATOM     20  C   UNL     1       4.895   4.064  16.460  0.00  0.00    +0.000 A 
ATOM     21  C   UNL     1       4.343   5.088  17.245  0.00  0.00    +0.000 A 
ATOM     22  C   UNL     1       5.083   6.272  17.386  0.00  0.00    +0.000 A 
BRANCH  17  24
ATOM     23  C   UNL     1       7.958   7.696  17.908  0.00  0.00    +0.000 C 
ATOM     24  O   UNL     1       7.091   7.573  16.788  0.00  0.00    +0.000 OA
ENDBRANCH  17  24
ENDBRANCH  15  21
ENDBRANCH  14  15
ENDBRANCH   1  14
TORSDOF 6
ENDMDL
MODEL 8
REMARK VINA RESULT:      -7.1      5.755      7.969
REMARK  Name = 
REMARK  8 active torsions:
REMARK  status: ('A' for Active; 'I' for Inactive)
REMARK    1  A    between atoms: C_1  and  O_2
REMARK    2  A    between atoms: O_2  and  C_3
REMARK    3  A    between atoms: C_7  and  N_8
REMARK    4  A    between atoms: N_8  and  C_9
REMARK    5  A    between atoms: C_9  and  C_10
REMARK    6  A    between atoms: N_12  and  N_13
REMARK    7  A    between atoms: C_14  and  C_15
REMARK    8  A    between atoms: C_14  and  C_16
REMARK                            x       y       z     vdW  Elec       q    Type
REMARK                         _______ _______ _______ _____ _____    ______ ____
ROOT
ATOM      1  C   UNL     1       1.926   5.033  20.018  0.00  0.00    +0.000 C 
ATOM      2  O   UNL     1       1.010   4.598  20.715  0.00  0.00    +0.000 OA
ATOM      3  N   UNL     1       2.346   6.358  19.972  0.00  0.00    +0.000 N 
ATOM      4  H   UNL     1       3.216   6.571  19.502  0.00  0.00    +0.000 HD
ENDROOT
BRANCH   3   5
ATOM      5  N   UNL     1       1.706   7.296  20.721  0.00  0.00    +0.000 NA
ATOM      6  C   UNL     1       1.382   8.455  20.223  0.00  0.00    +0.000 C 
ATOM      7  C   UNL     1       1.636   8.897  18.794  0.00  0.00    +0.000 C 
BRANCH   6   8
ATOM      8  C   UNL     1       0.691   9.438  21.132  0.00  0.00    +0.000 A 
ATOM      9  C   UNL     1       0.200   9.001  22.365  0.00  0.00    +0.000 A 
ATOM     10  C   UNL     1      -0.419   9.922  23.194  0.00  0.00    +0.000 A 
ATOM     11  N   UNL     1      -0.578  11.224  22.879  0.00  0.00    +0.000 NA
ATOM     12  C   UNL     1      -0.102  11.624  21.684  0.00  0.00    +0.000 A 
ATOM     13  C   UNL     1       0.530  10.782  20.783  0.00  0.00    +0.000 A 
ENDBRANCH   6   8
ENDBRANCH   3   5
BRANCH   1  14
ATOM     14  C   UNL     1       2.752   4.118  19.109  0.00  0.00    +0.000 C 
BRANCH  14  15
ATOM     15  N   UNL     1       4.183   4.323  19.347  0.00  0.00    +0.000 N 
ATOM     16  H   UNL     1       4.531   3.734  20.107  0.00  0.00    +0.000 HD
BRANCH  15  21
ATOM     17  C   UNL     1       5.616   4.290  15.883  0.00  0.00    +0.000 A 
ATOM     18  C   UNL     1       6.943   4.603  16.172  0.00  0.00    +0.000 A 
ATOM     19  C   UNL     1       7.347   4.793  17.490  0.00  0.00    +0.000 A 
ATOM     20  C   UNL     1       6.418   4.663  18.527  0.00  0.00    +0.000 A 
ATOM     21  C   UNL     1       5.079   4.334  18.270  0.00  0.00    +0.000 A 
ATOM     22  C   UNL     1       4.692   4.174  16.931  0.00  0.00    +0.000 A 
BRANCH  17  24
ATOM     23  C   UNL     1       6.456   4.052  13.671  0.00  0.00    +0.000 C 
ATOM     24  O   UNL     1       5.343   4.132  14.552  0.00  0.00    +0.000 OA
ENDBRANCH  17  24
ENDBRANCH  15  21
ENDBRANCH  14  15
ENDBRANCH   1  14
TORSDOF 6
ENDMDL
MODEL 9
REMARK VINA RESULT:      -7.1      5.168      7.478
REMARK  Name = 
REMARK  8 active torsions:
REMARK  status: ('A' for Active; 'I' for Inactive)
REMARK    1  A    between atoms: C_1  and  O_2
REMARK    2  A    between atoms: O_2  and  C_3
REMARK    3  A    between atoms: C_7  and  N_8
REMARK    4  A    between atoms: N_8  and  C_9
REMARK    5  A    between atoms: C_9  and  C_10
REMARK    6  A    between atoms: N_12  and  N_13
REMARK    7  A    between atoms: C_14  and  C_15
REMARK    8  A    between atoms: C_14  and  C_16
REMARK                            x       y       z     vdW  Elec       q    Type
REMARK                         _______ _______ _______ _____ _____    ______ ____
ROOT
ATOM      1  C   UNL     1       2.071   5.301  20.244  0.00  0.00    +0.000 C 
ATOM      2  O   UNL     1       0.933   4.987  20.594  0.00  0.00    +0.000 OA
ATOM      3  N   UNL     1       2.548   6.601  20.121  0.00  0.00    +0.000 N 
ATOM      4  H   UNL     1       3.542   6.740  20.000  0.00  0.00    +0.000 HD
ENDROOT
BRANCH   3   5
ATOM      5  N   UNL     1       1.720   7.651  20.370  0.00  0.00    +0.000 NA
ATOM      6  C   UNL     1       1.517   8.580  19.480  0.00  0.00    +0.000 C 
ATOM      7  C   UNL     1       2.128   8.611  18.092  0.00  0.00    +0.000 C 
BRANCH   6   8
ATOM      8  C   UNL     1       0.597   9.714  19.850  0.00  0.00    +0.000 A 
ATOM      9  C   UNL     1       0.644  10.238  21.144  0.00  0.00    +0.000 A 
ATOM     10  C   UNL     1      -0.198  11.291  21.462  0.00  0.00    +0.000 A 
ATOM     11  N   UNL     1      -1.069  11.843  20.591  0.00  0.00    +0.000 NA
ATOM     12  C   UNL     1      -1.102  11.320  19.350  0.00  0.00    +0.000 A 
ATOM     13  C   UNL     1      -0.303  10.267  18.934  0.00  0.00    +0.000 A 
ENDBRANCH   6   8
ENDBRANCH   3   5
BRANCH   1  14
ATOM     14  C   UNL     1       3.134   4.247  19.921  0.00  0.00    +0.000 C 
BRANCH  14  15
ATOM     15  N   UNL     1       3.587   4.391  18.534  0.00  0.00    +0.000 N 
ATOM     16  H   UNL     1       2.980   5.014  17.998  0.00  0.00    +0.000 HD
BRANCH  15  21
ATOM     17  C   UNL     1       6.847   4.885  16.752  0.00  0.00    +0.000 A 
ATOM     18  C   UNL     1       7.609   5.415  17.792  0.00  0.00    +0.000 A 
ATOM     19  C   UNL     1       7.051   5.574  19.057  0.00  0.00    +0.000 A 
ATOM     20  C   UNL     1       5.725   5.198  19.284  0.00  0.00    +0.000 A 
ATOM     21  C   UNL     1       4.937   4.648  18.262  0.00  0.00    +0.000 A 
ATOM     22  C   UNL     1       5.515   4.522  16.989  0.00  0.00    +0.000 A 
BRANCH  17  24
ATOM     23  C   UNL     1       6.713   4.528  14.404  0.00  0.00    +0.000 C 
ATOM     24  O   UNL     1       7.506   4.780  15.557  0.00  0.00    +0.000 OA
ENDBRANCH  17  24
ENDBRANCH  15  21
ENDBRANCH  14  15
ENDBRANCH   1  14
TORSDOF 6
ENDMDL
