MODEL 1
REMARK VINA RESULT:      -7.5      0.000      0.000
REMARK  Name = 
REMARK  5 active torsions:
REMARK  status: ('A' for Active; 'I' for Inactive)
REMARK    1  A    between atoms: C_1  and  C_2
REMARK    2  A    between atoms: C_2  and  N_3
REMARK    3  A    between atoms: C_5  and  C_6
REMARK    4  A    between atoms: C_6  and  O_8
REMARK    5  A    between atoms: C_20  and  O_21
REMARK                            x       y       z     vdW  Elec       q    Type
REMARK                         _______ _______ _______ _____ _____    ______ ____
ROOT
ATOM      1  N   UNL     1       0.666   9.215  20.673  0.00  0.00    +0.000 N 
ATOM      2  C   UNL     1       0.508  10.569  20.422  0.00  0.00    +0.000 A 
ATOM      3  C   UNL     1       1.017  11.238  19.375  0.00  0.00    +0.000 A 
ATOM      4  C   UNL     1       1.815  10.451  18.419  0.00  0.00    +0.000 A 
ATOM      5  O   UNL     1       2.302  10.995  17.428  0.00  0.00    +0.000 OA
ATOM      6  C   UNL     1       2.023   9.016  18.680  0.00  0.00    +0.000 A 
ATOM      7  C   UNL     1       2.801   8.268  17.810  0.00  0.00    +0.000 A 
ATOM      8  C   UNL     1       2.992   6.927  18.086  0.00  0.00    +0.000 A 
ATOM      9  F   UNL     1       3.798   6.232  17.268  0.00  0.00    +0.000 F 
ATOM     10  C   UNL     1       2.407   6.338  19.217  0.00  0.00    +0.000 A 
ATOM     11  N   UNL     1       2.564   4.996  19.508  0.00  0.00    +0.000 N 
ATOM     12  C   UNL     1       2.522   4.535  20.892  0.00  0.00    +0.000 C 
ATOM     13  C   UNL     1       1.444   3.466  21.060  0.00  0.00    +0.000 C 
ATOM     14  C   UNL     1       1.619   2.337  20.047  0.00  0.00    +0.000 C 
ATOM     15  C   UNL     1       1.643   2.886  18.620  0.00  0.00    +0.000 C 
ATOM     16  C   UNL     1       2.710   3.986  18.462  0.00  0.00    +0.000 C 
ATOM     17  N   UNL     1       1.661   7.096  20.068  0.00  0.00    +0.000 NA
ATOM     18  C   UNL     1       1.455   8.416  19.809  0.00  0.00    +0.000 A 
ENDROOT
BRANCH   1  20
ATOM     19  C   UNL     1      -0.120   9.552  22.986  0.00  0.00    +0.000 C 
ATOM     20  C   UNL     1       0.109   8.553  21.860  0.00  0.00    +0.000 C 
ENDBRANCH   1  20
BRANCH   3  21
ATOM     21  C   UNL     1       0.773  12.688  19.231  0.00  0.00    +0.000 C 
ATOM     22  O   UNL     1       1.013  13.499  20.113  0.00  0.00    +0.000 OA
BRANCH  21  23
ATOM     23  O   UNL     1       0.262  13.054  18.036  0.00  0.00    +0.000 OA
ATOM     24  H   UNL     1      -0.673  13.370  18.071  0.00  0.00    +0.000 HD
ENDBRANCH  21  23
ENDBRANCH   3  21
BRANCH  15  25
ATOM     25  O   UNL     1       1.872   1.817  17.701  0.00  0.00    +0.000 OA
ATOM     26  H   UNL     1       1.969   2.196  16.811  0.00  0.00    +0.000 HD
ENDBRANCH  15  25
TORSDOF 4
ENDMDL
MODEL 2
REMARK VINA RESULT:      -7.5      2.264      6.684
REMARK  Name = 
REMARK  5 active torsions:
REMARK  status: ('A' for Active; 'I' for Inactive)
REMARK    1  A    between atoms: C_1  and  C_2
REMARK    2  A    between atoms: C_2  and  N_3
REMARK    3  A    between atoms: C_5  and  C_6
REMARK    4  A    between atoms: C_6  and  O_8
REMARK    5  A    between atoms: C_20  and  O_21
REMARK                            x       y       z     vdW  Elec       q    Type
REMARK                         _______ _______ _______ _____ _____    ______ ____
ROOT
ATOM      1  N   UNL     1       3.087   5.465  19.852  0.00  0.00    +0.000 N 
ATOM      2  C   UNL     1       3.997   4.721  19.116  0.00  0.00    +0.000 A 
ATOM      3  C   UNL     1       4.563   5.095  17.958  0.00  0.00    +0.000 A 
ATOM      4  C   UNL     1       4.173   6.416  17.433  0.00  0.00    +0.000 A 
ATOM      5  O   UNL     1       4.662   6.831  16.383  0.00  0.00    +0.000 OA
ATOM      6  C   UNL     1       3.185   7.212  18.181  0.00  0.00    +0.000 A 
ATOM      7  C   UNL     1       2.778   8.441  17.683  0.00  0.00    +0.000 A 
ATOM      8  C   UNL     1       1.839   9.162  18.397  0.00  0.00    +0.000 A 
ATOM      9  F   UNL     1       1.412  10.320  17.870  0.00  0.00    +0.000 F 
ATOM     10  C   UNL     1       1.315   8.663  19.599  0.00  0.00    +0.000 A 
ATOM     11  N   UNL     1       0.391   9.369  20.344  0.00  0.00    +0.000 N 
ATOM     12  C   UNL     1      -0.576   8.662  21.178  0.00  0.00    +0.000 C 
ATOM     13  C   UNL     1      -0.468   9.134  22.627  0.00  0.00    +0.000 C 
ATOM     14  C   UNL     1      -0.577  10.654  22.725  0.00  0.00    +0.000 C 
ATOM     15  C   UNL     1       0.468  11.332  21.839  0.00  0.00    +0.000 C 
ATOM     16  C   UNL     1       0.378  10.831  20.385  0.00  0.00    +0.000 C 
ATOM     17  N   UNL     1       1.716   7.445  20.061  0.00  0.00    +0.000 NA
ATOM     18  C   UNL     1       2.645   6.724  19.376  0.00  0.00    +0.000 A 
ENDROOT
BRANCH   1  20
ATOM     19  C   UNL     1       1.427   3.914  20.809  0.00  0.00    +0.000 C 
ATOM     20  C   UNL     1       2.478   4.977  21.096  0.00  0.00    +0.000 C 
ENDBRANCH   1  20
BRANCH   3  21
ATOM     21  C   UNL     1       5.519   4.199  17.274  0.00  0.00    +0.000 C 
ATOM     22  O   UNL     1       5.274   3.643  16.214  0.00  0.00    +0.000 OA
BRANCH  21  23
ATOM     23  O   UNL     1       6.696   4.041  17.916  0.00  0.00    +0.000 OA
ATOM     24  H   UNL     1       7.213   4.875  18.029  0.00  0.00    +0.000 HD
ENDBRANCH  21  23
ENDBRANCH   3  21
BRANCH  15  25
ATOM     25  O   UNL     1       0.301  12.748  21.901  0.00  0.00    +0.000 OA
ATOM     26  H   UNL     1       1.046  13.122  22.403  0.00  0.00    +0.000 HD
ENDBRANCH  15  25
TORSDOF 4
ENDMDL
MODEL 3
REMARK VINA RESULT:      -7.1      1.173      1.335
REMARK  Name = 
REMARK  5 active torsions:
REMARK  status: ('A' for Active; 'I' for Inactive)
REMARK    1  A    between atoms: C_1  and  C_2
REMARK    2  A    between atoms: C_2  and  N_3
REMARK    3  A    between atoms: C_5  and  C_6
REMARK    4  A    between atoms: C_6  and  O_8
REMARK    5  A    between atoms: C_20  and  O_21
REMARK                            x       y       z     vdW  Elec       q    Type
REMARK                         _______ _______ _______ _____ _____    ______ ____
ROOT
ATOM      1  N   UNL     1       0.019   9.880  20.988  0.00  0.00    +0.000 N 
ATOM      2  C   UNL     1      -0.306  11.228  20.943  0.00  0.00    +0.000 A 
ATOM      3  C   UNL     1       0.097  12.101  20.007  0.00  0.00    +0.000 A 
ATOM      4  C   UNL     1       0.962  11.568  18.940  0.00  0.00    +0.000 A 
ATOM      5  O   UNL     1       1.359  12.307  18.040  0.00  0.00    +0.000 OA
ATOM      6  C   UNL     1       1.346  10.146  18.983  0.00  0.00    +0.000 A 
ATOM      7  C   UNL     1       2.190   9.636  18.008  0.00  0.00    +0.000 A 
ATOM      8  C   UNL     1       2.546   8.302  18.080  0.00  0.00    +0.000 A 
ATOM      9  F   UNL     1       3.412   7.839  17.163  0.00  0.00    +0.000 F 
ATOM     10  C   UNL     1       2.061   7.485  19.112  0.00  0.00    +0.000 A 
ATOM     11  N   UNL     1       2.384   6.145  19.198  0.00  0.00    +0.000 N 
ATOM     12  C   UNL     1       2.428   5.481  20.497  0.00  0.00    +0.000 C 
ATOM     13  C   UNL     1       1.490   4.276  20.507  0.00  0.00    +0.000 C 
ATOM     14  C   UNL     1       1.778   3.339  19.336  0.00  0.00    +0.000 C 
ATOM     15  C   UNL     1       1.704   4.092  18.008  0.00  0.00    +0.000 C 
ATOM     16  C   UNL     1       2.628   5.325  18.012  0.00  0.00    +0.000 C 
ATOM     17  N   UNL     1       1.248   8.012  20.070  0.00  0.00    +0.000 NA
ATOM     18  C   UNL     1       0.880   9.321  20.012  0.00  0.00    +0.000 A 
ENDROOT
BRANCH   1  20
ATOM     19  C   UNL     1      -0.105   9.574  23.432  0.00  0.00    +0.000 C 
ATOM     20  C   UNL     1      -0.428   8.987  22.065  0.00  0.00    +0.000 C 
ENDBRANCH   1  20
BRANCH   3  21
ATOM     21  C   UNL     1      -0.323  13.516  20.082  0.00  0.00    +0.000 C 
ATOM     22  O   UNL     1      -0.111  14.227  21.054  0.00  0.00    +0.000 OA
BRANCH  21  23
ATOM     23  O   UNL     1      -0.961  13.970  18.983  0.00  0.00    +0.000 OA
ATOM     24  H   UNL     1      -1.554  14.743  19.146  0.00  0.00    +0.000 HD
ENDBRANCH  21  23
ENDBRANCH   3  21
BRANCH  15  25
ATOM     25  O   UNL     1       2.040   3.208  16.938  0.00  0.00    +0.000 OA
ATOM     26  H   UNL     1       1.727   2.317  17.170  0.00  0.00    +0.000 HD
ENDBRANCH  15  25
TORSDOF 4
ENDMDL
MODEL 4
REMARK VINA RESULT:      -6.5      2.723      3.949
REMARK  Name = 
REMARK  5 active torsions:
REMARK  status: ('A' for Active; 'I' for Inactive)
REMARK    1  A    between atoms: C_1  and  C_2
REMARK    2  A    between atoms: C_2  and  N_3
REMARK    3  A    between atoms: C_5  and  C_6
REMARK    4  A    between atoms: C_6  and  O_8
REMARK    5  A    between atoms: C_20  and  O_21
REMARK                            x       y       z     vdW  Elec       q    Type
REMARK                         _______ _______ _______ _____ _____    ______ ____
ROOT
ATOM      1  N   UNL     1       1.251  10.413  19.404  0.00  0.00    +0.000 N 
ATOM      2  C   UNL     1       0.415  11.230  20.150  0.00  0.00    +0.000 A 
ATOM      3  C   UNL     1      -0.237  10.874  21.267  0.00  0.00    +0.000 A 
ATOM      4  C   UNL     1      -0.041   9.489  21.729  0.00  0.00    +0.000 A 
ATOM      5  O   UNL     1      -0.598   9.096  22.754  0.00  0.00    +0.000 OA
ATOM      6  C   UNL     1       0.818   8.592  20.937  0.00  0.00    +0.000 A 
ATOM      7  C   UNL     1       0.984   7.275  21.337  0.00  0.00    +0.000 A 
ATOM      8  C   UNL     1       1.784   6.451  20.568  0.00  0.00    +0.000 A 
ATOM      9  F   UNL     1       1.885   5.163  20.935  0.00  0.00    +0.000 F 
ATOM     10  C   UNL     1       2.415   6.938  19.414  0.00  0.00    +0.000 A 
ATOM     11  N   UNL     1       3.236   6.143  18.636  0.00  0.00    +0.000 N 
ATOM     12  C   UNL     1       3.370   6.403  17.206  0.00  0.00    +0.000 C 
ATOM     13  C   UNL     1       4.839   6.620  16.845  0.00  0.00    +0.000 C 
ATOM     14  C   UNL     1       5.708   5.465  17.338  0.00  0.00    +0.000 C 
ATOM     15  C   UNL     1       5.529   5.254  18.841  0.00  0.00    +0.000 C 
ATOM     16  C   UNL     1       4.044   5.067  19.207  0.00  0.00    +0.000 C 
ATOM     17  N   UNL     1       2.223   8.231  19.030  0.00  0.00    +0.000 NA
ATOM     18  C   UNL     1       1.446   9.060  19.778  0.00  0.00    +0.000 A 
ENDROOT
BRANCH   1  20
ATOM     19  C   UNL     1       2.348  12.311  18.275  0.00  0.00    +0.000 C 
ATOM     20  C   UNL     1       1.907  10.858  18.167  0.00  0.00    +0.000 C 
ENDBRANCH   1  20
BRANCH   3  21
ATOM     21  C   UNL     1      -1.102  11.850  21.964  0.00  0.00    +0.000 C 
ATOM     22  O   UNL     1      -2.054  12.400  21.431  0.00  0.00    +0.000 OA
BRANCH  21  23
ATOM     23  O   UNL     1      -0.760  12.084  23.249  0.00  0.00    +0.000 OA
ATOM     24  H   UNL     1       0.168  12.397  23.372  0.00  0.00    +0.000 HD
ENDBRANCH  21  23
ENDBRANCH   3  21
BRANCH  15  25
ATOM     25  O   UNL     1       6.303   4.130  19.261  0.00  0.00    +0.000 OA
ATOM     26  H   UNL     1       7.207   4.238  18.920  0.00  0.00    +0.000 HD
ENDBRANCH  15  25
TORSDOF 4
ENDMDL
MODEL 5
REMARK VINA RESULT:      -6.4      3.762      7.454
REMARK  Name = 
REMARK  5 active torsions:
REMARK  status: ('A' for Active; 'I' for Inactive)
REMARK    1  A    between atoms: C_1  and  C_2
REMARK    2  A    between atoms: C_2  and  N_3
REMARK    3  A    between atoms: C_5  and  C_6
REMARK    4  A    between atoms: C_6  and  O_8
REMARK    5  A    between atoms: C_20  and  O_21
REMARK                            x       y       z     vdW  Elec       q    Type
REMARK                         _______ _______ _______ _____ _____    ______ ____
ROOT
ATOM      1  N   UNL     1       1.466  10.121  18.657  0.00  0.00    +0.000 N 
ATOM      2  C   UNL     1       2.171   9.095  18.047  0.00  0.00    +0.000 A 
ATOM      3  C   UNL     1       2.410   7.885  18.576  0.00  0.00    +0.000 A 
ATOM      4  C   UNL     1       1.872   7.640  19.925  0.00  0.00    +0.000 A 
ATOM      5  O   UNL     1       2.041   6.549  20.468  0.00  0.00    +0.000 OA
ATOM      6  C   UNL     1       1.145   8.726  20.607  0.00  0.00    +0.000 A 
ATOM      7  C   UNL     1       0.664   8.525  21.892  0.00  0.00    +0.000 A 
ATOM      8  C   UNL     1      -0.002   9.565  22.513  0.00  0.00    +0.000 A 
ATOM      9  F   UNL     1      -0.407   9.375  23.779  0.00  0.00    +0.000 F 
ATOM     10  C   UNL     1      -0.189  10.790  21.857  0.00  0.00    +0.000 A 
ATOM     11  N   UNL     1      -0.868  11.840  22.445  0.00  0.00    +0.000 N 
ATOM     12  C   UNL     1      -0.544  13.218  22.088  0.00  0.00    +0.000 C 
ATOM     13  C   UNL     1      -1.793  13.942  21.589  0.00  0.00    +0.000 C 
ATOM     14  C   UNL     1      -2.939  13.827  22.591  0.00  0.00    +0.000 C 
ATOM     15  C   UNL     1      -3.234  12.363  22.912  0.00  0.00    +0.000 C 
ATOM     16  C   UNL     1      -1.967  11.626  23.386  0.00  0.00    +0.000 C 
ATOM     17  N   UNL     1       0.308  10.971  20.601  0.00  0.00    +0.000 NA
ATOM     18  C   UNL     1       0.959   9.957  19.970  0.00  0.00    +0.000 A 
ENDROOT
BRANCH   1  20
ATOM     19  C   UNL     1       2.540  12.274  18.116  0.00  0.00    +0.000 C 
ATOM     20  C   UNL     1       1.271  11.437  18.033  0.00  0.00    +0.000 C 
ENDBRANCH   1  20
BRANCH   3  21
ATOM     21  C   UNL     1       3.183   6.881  17.814  0.00  0.00    +0.000 C 
ATOM     22  O   UNL     1       4.204   7.149  17.198  0.00  0.00    +0.000 OA
BRANCH  21  23
ATOM     23  O   UNL     1       2.672   5.633  17.854  0.00  0.00    +0.000 OA
ATOM     24  H   UNL     1       2.593   5.253  18.762  0.00  0.00    +0.000 HD
ENDBRANCH  21  23
ENDBRANCH   3  21
BRANCH  15  25
ATOM     25  O   UNL     1      -4.265  12.289  23.899  0.00  0.00    +0.000 OA
ATOM     26  H   UNL     1      -4.830  13.075  23.808  0.00  0.00    +0.000 HD
ENDBRANCH  15  25
TORSDOF 4
ENDMDL
MODEL 6
REMARK VINA RESULT:      -6.2      2.524      7.428
REMARK  Name = 
REMARK  5 active torsions:
REMARK  status: ('A' for Active; 'I' for Inactive)
REMARK    1  A    between atoms: C_1  and  C_2
REMARK    2  A    between atoms: C_2  and  N_3
REMARK    3  A    between atoms: C_5  and  C_6
REMARK    4  A    between atoms: C_6  and  O_8
REMARK    5  A    between atoms: C_20  and  O_21
REMARK                            x       y       z     vdW  Elec       q    Type
REMARK                         _______ _______ _______ _____ _____    ______ ____
ROOT
ATOM      1  N   UNL     1       3.245   6.670  18.414  0.00  0.00    +0.000 N 
ATOM      2  C   UNL     1       3.682   5.361  18.557  0.00  0.00    +0.000 A 
ATOM      3  C   UNL     1       3.303   4.508  19.521  0.00  0.00    +0.000 A 
ATOM      4  C   UNL     1       2.338   5.022  20.510  0.00  0.00    +0.000 A 
ATOM      5  O   UNL     1       1.935   4.292  21.414  0.00  0.00    +0.000 OA
ATOM      6  C   UNL     1       1.882   6.418  20.397  0.00  0.00    +0.000 A 
ATOM      7  C   UNL     1       1.003   6.929  21.340  0.00  0.00    +0.000 A 
ATOM      8  C   UNL     1       0.603   8.247  21.219  0.00  0.00    +0.000 A 
ATOM      9  F   UNL     1      -0.200   8.743  22.174  0.00  0.00    +0.000 F 
ATOM     10  C   UNL     1       1.072   9.044  20.165  0.00  0.00    +0.000 A 
ATOM     11  N   UNL     1       0.674  10.358  20.007  0.00  0.00    +0.000 N 
ATOM     12  C   UNL     1       1.561  11.323  19.366  0.00  0.00    +0.000 C 
ATOM     13  C   UNL     1       0.864  11.969  18.170  0.00  0.00    +0.000 C 
ATOM     14  C   UNL     1      -0.489  12.556  18.566  0.00  0.00    +0.000 C 
ATOM     15  C   UNL     1      -1.372  11.493  19.219  0.00  0.00    +0.000 C 
ATOM     16  C   UNL     1      -0.655  10.821  20.405  0.00  0.00    +0.000 C 
ATOM     17  N   UNL     1       1.949   8.527  19.259  0.00  0.00    +0.000 NA
ATOM     18  C   UNL     1       2.349   7.230  19.357  0.00  0.00    +0.000 A 
ENDROOT
BRANCH   1  20
ATOM     19  C   UNL     1       4.815   6.886  16.524  0.00  0.00    +0.000 C 
ATOM     20  C   UNL     1       3.731   7.562  17.353  0.00  0.00    +0.000 C 
ENDBRANCH   1  20
BRANCH   3  21
ATOM     21  C   UNL     1       3.852   3.136  19.557  0.00  0.00    +0.000 C 
ATOM     22  O   UNL     1       5.040   2.895  19.709  0.00  0.00    +0.000 OA
BRANCH  21  23
ATOM     23  O   UNL     1       2.930   2.160  19.412  0.00  0.00    +0.000 OA
ATOM     24  H   UNL     1       2.044   2.378  19.788  0.00  0.00    +0.000 HD
ENDBRANCH  21  23
ENDBRANCH   3  21
BRANCH  15  25
ATOM     25  O   UNL     1      -2.602  12.085  19.635  0.00  0.00    +0.000 OA
ATOM     26  H   UNL     1      -3.169  12.193  18.853  0.00  0.00    +0.000 HD
ENDBRANCH  15  25
TORSDOF 4
ENDMDL
MODEL 7
REMARK VINA RESULT:      -6.1      5.568      8.962
REMARK  Name = 
REMARK  5 active torsions:
REMARK  status: ('A' for Active; 'I' for Inactive)
REMARK    1  A    between atoms: C_1  and  C_2
REMARK    2  A    between atoms: C_2  and  N_3
REMARK    3  A    between atoms: C_5  and  C_6
REMARK    4  A    between atoms: C_6  and  O_8
REMARK    5  A    between atoms: C_20  and  O_21
REMARK                            x       y       z     vdW  Elec       q    Type
REMARK                         _______ _______ _______ _____ _____    ______ ____
ROOT
ATOM      1  N   UNL     1      -2.202  11.220  18.269  0.00  0.00    +0.000 N 
ATOM      2  C   UNL     1      -0.977  10.670  17.924  0.00  0.00    +0.000 A 
ATOM      3  C   UNL     1       0.074  10.519  18.745  0.00  0.00    +0.000 A 
ATOM      4  C   UNL     1      -0.103  10.987  20.131  0.00  0.00    +0.000 A 
ATOM      5  O   UNL     1       0.814  10.869  20.944  0.00  0.00    +0.000 OA
ATOM      6  C   UNL     1      -1.385  11.604  20.513  0.00  0.00    +0.000 A 
ATOM      7  C   UNL     1      -1.556  12.083  21.804  0.00  0.00    +0.000 A 
ATOM      8  C   UNL     1      -2.764  12.670  22.132  0.00  0.00    +0.000 A 
ATOM      9  F   UNL     1      -2.891  13.183  23.366  0.00  0.00    +0.000 F 
ATOM     10  C   UNL     1      -3.792  12.773  21.183  0.00  0.00    +0.000 A 
ATOM     11  N   UNL     1      -5.016  13.337  21.487  0.00  0.00    +0.000 N 
ATOM     12  C   UNL     1      -5.802  13.994  20.448  0.00  0.00    +0.000 C 
ATOM     13  C   UNL     1      -7.189  13.362  20.355  0.00  0.00    +0.000 C 
ATOM     14  C   UNL     1      -7.880  13.338  21.717  0.00  0.00    +0.000 C 
ATOM     15  C   UNL     1      -7.012  12.627  22.754  0.00  0.00    +0.000 C 
ATOM     16  C   UNL     1      -5.603  13.246  22.824  0.00  0.00    +0.000 C 
ATOM     17  N   UNL     1      -3.596  12.311  19.916  0.00  0.00    +0.000 NA
ATOM     18  C   UNL     1      -2.416  11.724  19.576  0.00  0.00    +0.000 A 
ENDROOT
BRANCH   1  20
ATOM     19  C   UNL     1      -2.895  10.900  15.924  0.00  0.00    +0.000 C 
ATOM     20  C   UNL     1      -3.300  11.388  17.308  0.00  0.00    +0.000 C 
ENDBRANCH   1  20
BRANCH   3  21
ATOM     21  C   UNL     1       1.327   9.916  18.244  0.00  0.00    +0.000 C 
ATOM     22  O   UNL     1       1.678   8.778  18.516  0.00  0.00    +0.000 OA
BRANCH  21  23
ATOM     23  O   UNL     1       2.060  10.726  17.451  0.00  0.00    +0.000 OA
ATOM     24  H   UNL     1       3.012  10.792  17.704  0.00  0.00    +0.000 HD
ENDBRANCH  21  23
ENDBRANCH   3  21
BRANCH  15  25
ATOM     25  O   UNL     1      -7.654  12.676  24.028  0.00  0.00    +0.000 OA
ATOM     26  H   UNL     1      -7.459  13.538  24.435  0.00  0.00    +0.000 HD
ENDBRANCH  15  25
TORSDOF 4
ENDMDL
MODEL 8
REMARK VINA RESULT:      -6.0      4.896      8.634
REMARK  Name = 
REMARK  5 active torsions:
REMARK  status: ('A' for Active; 'I' for Inactive)
REMARK    1  A    between atoms: C_1  and  C_2
REMARK    2  A    between atoms: C_2  and  N_3
REMARK    3  A    between atoms: C_5  and  C_6
REMARK    4  A    between atoms: C_6  and  O_8
REMARK    5  A    between atoms: C_20  and  O_21
REMARK                            x       y       z     vdW  Elec       q    Type
REMARK                         _______ _______ _______ _____ _____    ______ ____
ROOT
ATOM      1  N   UNL     1      -1.264  11.016  18.541  0.00  0.00    +0.000 N 
ATOM      2  C   UNL     1      -0.220  10.183  18.166  0.00  0.00    +0.000 A 
ATOM      3  C   UNL     1       0.708   9.669  18.988  0.00  0.00    +0.000 A 
ATOM      4  C   UNL     1       0.598  10.032  20.411  0.00  0.00    +0.000 A 
ATOM      5  O   UNL     1       1.406   9.587  21.226  0.00  0.00    +0.000 OA
ATOM      6  C   UNL     1      -0.484  10.940  20.830  0.00  0.00    +0.000 A 
ATOM      7  C   UNL     1      -0.581  11.321  22.160  0.00  0.00    +0.000 A 
ATOM      8  C   UNL     1      -1.597  12.185  22.523  0.00  0.00    +0.000 A 
ATOM      9  F   UNL     1      -1.639  12.593  23.802  0.00  0.00    +0.000 F 
ATOM     10  C   UNL     1      -2.509  12.660  21.570  0.00  0.00    +0.000 A 
ATOM     11  N   UNL     1      -3.547  13.509  21.907  0.00  0.00    +0.000 N 
ATOM     12  C   UNL     1      -4.070  14.455  20.927  0.00  0.00    +0.000 C 
ATOM     13  C   UNL     1      -5.572  14.243  20.739  0.00  0.00    +0.000 C 
ATOM     14  C   UNL     1      -6.309  14.281  22.075  0.00  0.00    +0.000 C 
ATOM     15  C   UNL     1      -5.720  13.261  23.049  0.00  0.00    +0.000 C 
ATOM     16  C   UNL     1      -4.201  13.456  23.213  0.00  0.00    +0.000 C 
ATOM     17  N   UNL     1      -2.385  12.286  20.265  0.00  0.00    +0.000 NA
ATOM     18  C   UNL     1      -1.396  11.430  19.890  0.00  0.00    +0.000 A 
ENDROOT
BRANCH   1  20
ATOM     19  C   UNL     1      -2.558  10.561  16.492  0.00  0.00    +0.000 C 
ATOM     20  C   UNL     1      -2.225  11.572  17.581  0.00  0.00    +0.000 C 
ENDBRANCH   1  20
BRANCH   3  21
ATOM     21  C   UNL     1       1.772   8.794  18.451  0.00  0.00    +0.000 C 
ATOM     22  O   UNL     1       2.282   8.957  17.353  0.00  0.00    +0.000 OA
BRANCH  21  23
ATOM     23  O   UNL     1       2.144   7.793  19.278  0.00  0.00    +0.000 OA
ATOM     24  H   UNL     1       1.667   6.942  19.126  0.00  0.00    +0.000 HD
ENDBRANCH  21  23
ENDBRANCH   3  21
BRANCH  15  25
ATOM     25  O   UNL     1      -6.386  13.363  24.308  0.00  0.00    +0.000 OA
ATOM     26  H   UNL     1      -5.744  13.163  25.010  0.00  0.00    +0.000 HD
ENDBRANCH  15  25
TORSDOF 4
ENDMDL
MODEL 9
REMARK VINA RESULT:      -6.0      6.234      9.700
REMARK  Name = 
REMARK  5 active torsions:
REMARK  status: ('A' for Active; 'I' for Inactive)
REMARK    1  A    between atoms: C_1  and  C_2
REMARK    2  A    between atoms: C_2  and  N_3
REMARK    3  A    between atoms: C_5  and  C_6
REMARK    4  A    between atoms: C_6  and  O_8
REMARK    5  A    between atoms: C_20  and  O_21
REMARK                            x       y       z     vdW  Elec       q    Type
REMARK                         _______ _______ _______ _____ _____    ______ ____
ROOT
ATOM      1  N   UNL     1      -1.891  12.072  19.111  0.00  0.00    +0.000 N 
ATOM      2  C   UNL     1      -1.965  11.539  17.833  0.00  0.00    +0.000 A 
ATOM      3  C   UNL     1      -3.094  11.232  17.175  0.00  0.00    +0.000 A 
ATOM      4  C   UNL     1      -4.358  11.486  17.887  0.00  0.00    +0.000 A 
ATOM      5  O   UNL     1      -5.434  11.241  17.340  0.00  0.00    +0.000 OA
ATOM      6  C   UNL     1      -4.305  12.024  19.258  0.00  0.00    +0.000 A 
ATOM      7  C   UNL     1      -5.485  12.235  19.956  0.00  0.00    +0.000 A 
ATOM      8  C   UNL     1      -5.405  12.726  21.245  0.00  0.00    +0.000 A 
ATOM      9  F   UNL     1      -6.553  12.867  21.929  0.00  0.00    +0.000 F 
ATOM     10  C   UNL     1      -4.162  13.008  21.830  0.00  0.00    +0.000 A 
ATOM     11  N   UNL     1      -4.053  13.519  23.109  0.00  0.00    +0.000 N 
ATOM     12  C   UNL     1      -2.870  13.234  23.916  0.00  0.00    +0.000 C 
ATOM     13  C   UNL     1      -2.212  14.537  24.367  0.00  0.00    +0.000 C 
ATOM     14  C   UNL     1      -3.216  15.454  25.062  0.00  0.00    +0.000 C 
ATOM     15  C   UNL     1      -4.422  15.721  24.161  0.00  0.00    +0.000 C 
ATOM     16  C   UNL     1      -5.065  14.405  23.682  0.00  0.00    +0.000 C 
ATOM     17  N   UNL     1      -3.015  12.776  21.132  0.00  0.00    +0.000 NA
ATOM     18  C   UNL     1      -3.073  12.300  19.858  0.00  0.00    +0.000 A 
ENDROOT
BRANCH   1  20
ATOM     19  C   UNL     1       0.139  11.063  20.083  0.00  0.00    +0.000 C 
ATOM     20  C   UNL     1      -0.617  12.351  19.787  0.00  0.00    +0.000 C 
ENDBRANCH   1  20
BRANCH   3  21
ATOM     21  C   UNL     1      -3.027  10.664  15.812  0.00  0.00    +0.000 C 
ATOM     22  O   UNL     1      -2.601   9.544  15.573  0.00  0.00    +0.000 OA
BRANCH  21  23
ATOM     23  O   UNL     1      -3.482  11.484  14.841  0.00  0.00    +0.000 OA
ATOM     24  H   UNL     1      -2.773  11.942  14.329  0.00  0.00    +0.000 HD
ENDBRANCH  21  23
ENDBRANCH   3  21
BRANCH  15  25
ATOM     25  O   UNL     1      -5.371  16.527  24.860  0.00  0.00    +0.000 OA
ATOM     26  H   UNL     1      -5.013  17.428  24.930  0.00  0.00    +0.000 HD
ENDBRANCH  15  25
TORSDOF 4
ENDMDL
