MODEL 1
REMARK VINA RESULT:      -7.3      0.000      0.000
REMARK  Name = 
REMARK  7 active torsions:
REMARK  status: ('A' for Active; 'I' for Inactive)
REMARK    1  A    between atoms: C_1  and  C_2
REMARK    2  A    between atoms: C_2  and  O_3
REMARK    3  A    between atoms: O_3  and  C_4
REMARK    4  A    between atoms: C_4  and  C_5
REMARK    5  A    between atoms: C_5  and  C_6
REMARK    6  A    between atoms: C_8  and  C_9
REMARK    7  A    between atoms: C_13  and  N_14
REMARK                            x       y       z     vdW  Elec       q    Type
REMARK                         _______ _______ _______ _____ _____    ______ ____
ROOT
ATOM      1  C   UNL     1       6.095   4.859  15.935  0.00  0.00    +0.000 A 
ATOM      2  C   UNL     1       7.131   4.685  16.850  0.00  0.00    +0.000 A 
ATOM      3  N   UNL     1       6.973   4.495  18.177  0.00  0.00    +0.000 NA
ATOM      4  C   UNL     1       5.698   4.460  18.636  0.00  0.00    +0.000 A 
ATOM      5  C   UNL     1       4.551   4.623  17.858  0.00  0.00    +0.000 A 
ATOM      6  C   UNL     1       4.800   4.799  16.487  0.00  0.00    +0.000 A 
ENDROOT
BRANCH   5   7
ATOM      7  N   UNL     1       3.274   4.616  18.370  0.00  0.00    +0.000 N 
ATOM      8  C   UNL     1       2.795   5.649  19.294  0.00  0.00    +0.000 C 
ATOM      9  C   UNL     1       1.790   4.928  20.179  0.00  0.00    +0.000 C 
ATOM     10  C   UNL     1       2.409   4.163  21.339  0.00  0.00    +0.000 C 
ATOM     11  N   UNL     1       1.485   3.047  21.579  0.00  0.00    +0.000 NA
ATOM     12  C   UNL     1       0.800   2.758  20.307  0.00  0.00    +0.000 C 
ATOM     13  C   UNL     1       1.236   3.816  19.307  0.00  0.00    +0.000 C 
ATOM     14  C   UNL     1       2.441   3.408  18.446  0.00  0.00    +0.000 C 
ATOM     15  H   UNL     1       0.795   3.330  22.275  0.00  0.00    +0.000 HD
ENDBRANCH   5   7
BRANCH   1  18
ATOM     16  C   UNL     1       6.706   3.909  13.567  0.00  0.00    +0.000 C 
ATOM     17  C   UNL     1       7.772   4.925  13.876  0.00  0.00    +0.000 C 
ATOM     18  C   UNL     1       6.395   5.094  14.468  0.00  0.00    +0.000 C 
BRANCH  16  19
ATOM     19  C   UNL     1       6.186   3.836  12.156  0.00  0.00    +0.000 C 
BRANCH  19  20
ATOM     20  C   UNL     1       5.020   2.863  11.996  0.00  0.00    +0.000 C 
BRANCH  20  21
ATOM     21  O   UNL     1       3.846   3.572  11.606  0.00  0.00    +0.000 OA
BRANCH  21  23
ATOM     22  C   UNL     1       2.855   4.256   9.539  0.00  0.00    +0.000 C 
ATOM     23  C   UNL     1       3.323   3.080  10.372  0.00  0.00    +0.000 C 
ENDBRANCH  21  23
ENDBRANCH  20  21
ENDBRANCH  19  20
ENDBRANCH  16  19
ENDBRANCH   1  18
TORSDOF 6
ENDMDL
MODEL 2
REMARK VINA RESULT:      -7.2      1.798      2.307
REMARK  Name = 
REMARK  7 active torsions:
REMARK  status: ('A' for Active; 'I' for Inactive)
REMARK    1  A    between atoms: C_1  and  C_2
REMARK    2  A    between atoms: C_2  and  O_3
REMARK    3  A    between atoms: O_3  and  C_4
REMARK    4  A    between atoms: C_4  and  C_5
REMARK    5  A    between atoms: C_5  and  C_6
REMARK    6  A    between atoms: C_8  and  C_9
REMARK    7  A    between atoms: C_13  and  N_14
REMARK                            x       y       z     vdW  Elec       q    Type
REMARK                         _______ _______ _______ _____ _____    ______ ____
ROOT
ATOM      1  C   UNL     1       6.097   5.267  16.384  0.00  0.00    +0.000 A 
ATOM      2  C   UNL     1       7.138   5.909  17.051  0.00  0.00    +0.000 A 
ATOM      3  N   UNL     1       7.256   6.011  18.392  0.00  0.00    +0.000 NA
ATOM      4  C   UNL     1       6.283   5.424  19.132  0.00  0.00    +0.000 A 
ATOM      5  C   UNL     1       5.172   4.750  18.622  0.00  0.00    +0.000 A 
ATOM      6  C   UNL     1       5.131   4.674  17.221  0.00  0.00    +0.000 A 
ENDROOT
BRANCH   5   7
ATOM      7  N   UNL     1       4.187   4.199  19.409  0.00  0.00    +0.000 N 
ATOM      8  C   UNL     1       4.295   2.849  19.970  0.00  0.00    +0.000 C 
ATOM      9  C   UNL     1       2.860   2.350  20.037  0.00  0.00    +0.000 C 
ATOM     10  C   UNL     1       2.332   1.776  18.730  0.00  0.00    +0.000 C 
ATOM     11  N   UNL     1       0.887   2.038  18.769  0.00  0.00    +0.000 NA
ATOM     12  C   UNL     1       0.675   3.223  19.620  0.00  0.00    +0.000 C 
ATOM     13  C   UNL     1       2.023   3.606  20.208  0.00  0.00    +0.000 C 
ATOM     14  C   UNL     1       2.790   4.656  19.391  0.00  0.00    +0.000 C 
ATOM     15  H   UNL     1       0.415   1.237  19.188  0.00  0.00    +0.000 HD
ENDBRANCH   5   7
BRANCH   1  18
ATOM     16  C   UNL     1       6.435   3.969  14.129  0.00  0.00    +0.000 C 
ATOM     17  C   UNL     1       7.297   5.197  14.014  0.00  0.00    +0.000 C 
ATOM     18  C   UNL     1       6.054   5.243  14.869  0.00  0.00    +0.000 C 
BRANCH  16  19
ATOM     19  C   UNL     1       5.682   3.516  12.906  0.00  0.00    +0.000 C 
BRANCH  19  20
ATOM     20  C   UNL     1       6.569   3.388  11.669  0.00  0.00    +0.000 C 
BRANCH  20  21
ATOM     21  O   UNL     1       6.975   2.031  11.501  0.00  0.00    +0.000 OA
BRANCH  21  23
ATOM     22  C   UNL     1       6.239  -0.242  11.382  0.00  0.00    +0.000 C 
ATOM     23  C   UNL     1       5.881   1.203  11.102  0.00  0.00    +0.000 C 
ENDBRANCH  21  23
ENDBRANCH  20  21
ENDBRANCH  19  20
ENDBRANCH  16  19
ENDBRANCH   1  18
TORSDOF 6
ENDMDL
MODEL 3
REMARK VINA RESULT:      -7.2      1.448      1.779
REMARK  Name = 
REMARK  7 active torsions:
REMARK  status: ('A' for Active; 'I' for Inactive)
REMARK    1  A    between atoms: C_1  and  C_2
REMARK    2  A    between atoms: C_2  and  O_3
REMARK    3  A    between atoms: O_3  and  C_4
REMARK    4  A    between atoms: C_4  and  C_5
REMARK    5  A    between atoms: C_5  and  C_6
REMARK    6  A    between atoms: C_8  and  C_9
REMARK    7  A    between atoms: C_13  and  N_14
REMARK                            x       y       z     vdW  Elec       q    Type
REMARK                         _______ _______ _______ _____ _____    ______ ____
ROOT
ATOM      1  C   UNL     1       5.820   4.904  16.242  0.00  0.00    +0.000 A 
ATOM      2  C   UNL     1       6.915   4.859  17.103  0.00  0.00    +0.000 A 
ATOM      3  N   UNL     1       6.844   4.769  18.448  0.00  0.00    +0.000 NA
ATOM      4  C   UNL     1       5.600   4.705  18.985  0.00  0.00    +0.000 A 
ATOM      5  C   UNL     1       4.404   4.744  18.268  0.00  0.00    +0.000 A 
ATOM      6  C   UNL     1       4.564   4.821  16.875  0.00  0.00    +0.000 A 
ENDROOT
BRANCH   5   7
ATOM      7  N   UNL     1       3.161   4.712  18.856  0.00  0.00    +0.000 N 
ATOM      8  C   UNL     1       2.802   5.584  19.979  0.00  0.00    +0.000 C 
ATOM      9  C   UNL     1       1.805   4.769  20.788  0.00  0.00    +0.000 C 
ATOM     10  C   UNL     1       2.439   3.776  21.750  0.00  0.00    +0.000 C 
ATOM     11  N   UNL     1       1.461   2.684  21.850  0.00  0.00    +0.000 NA
ATOM     12  C   UNL     1       0.687   2.667  20.596  0.00  0.00    +0.000 C 
ATOM     13  C   UNL     1       1.132   3.864  19.772  0.00  0.00    +0.000 C 
ATOM     14  C   UNL     1       2.258   3.555  18.773  0.00  0.00    +0.000 C 
ATOM     15  H   UNL     1       0.831   2.873  22.629  0.00  0.00    +0.000 HD
ENDBRANCH   5   7
BRANCH   1  18
ATOM     16  C   UNL     1       6.253   3.786  13.908  0.00  0.00    +0.000 C 
ATOM     17  C   UNL     1       7.354   4.799  14.075  0.00  0.00    +0.000 C 
ATOM     18  C   UNL     1       6.024   5.035  14.746  0.00  0.00    +0.000 C 
BRANCH  16  19
ATOM     19  C   UNL     1       5.636   3.631  12.543  0.00  0.00    +0.000 C 
BRANCH  19  20
ATOM     20  C   UNL     1       6.637   3.185  11.480  0.00  0.00    +0.000 C 
BRANCH  20  21
ATOM     21  O   UNL     1       6.957   1.806  11.662  0.00  0.00    +0.000 OA
BRANCH  21  23
ATOM     22  C   UNL     1       6.205  -0.448  11.388  0.00  0.00    +0.000 C 
ATOM     23  C   UNL     1       6.133   0.967  10.852  0.00  0.00    +0.000 C 
ENDBRANCH  21  23
ENDBRANCH  20  21
ENDBRANCH  19  20
ENDBRANCH  16  19
ENDBRANCH   1  18
TORSDOF 6
ENDMDL
MODEL 4
REMARK VINA RESULT:      -7.1      1.637      2.335
REMARK  Name = 
REMARK  7 active torsions:
REMARK  status: ('A' for Active; 'I' for Inactive)
REMARK    1  A    between atoms: C_1  and  C_2
REMARK    2  A    between atoms: C_2  and  O_3
REMARK    3  A    between atoms: O_3  and  C_4
REMARK    4  A    between atoms: C_4  and  C_5
REMARK    5  A    between atoms: C_5  and  C_6
REMARK    6  A    between atoms: C_8  and  C_9
REMARK    7  A    between atoms: C_13  and  N_14
REMARK                            x       y       z     vdW  Elec       q    Type
REMARK                         _______ _______ _______ _____ _____    ______ ____
ROOT
ATOM      1  C   UNL     1       5.805   4.951  16.096  0.00  0.00    +0.000 A 
ATOM      2  C   UNL     1       6.667   5.724  16.871  0.00  0.00    +0.000 A 
ATOM      3  N   UNL     1       6.743   5.689  18.218  0.00  0.00    +0.000 NA
ATOM      4  C   UNL     1       5.919   4.818  18.850  0.00  0.00    +0.000 A 
ATOM      5  C   UNL     1       4.995   3.979  18.225  0.00  0.00    +0.000 A 
ATOM      6  C   UNL     1       4.989   4.062  16.823  0.00  0.00    +0.000 A 
ENDROOT
BRANCH   5   7
ATOM      7  N   UNL     1       4.150   3.133  18.907  0.00  0.00    +0.000 N 
ATOM      8  C   UNL     1       3.316   2.140  18.223  0.00  0.00    +0.000 C 
ATOM      9  C   UNL     1       2.075   2.022  19.094  0.00  0.00    +0.000 C 
ATOM     10  C   UNL     1       1.025   3.094  18.840  0.00  0.00    +0.000 C 
ATOM     11  N   UNL     1       0.350   3.262  20.133  0.00  0.00    +0.000 NA
ATOM     12  C   UNL     1       1.309   2.884  21.186  0.00  0.00    +0.000 C 
ATOM     13  C   UNL     1       2.555   2.355  20.495  0.00  0.00    +0.000 C 
ATOM     14  C   UNL     1       3.639   3.416  20.256  0.00  0.00    +0.000 C 
ATOM     15  H   UNL     1      -0.454   2.635  20.173  0.00  0.00    +0.000 HD
ENDBRANCH   5   7
BRANCH   1  18
ATOM     16  C   UNL     1       5.692   3.855  13.715  0.00  0.00    +0.000 C 
ATOM     17  C   UNL     1       6.945   4.689  13.710  0.00  0.00    +0.000 C 
ATOM     18  C   UNL     1       5.787   5.097  14.588  0.00  0.00    +0.000 C 
BRANCH  16  19
ATOM     19  C   UNL     1       4.851   3.834  12.466  0.00  0.00    +0.000 C 
BRANCH  19  20
ATOM     20  C   UNL     1       5.404   2.907  11.386  0.00  0.00    +0.000 C 
BRANCH  20  21
ATOM     21  O   UNL     1       5.713   1.634  11.950  0.00  0.00    +0.000 OA
BRANCH  21  23
ATOM     22  C   UNL     1       6.106  -0.641  11.327  0.00  0.00    +0.000 C 
ATOM     23  C   UNL     1       6.420   0.810  11.023  0.00  0.00    +0.000 C 
ENDBRANCH  21  23
ENDBRANCH  20  21
ENDBRANCH  19  20
ENDBRANCH  16  19
ENDBRANCH   1  18
TORSDOF 6
ENDMDL
MODEL 5
REMARK VINA RESULT:      -7.1      1.398      1.730
REMARK  Name = 
REMARK  7 active torsions:
REMARK  status: ('A' for Active; 'I' for Inactive)
REMARK    1  A    between atoms: C_1  and  C_2
REMARK    2  A    between atoms: C_2  and  O_3
REMARK    3  A    between atoms: O_3  and  C_4
REMARK    4  A    between atoms: C_4  and  C_5
REMARK    5  A    between atoms: C_5  and  C_6
REMARK    6  A    between atoms: C_8  and  C_9
REMARK    7  A    between atoms: C_13  and  N_14
REMARK                            x       y       z     vdW  Elec       q    Type
REMARK                         _______ _______ _______ _____ _____    ______ ____
ROOT
ATOM      1  C   UNL     1       6.283   4.646  15.045  0.00  0.00    +0.000 A 
ATOM      2  C   UNL     1       7.526   4.727  15.668  0.00  0.00    +0.000 A 
ATOM      3  N   UNL     1       7.731   4.695  17.002  0.00  0.00    +0.000 NA
ATOM      4  C   UNL     1       6.629   4.561  17.781  0.00  0.00    +0.000 A 
ATOM      5  C   UNL     1       5.315   4.473  17.319  0.00  0.00    +0.000 A 
ATOM      6  C   UNL     1       5.189   4.496  15.920  0.00  0.00    +0.000 A 
ENDROOT
BRANCH   5   7
ATOM      7  N   UNL     1       4.221   4.373  18.146  0.00  0.00    +0.000 N 
ATOM      8  C   UNL     1       4.311   3.828  19.504  0.00  0.00    +0.000 C 
ATOM      9  C   UNL     1       2.960   3.173  19.741  0.00  0.00    +0.000 C 
ATOM     10  C   UNL     1       2.836   1.766  19.175  0.00  0.00    +0.000 C 
ATOM     11  N   UNL     1       1.410   1.622  18.853  0.00  0.00    +0.000 NA
ATOM     12  C   UNL     1       0.879   2.970  18.586  0.00  0.00    +0.000 C 
ATOM     13  C   UNL     1       1.992   3.963  18.879  0.00  0.00    +0.000 C 
ATOM     14  C   UNL     1       2.836   4.339  17.652  0.00  0.00    +0.000 C 
ATOM     15  H   UNL     1       0.926   1.225  19.659  0.00  0.00    +0.000 HD
ENDBRANCH   5   7
BRANCH   1  18
ATOM     16  C   UNL     1       5.378   3.662  12.787  0.00  0.00    +0.000 C 
ATOM     17  C   UNL     1       6.870   3.753  12.612  0.00  0.00    +0.000 C 
ATOM     18  C   UNL     1       6.173   4.722  13.535  0.00  0.00    +0.000 C 
BRANCH  16  19
ATOM     19  C   UNL     1       4.505   4.018  11.613  0.00  0.00    +0.000 C 
BRANCH  19  20
ATOM     20  C   UNL     1       3.763   2.817  11.031  0.00  0.00    +0.000 C 
BRANCH  20  21
ATOM     21  O   UNL     1       2.867   3.249  10.008  0.00  0.00    +0.000 OA
BRANCH  21  23
ATOM     22  C   UNL     1       2.069   5.032   8.629  0.00  0.00    +0.000 C 
ATOM     23  C   UNL     1       3.133   4.596   9.615  0.00  0.00    +0.000 C 
ENDBRANCH  21  23
ENDBRANCH  20  21
ENDBRANCH  19  20
ENDBRANCH  16  19
ENDBRANCH   1  18
TORSDOF 6
ENDMDL
MODEL 6
REMARK VINA RESULT:      -6.9      1.065      1.334
REMARK  Name = 
REMARK  7 active torsions:
REMARK  status: ('A' for Active; 'I' for Inactive)
REMARK    1  A    between atoms: C_1  and  C_2
REMARK    2  A    between atoms: C_2  and  O_3
REMARK    3  A    between atoms: O_3  and  C_4
REMARK    4  A    between atoms: C_4  and  C_5
REMARK    5  A    between atoms: C_5  and  C_6
REMARK    6  A    between atoms: C_8  and  C_9
REMARK    7  A    between atoms: C_13  and  N_14
REMARK                            x       y       z     vdW  Elec       q    Type
REMARK                         _______ _______ _______ _____ _____    ______ ____
ROOT
ATOM      1  C   UNL     1       6.016   4.465  14.979  0.00  0.00    +0.000 A 
ATOM      2  C   UNL     1       7.062   4.818  15.829  0.00  0.00    +0.000 A 
ATOM      3  N   UNL     1       7.025   4.750  17.177  0.00  0.00    +0.000 NA
ATOM      4  C   UNL     1       5.876   4.288  17.729  0.00  0.00    +0.000 A 
ATOM      5  C   UNL     1       4.736   3.901  17.023  0.00  0.00    +0.000 A 
ATOM      6  C   UNL     1       4.861   3.984  15.627  0.00  0.00    +0.000 A 
ENDROOT
BRANCH   5   7
ATOM      7  N   UNL     1       3.576   3.471  17.625  0.00  0.00    +0.000 N 
ATOM      8  C   UNL     1       2.304   4.185  17.475  0.00  0.00    +0.000 C 
ATOM      9  C   UNL     1       1.574   3.939  18.786  0.00  0.00    +0.000 C 
ATOM     10  C   UNL     1       1.978   4.876  19.915  0.00  0.00    +0.000 C 
ATOM     11  N   UNL     1       1.775   4.088  21.138  0.00  0.00    +0.000 NA
ATOM     12  C   UNL     1       1.920   2.667  20.778  0.00  0.00    +0.000 C 
ATOM     13  C   UNL     1       2.091   2.596  19.269  0.00  0.00    +0.000 C 
ATOM     14  C   UNL     1       3.555   2.592  18.803  0.00  0.00    +0.000 C 
ATOM     15  H   UNL     1       0.830   4.250  21.485  0.00  0.00    +0.000 HD
ENDBRANCH   5   7
BRANCH   1  18
ATOM     16  C   UNL     1       6.217   3.366  12.605  0.00  0.00    +0.000 C 
ATOM     17  C   UNL     1       7.428   4.251  12.738  0.00  0.00    +0.000 C 
ATOM     18  C   UNL     1       6.163   4.611  13.478  0.00  0.00    +0.000 C 
BRANCH  16  19
ATOM     19  C   UNL     1       5.525   3.311  11.269  0.00  0.00    +0.000 C 
BRANCH  19  20
ATOM     20  C   UNL     1       4.024   3.055  11.381  0.00  0.00    +0.000 C 
BRANCH  20  21
ATOM     21  O   UNL     1       3.301   4.147  10.816  0.00  0.00    +0.000 OA
BRANCH  21  23
ATOM     22  C   UNL     1       2.144   5.050   8.927  0.00  0.00    +0.000 C 
ATOM     23  C   UNL     1       3.052   3.944   9.424  0.00  0.00    +0.000 C 
ENDBRANCH  21  23
ENDBRANCH  20  21
ENDBRANCH  19  20
ENDBRANCH  16  19
ENDBRANCH   1  18
TORSDOF 6
ENDMDL
MODEL 7
REMARK VINA RESULT:      -6.9      1.285      1.683
REMARK  Name = 
REMARK  7 active torsions:
REMARK  status: ('A' for Active; 'I' for Inactive)
REMARK    1  A    between atoms: C_1  and  C_2
REMARK    2  A    between atoms: C_2  and  O_3
REMARK    3  A    between atoms: O_3  and  C_4
REMARK    4  A    between atoms: C_4  and  C_5
REMARK    5  A    between atoms: C_5  and  C_6
REMARK    6  A    between atoms: C_8  and  C_9
REMARK    7  A    between atoms: C_13  and  N_14
REMARK                            x       y       z     vdW  Elec       q    Type
REMARK                         _______ _______ _______ _____ _____    ______ ____
ROOT
ATOM      1  C   UNL     1       5.625   5.009  15.789  0.00  0.00    +0.000 A 
ATOM      2  C   UNL     1       6.206   6.060  16.494  0.00  0.00    +0.000 A 
ATOM      3  N   UNL     1       6.114   6.244  17.829  0.00  0.00    +0.000 NA
ATOM      4  C   UNL     1       5.408   5.317  18.522  0.00  0.00    +0.000 A 
ATOM      5  C   UNL     1       4.761   4.211  17.968  0.00  0.00    +0.000 A 
ATOM      6  C   UNL     1       4.918   4.081  16.579  0.00  0.00    +0.000 A 
ENDROOT
BRANCH   5   7
ATOM      7  N   UNL     1       4.023   3.312  18.704  0.00  0.00    +0.000 N 
ATOM      8  C   UNL     1       3.278   2.213  18.080  0.00  0.00    +0.000 C 
ATOM      9  C   UNL     1       2.078   2.006  18.990  0.00  0.00    +0.000 C 
ATOM     10  C   UNL     1       0.918   2.955  18.727  0.00  0.00    +0.000 C 
ATOM     11  N   UNL     1       0.261   3.104  20.033  0.00  0.00    +0.000 NA
ATOM     12  C   UNL     1       1.279   2.866  21.070  0.00  0.00    +0.000 C 
ATOM     13  C   UNL     1       2.556   2.440  20.364  0.00  0.00    +0.000 C 
ATOM     14  C   UNL     1       3.519   3.595  20.055  0.00  0.00    +0.000 C 
ATOM     15  H   UNL     1      -0.473   2.402  20.118  0.00  0.00    +0.000 HD
ENDBRANCH   5   7
BRANCH   1  18
ATOM     16  C   UNL     1       6.540   3.759  13.671  0.00  0.00    +0.000 C 
ATOM     17  C   UNL     1       7.079   5.161  13.570  0.00  0.00    +0.000 C 
ATOM     18  C   UNL     1       5.771   4.921  14.282  0.00  0.00    +0.000 C 
BRANCH  16  19
ATOM     19  C   UNL     1       6.075   3.088  12.406  0.00  0.00    +0.000 C 
BRANCH  19  20
ATOM     20  C   UNL     1       4.726   3.605  11.913  0.00  0.00    +0.000 C 
BRANCH  20  21
ATOM     21  O   UNL     1       4.141   2.660  11.019  0.00  0.00    +0.000 OA
BRANCH  21  23
ATOM     22  C   UNL     1       3.070   4.265   9.605  0.00  0.00    +0.000 C 
ATOM     23  C   UNL     1       2.865   3.101  10.554  0.00  0.00    +0.000 C 
ENDBRANCH  21  23
ENDBRANCH  20  21
ENDBRANCH  19  20
ENDBRANCH  16  19
ENDBRANCH   1  18
TORSDOF 6
ENDMDL
MODEL 8
REMARK VINA RESULT:      -6.9      1.501      2.556
REMARK  Name = 
REMARK  7 active torsions:
REMARK  status: ('A' for Active; 'I' for Inactive)
REMARK    1  A    between atoms: C_1  and  C_2
REMARK    2  A    between atoms: C_2  and  O_3
REMARK    3  A    between atoms: O_3  and  C_4
REMARK    4  A    between atoms: C_4  and  C_5
REMARK    5  A    between atoms: C_5  and  C_6
REMARK    6  A    between atoms: C_8  and  C_9
REMARK    7  A    between atoms: C_13  and  N_14
REMARK                            x       y       z     vdW  Elec       q    Type
REMARK                         _______ _______ _______ _____ _____    ______ ____
ROOT
ATOM      1  C   UNL     1       6.411   4.296  14.024  0.00  0.00    +0.000 A 
ATOM      2  C   UNL     1       7.373   5.224  14.416  0.00  0.00    +0.000 A 
ATOM      3  N   UNL     1       7.549   5.673  15.677  0.00  0.00    +0.000 NA
ATOM      4  C   UNL     1       6.726   5.160  16.625  0.00  0.00    +0.000 A 
ATOM      5  C   UNL     1       5.710   4.231  16.398  0.00  0.00    +0.000 A 
ATOM      6  C   UNL     1       5.601   3.801  15.065  0.00  0.00    +0.000 A 
ENDROOT
BRANCH   5   7
ATOM      7  N   UNL     1       4.872   3.762  17.383  0.00  0.00    +0.000 N 
ATOM      8  C   UNL     1       3.574   3.148  17.082  0.00  0.00    +0.000 C 
ATOM      9  C   UNL     1       2.701   3.503  18.276  0.00  0.00    +0.000 C 
ATOM     10  C   UNL     1       2.073   4.887  18.205  0.00  0.00    +0.000 C 
ATOM     11  N   UNL     1       1.930   5.298  19.608  0.00  0.00    +0.000 NA
ATOM     12  C   UNL     1       2.966   4.594  20.384  0.00  0.00    +0.000 C 
ATOM     13  C   UNL     1       3.670   3.637  19.436  0.00  0.00    +0.000 C 
ATOM     14  C   UNL     1       4.931   4.219  18.779  0.00  0.00    +0.000 C 
ATOM     15  H   UNL     1       1.010   5.015  19.945  0.00  0.00    +0.000 HD
ENDBRANCH   5   7
BRANCH   1  18
ATOM     16  C   UNL     1       4.999   3.240  12.080  0.00  0.00    +0.000 C 
ATOM     17  C   UNL     1       6.277   2.447  12.119  0.00  0.00    +0.000 C 
ATOM     18  C   UNL     1       6.286   3.887  12.569  0.00  0.00    +0.000 C 
BRANCH  16  19
ATOM     19  C   UNL     1       4.415   3.572  10.733  0.00  0.00    +0.000 C 
BRANCH  19  20
ATOM     20  C   UNL     1       3.016   2.996  10.526  0.00  0.00    +0.000 C 
BRANCH  20  21
ATOM     21  O   UNL     1       2.535   3.341   9.228  0.00  0.00    +0.000 OA
BRANCH  21  23
ATOM     22  C   UNL     1       1.852   5.534   8.563  0.00  0.00    +0.000 C 
ATOM     23  C   UNL     1       3.029   4.613   8.808  0.00  0.00    +0.000 C 
ENDBRANCH  21  23
ENDBRANCH  20  21
ENDBRANCH  19  20
ENDBRANCH  16  19
ENDBRANCH   1  18
TORSDOF 6
ENDMDL
MODEL 9
REMARK VINA RESULT:      -6.8      4.401      7.507
REMARK  Name = 
REMARK  7 active torsions:
REMARK  status: ('A' for Active; 'I' for Inactive)
REMARK    1  A    between atoms: C_1  and  C_2
REMARK    2  A    between atoms: C_2  and  O_3
REMARK    3  A    between atoms: O_3  and  C_4
REMARK    4  A    between atoms: C_4  and  C_5
REMARK    5  A    between atoms: C_5  and  C_6
REMARK    6  A    between atoms: C_8  and  C_9
REMARK    7  A    between atoms: C_13  and  N_14
REMARK                            x       y       z     vdW  Elec       q    Type
REMARK                         _______ _______ _______ _____ _____    ______ ____
ROOT
ATOM      1  C   UNL     1       2.102   7.629  19.435  0.00  0.00    +0.000 A 
ATOM      2  C   UNL     1       1.522   6.915  20.481  0.00  0.00    +0.000 A 
ATOM      3  N   UNL     1       1.830   5.644  20.819  0.00  0.00    +0.000 NA
ATOM      4  C   UNL     1       2.789   5.035  20.078  0.00  0.00    +0.000 A 
ATOM      5  C   UNL     1       3.461   5.605  18.997  0.00  0.00    +0.000 A 
ATOM      6  C   UNL     1       3.097   6.933  18.720  0.00  0.00    +0.000 A 
ENDROOT
BRANCH   5   7
ATOM      7  N   UNL     1       4.404   4.940  18.248  0.00  0.00    +0.000 N 
ATOM      8  C   UNL     1       5.706   4.547  18.797  0.00  0.00    +0.000 C 
ATOM      9  C   UNL     1       6.653   4.609  17.608  0.00  0.00    +0.000 C 
ATOM     10  C   UNL     1       7.190   6.000  17.305  0.00  0.00    +0.000 C 
ATOM     11  N   UNL     1       7.425   5.996  15.855  0.00  0.00    +0.000 NA
ATOM     12  C   UNL     1       6.500   5.015  15.259  0.00  0.00    +0.000 C 
ATOM     13  C   UNL     1       5.777   4.322  16.402  0.00  0.00    +0.000 C 
ATOM     14  C   UNL     1       4.434   4.965  16.778  0.00  0.00    +0.000 C 
ATOM     15  H   UNL     1       8.385   5.702  15.674  0.00  0.00    +0.000 HD
ENDBRANCH   5   7
BRANCH   1  18
ATOM     16  C   UNL     1       0.634   9.287  18.027  0.00  0.00    +0.000 C 
ATOM     17  C   UNL     1       2.049   9.777  17.871  0.00  0.00    +0.000 C 
ATOM     18  C   UNL     1       1.654   9.045  19.130  0.00  0.00    +0.000 C 
BRANCH  16  19
ATOM     19  C   UNL     1      -0.457  10.314  18.178  0.00  0.00    +0.000 C 
BRANCH  19  20
ATOM     20  C   UNL     1      -1.840   9.777  17.819  0.00  0.00    +0.000 C 
BRANCH  20  21
ATOM     21  O   UNL     1      -2.704  10.857  17.466  0.00  0.00    +0.000 OA
BRANCH  21  23
ATOM     22  C   UNL     1      -2.974   9.805  15.335  0.00  0.00    +0.000 C 
ATOM     23  C   UNL     1      -2.685  11.104  16.060  0.00  0.00    +0.000 C 
ENDBRANCH  21  23
ENDBRANCH  20  21
ENDBRANCH  19  20
ENDBRANCH  16  19
ENDBRANCH   1  18
TORSDOF 6
ENDMDL
