MODEL 1
REMARK VINA RESULT:      -6.8      0.000      0.000
REMARK  Name = 
REMARK  7 active torsions:
REMARK  status: ('A' for Active; 'I' for Inactive)
REMARK    1  A    between atoms: C_1  and  O_2
REMARK    2  A    between atoms: O_2  and  C_3
REMARK    3  A    between atoms: C_3  and  C_4
REMARK    4  A    between atoms: C_4  and  C_5
REMARK    5  A    between atoms: C_5  and  N_6
REMARK    6  A    between atoms: C_11  and  C_13
REMARK    7  A    between atoms: C_17  and  C_18
REMARK                            x       y       z     vdW  Elec       q    Type
REMARK                         _______ _______ _______ _____ _____    ______ ____
ROOT
ATOM      1  N   UNL     1       5.807   5.583  16.158  0.00  0.00    +0.000 NA
ATOM      2  C   UNL     1       6.606   4.438  16.659  0.00  0.00    +0.000 C 
ATOM      3  C   UNL     1       7.292   4.649  18.009  0.00  0.00    +0.000 C 
ATOM      4  C   UNL     1       6.410   4.940  19.217  0.00  0.00    +0.000 C 
ATOM      5  N   UNL     1       4.997   4.639  19.025  0.00  0.00    +0.000 N 
ATOM      6  C   UNL     1       4.468   3.446  19.556  0.00  0.00    +0.000 C 
ATOM      7  O   UNL     1       5.200   2.706  20.219  0.00  0.00    +0.000 OA
ATOM      8  C   UNL     1       4.280   5.662  18.268  0.00  0.00    +0.000 C 
ATOM      9  C   UNL     1       4.438   5.555  16.737  0.00  0.00    +0.000 C 
ENDROOT
BRANCH   6  10
ATOM     10  C   UNL     1       3.046   3.104  19.388  0.00  0.00    +0.000 A 
ATOM     11  S   UNL     1       2.473   2.282  17.991  0.00  0.00    +0.000 S 
ATOM     12  C   UNL     1       0.854   2.360  18.493  0.00  0.00    +0.000 A 
ATOM     13  C   UNL     1       0.757   2.801  19.787  0.00  0.00    +0.000 A 
ATOM     14  C   UNL     1       2.028   3.183  20.341  0.00  0.00    +0.000 A 
ATOM     15  C   UNL     1       2.178   3.607  21.766  0.00  0.00    +0.000 C 
ENDBRANCH   6  10
BRANCH   1  16
ATOM     16  C   UNL     1       5.700   5.430  14.673  0.00  0.00    +0.000 C 
BRANCH  16  17
ATOM     17  C   UNL     1       6.830   4.621  14.015  0.00  0.00    +0.000 C 
BRANCH  17  18
ATOM     18  C   UNL     1       6.289   3.573  13.045  0.00  0.00    +0.000 C 
BRANCH  18  20
ATOM     19  C   UNL     1       4.464   3.215  11.588  0.00  0.00    +0.000 C 
ATOM     20  O   UNL     1       4.921   3.870  12.760  0.00  0.00    +0.000 OA
ENDBRANCH  18  20
ENDBRANCH  17  18
ENDBRANCH  16  17
ENDBRANCH   1  16
TORSDOF 5
ENDMDL
MODEL 2
REMARK VINA RESULT:      -6.5      1.113      1.523
REMARK  Name = 
REMARK  7 active torsions:
REMARK  status: ('A' for Active; 'I' for Inactive)
REMARK    1  A    between atoms: C_1  and  O_2
REMARK    2  A    between atoms: O_2  and  C_3
REMARK    3  A    between atoms: C_3  and  C_4
REMARK    4  A    between atoms: C_4  and  C_5
REMARK    5  A    between atoms: C_5  and  N_6
REMARK    6  A    between atoms: C_11  and  C_13
REMARK    7  A    between atoms: C_17  and  C_18
REMARK                            x       y       z     vdW  Elec       q    Type
REMARK                         _______ _______ _______ _____ _____    ______ ____
ROOT
ATOM      1  N   UNL     1       5.883   5.483  16.063  0.00  0.00    +0.000 NA
ATOM      2  C   UNL     1       6.627   4.347  16.658  0.00  0.00    +0.000 C 
ATOM      3  C   UNL     1       7.363   4.649  17.965  0.00  0.00    +0.000 C 
ATOM      4  C   UNL     1       6.533   5.111  19.157  0.00  0.00    +0.000 C 
ATOM      5  N   UNL     1       5.101   4.878  19.028  0.00  0.00    +0.000 N 
ATOM      6  C   UNL     1       4.519   3.778  19.688  0.00  0.00    +0.000 C 
ATOM      7  O   UNL     1       5.226   3.064  20.405  0.00  0.00    +0.000 OA
ATOM      8  C   UNL     1       4.423   5.863  18.188  0.00  0.00    +0.000 C 
ATOM      9  C   UNL     1       4.532   5.596  16.673  0.00  0.00    +0.000 C 
ENDROOT
BRANCH   6  10
ATOM     10  C   UNL     1       3.075   3.507  19.586  0.00  0.00    +0.000 A 
ATOM     11  S   UNL     1       1.935   4.285  20.610  0.00  0.00    +0.000 S 
ATOM     12  C   UNL     1       0.625   3.417  19.971  0.00  0.00    +0.000 A 
ATOM     13  C   UNL     1       0.996   2.708  18.858  0.00  0.00    +0.000 A 
ATOM     14  C   UNL     1       2.406   2.796  18.587  0.00  0.00    +0.000 A 
ATOM     15  C   UNL     1       3.021   2.180  17.372  0.00  0.00    +0.000 C 
ENDBRANCH   6  10
BRANCH   1  16
ATOM     16  C   UNL     1       5.725   5.192  14.604  0.00  0.00    +0.000 C 
BRANCH  16  17
ATOM     17  C   UNL     1       6.349   3.868  14.130  0.00  0.00    +0.000 C 
BRANCH  17  18
ATOM     18  C   UNL     1       6.473   3.811  12.608  0.00  0.00    +0.000 C 
BRANCH  18  20
ATOM     19  C   UNL     1       5.539   2.005  11.406  0.00  0.00    +0.000 C 
ATOM     20  O   UNL     1       5.284   3.232  12.070  0.00  0.00    +0.000 OA
ENDBRANCH  18  20
ENDBRANCH  17  18
ENDBRANCH  16  17
ENDBRANCH   1  16
TORSDOF 5
ENDMDL
MODEL 3
REMARK VINA RESULT:      -6.5      3.297      4.848
REMARK  Name = 
REMARK  7 active torsions:
REMARK  status: ('A' for Active; 'I' for Inactive)
REMARK    1  A    between atoms: C_1  and  O_2
REMARK    2  A    between atoms: O_2  and  C_3
REMARK    3  A    between atoms: C_3  and  C_4
REMARK    4  A    between atoms: C_4  and  C_5
REMARK    5  A    between atoms: C_5  and  N_6
REMARK    6  A    between atoms: C_11  and  C_13
REMARK    7  A    between atoms: C_17  and  C_18
REMARK                            x       y       z     vdW  Elec       q    Type
REMARK                         _______ _______ _______ _____ _____    ______ ____
ROOT
ATOM      1  N   UNL     1       6.529   6.313  17.198  0.00  0.00    +0.000 NA
ATOM      2  C   UNL     1       5.494   6.251  16.138  0.00  0.00    +0.000 C 
ATOM      3  C   UNL     1       5.430   4.941  15.350  0.00  0.00    +0.000 C 
ATOM      4  C   UNL     1       5.134   3.662  16.122  0.00  0.00    +0.000 C 
ATOM      5  N   UNL     1       4.599   3.869  17.462  0.00  0.00    +0.000 N 
ATOM      6  C   UNL     1       3.214   3.727  17.680  0.00  0.00    +0.000 C 
ATOM      7  O   UNL     1       2.490   3.377  16.744  0.00  0.00    +0.000 OA
ATOM      8  C   UNL     1       5.617   4.216  18.449  0.00  0.00    +0.000 C 
ATOM      9  C   UNL     1       6.021   5.705  18.456  0.00  0.00    +0.000 C 
ENDROOT
BRANCH   6  10
ATOM     10  C   UNL     1       2.631   3.925  19.018  0.00  0.00    +0.000 A 
ATOM     11  S   UNL     1       2.505   2.638  20.149  0.00  0.00    +0.000 S 
ATOM     12  C   UNL     1       1.701   3.597  21.294  0.00  0.00    +0.000 A 
ATOM     13  C   UNL     1       1.713   4.918  20.931  0.00  0.00    +0.000 A 
ATOM     14  C   UNL     1       2.301   5.133  19.637  0.00  0.00    +0.000 A 
ATOM     15  C   UNL     1       2.506   6.503  19.075  0.00  0.00    +0.000 C 
ENDBRANCH   6  10
BRANCH   1  16
ATOM     16  C   UNL     1       6.817   7.759  17.450  0.00  0.00    +0.000 C 
BRANCH  16  17
ATOM     17  C   UNL     1       8.233   8.063  17.969  0.00  0.00    +0.000 C 
BRANCH  17  18
ATOM     18  C   UNL     1       8.457   9.561  18.166  0.00  0.00    +0.000 C 
BRANCH  18  20
ATOM     19  C   UNL     1       9.480  11.130  19.605  0.00  0.00    +0.000 C 
ATOM     20  O   UNL     1       9.143   9.767  19.401  0.00  0.00    +0.000 OA
ENDBRANCH  18  20
ENDBRANCH  17  18
ENDBRANCH  16  17
ENDBRANCH   1  16
TORSDOF 5
ENDMDL
MODEL 4
REMARK VINA RESULT:      -6.2      4.110      7.535
REMARK  Name = 
REMARK  7 active torsions:
REMARK  status: ('A' for Active; 'I' for Inactive)
REMARK    1  A    between atoms: C_1  and  O_2
REMARK    2  A    between atoms: O_2  and  C_3
REMARK    3  A    between atoms: C_3  and  C_4
REMARK    4  A    between atoms: C_4  and  C_5
REMARK    5  A    between atoms: C_5  and  N_6
REMARK    6  A    between atoms: C_11  and  C_13
REMARK    7  A    between atoms: C_17  and  C_18
REMARK                            x       y       z     vdW  Elec       q    Type
REMARK                         _______ _______ _______ _____ _____    ______ ____
ROOT
ATOM      1  N   UNL     1       1.471   6.789  20.205  0.00  0.00    +0.000 NA
ATOM      2  C   UNL     1       1.776   5.527  20.920  0.00  0.00    +0.000 C 
ATOM      3  C   UNL     1       1.243   4.250  20.268  0.00  0.00    +0.000 C 
ATOM      4  C   UNL     1       1.728   3.914  18.863  0.00  0.00    +0.000 C 
ATOM      5  N   UNL     1       2.909   4.653  18.435  0.00  0.00    +0.000 N 
ATOM      6  C   UNL     1       4.169   4.023  18.479  0.00  0.00    +0.000 C 
ATOM      7  O   UNL     1       4.239   2.842  18.829  0.00  0.00    +0.000 OA
ATOM      8  C   UNL     1       2.618   6.015  17.996  0.00  0.00    +0.000 C 
ATOM      9  C   UNL     1       2.479   7.040  19.141  0.00  0.00    +0.000 C 
ENDROOT
BRANCH   6  10
ATOM     10  C   UNL     1       5.388   4.731  18.053  0.00  0.00    +0.000 A 
ATOM     11  S   UNL     1       6.494   5.392  19.190  0.00  0.00    +0.000 S 
ATOM     12  C   UNL     1       7.478   6.066  17.985  0.00  0.00    +0.000 A 
ATOM     13  C   UNL     1       7.110   5.625  16.740  0.00  0.00    +0.000 A 
ATOM     14  C   UNL     1       5.932   4.803  16.768  0.00  0.00    +0.000 A 
ATOM     15  C   UNL     1       5.400   4.134  15.541  0.00  0.00    +0.000 C 
ENDBRANCH   6  10
BRANCH   1  16
ATOM     16  C   UNL     1       1.552   7.896  21.208  0.00  0.00    +0.000 C 
BRANCH  16  17
ATOM     17  C   UNL     1       0.245   8.678  21.428  0.00  0.00    +0.000 C 
BRANCH  17  18
ATOM     18  C   UNL     1       0.510  10.128  21.826  0.00  0.00    +0.000 C 
BRANCH  18  20
ATOM     19  C   UNL     1      -1.272  10.986  23.118  0.00  0.00    +0.000 C 
ATOM     20  O   UNL     1      -0.006  10.347  23.140  0.00  0.00    +0.000 OA
ENDBRANCH  18  20
ENDBRANCH  17  18
ENDBRANCH  16  17
ENDBRANCH   1  16
TORSDOF 5
ENDMDL
MODEL 5
REMARK VINA RESULT:      -6.2      3.296      4.826
REMARK  Name = 
REMARK  7 active torsions:
REMARK  status: ('A' for Active; 'I' for Inactive)
REMARK    1  A    between atoms: C_1  and  O_2
REMARK    2  A    between atoms: O_2  and  C_3
REMARK    3  A    between atoms: C_3  and  C_4
REMARK    4  A    between atoms: C_4  and  C_5
REMARK    5  A    between atoms: C_5  and  N_6
REMARK    6  A    between atoms: C_11  and  C_13
REMARK    7  A    between atoms: C_17  and  C_18
REMARK                            x       y       z     vdW  Elec       q    Type
REMARK                         _______ _______ _______ _____ _____    ______ ____
ROOT
ATOM      1  N   UNL     1       7.439   5.848  18.108  0.00  0.00    +0.000 NA
ATOM      2  C   UNL     1       6.725   6.023  16.821  0.00  0.00    +0.000 C 
ATOM      3  C   UNL     1       6.540   4.755  15.987  0.00  0.00    +0.000 C 
ATOM      4  C   UNL     1       5.751   3.607  16.605  0.00  0.00    +0.000 C 
ATOM      5  N   UNL     1       4.963   3.972  17.775  0.00  0.00    +0.000 N 
ATOM      6  C   UNL     1       3.577   4.185  17.634  0.00  0.00    +0.000 C 
ATOM      7  O   UNL     1       3.050   4.008  16.532  0.00  0.00    +0.000 OA
ATOM      8  C   UNL     1       5.751   4.075  19.001  0.00  0.00    +0.000 C 
ATOM      9  C   UNL     1       6.495   5.415  19.172  0.00  0.00    +0.000 C 
ENDROOT
BRANCH   6  10
ATOM     10  C   UNL     1       2.742   4.553  18.789  0.00  0.00    +0.000 A 
ATOM     11  S   UNL     1       2.692   6.161  19.395  0.00  0.00    +0.000 S 
ATOM     12  C   UNL     1       1.666   5.746  20.680  0.00  0.00    +0.000 A 
ATOM     13  C   UNL     1       1.190   4.469  20.542  0.00  0.00    +0.000 A 
ATOM     14  C   UNL     1       1.761   3.781  19.416  0.00  0.00    +0.000 A 
ATOM     15  C   UNL     1       1.320   2.410  19.016  0.00  0.00    +0.000 C 
ENDBRANCH   6  10
BRANCH   1  16
ATOM     16  C   UNL     1       8.003   7.181  18.486  0.00  0.00    +0.000 C 
BRANCH  16  17
ATOM     17  C   UNL     1       7.773   8.304  17.459  0.00  0.00    +0.000 C 
BRANCH  17  18
ATOM     18  C   UNL     1       8.221   9.663  17.992  0.00  0.00    +0.000 C 
BRANCH  18  20
ATOM     19  C   UNL     1       9.703  10.647  19.545  0.00  0.00    +0.000 C 
ATOM     20  O   UNL     1       9.035   9.461  19.148  0.00  0.00    +0.000 OA
ENDBRANCH  18  20
ENDBRANCH  17  18
ENDBRANCH  16  17
ENDBRANCH   1  16
TORSDOF 5
ENDMDL
MODEL 6
REMARK VINA RESULT:      -5.9      1.381      1.779
REMARK  Name = 
REMARK  7 active torsions:
REMARK  status: ('A' for Active; 'I' for Inactive)
REMARK    1  A    between atoms: C_1  and  O_2
REMARK    2  A    between atoms: O_2  and  C_3
REMARK    3  A    between atoms: C_3  and  C_4
REMARK    4  A    between atoms: C_4  and  C_5
REMARK    5  A    between atoms: C_5  and  N_6
REMARK    6  A    between atoms: C_11  and  C_13
REMARK    7  A    between atoms: C_17  and  C_18
REMARK                            x       y       z     vdW  Elec       q    Type
REMARK                         _______ _______ _______ _____ _____    ______ ____
ROOT
ATOM      1  N   UNL     1       6.467   4.922  15.507  0.00  0.00    +0.000 NA
ATOM      2  C   UNL     1       7.239   4.363  16.644  0.00  0.00    +0.000 C 
ATOM      3  C   UNL     1       7.538   5.338  17.784  0.00  0.00    +0.000 C 
ATOM      4  C   UNL     1       6.356   5.963  18.513  0.00  0.00    +0.000 C 
ATOM      5  N   UNL     1       5.079   5.302  18.281  0.00  0.00    +0.000 N 
ATOM      6  C   UNL     1       4.571   4.421  19.257  0.00  0.00    +0.000 C 
ATOM      7  O   UNL     1       5.193   4.270  20.312  0.00  0.00    +0.000 OA
ATOM      8  C   UNL     1       4.463   5.654  17.004  0.00  0.00    +0.000 C 
ATOM      9  C   UNL     1       5.009   4.870  15.793  0.00  0.00    +0.000 C 
ENDROOT
BRANCH   6  10
ATOM     10  C   UNL     1       3.283   3.734  19.064  0.00  0.00    +0.000 A 
ATOM     11  S   UNL     1       1.787   4.498  19.423  0.00  0.00    +0.000 S 
ATOM     12  C   UNL     1       0.881   3.112  19.055  0.00  0.00    +0.000 A 
ATOM     13  C   UNL     1       1.661   2.153  18.465  0.00  0.00    +0.000 A 
ATOM     14  C   UNL     1       3.050   2.522  18.410  0.00  0.00    +0.000 A 
ATOM     15  C   UNL     1       4.072   1.671  17.726  0.00  0.00    +0.000 C 
ENDBRANCH   6  10
BRANCH   1  16
ATOM     16  C   UNL     1       6.751   4.063  14.316  0.00  0.00    +0.000 C 
BRANCH  16  17
ATOM     17  C   UNL     1       5.588   3.923  13.318  0.00  0.00    +0.000 C 
BRANCH  17  18
ATOM     18  C   UNL     1       6.028   3.239  12.025  0.00  0.00    +0.000 C 
BRANCH  18  20
ATOM     19  C   UNL     1       3.842   3.286  11.130  0.00  0.00    +0.000 C 
ATOM     20  O   UNL     1       4.937   2.471  11.515  0.00  0.00    +0.000 OA
ENDBRANCH  18  20
ENDBRANCH  17  18
ENDBRANCH  16  17
ENDBRANCH   1  16
TORSDOF 5
ENDMDL
MODEL 7
REMARK VINA RESULT:      -5.9      3.934      6.965
REMARK  Name = 
REMARK  7 active torsions:
REMARK  status: ('A' for Active; 'I' for Inactive)
REMARK    1  A    between atoms: C_1  and  O_2
REMARK    2  A    between atoms: O_2  and  C_3
REMARK    3  A    between atoms: C_3  and  C_4
REMARK    4  A    between atoms: C_4  and  C_5
REMARK    5  A    between atoms: C_5  and  N_6
REMARK    6  A    between atoms: C_11  and  C_13
REMARK    7  A    between atoms: C_17  and  C_18
REMARK                            x       y       z     vdW  Elec       q    Type
REMARK                         _______ _______ _______ _____ _____    ______ ____
ROOT
ATOM      1  N   UNL     1       1.500   6.656  20.183  0.00  0.00    +0.000 NA
ATOM      2  C   UNL     1       1.770   5.369  20.869  0.00  0.00    +0.000 C 
ATOM      3  C   UNL     1       1.227   4.120  20.172  0.00  0.00    +0.000 C 
ATOM      4  C   UNL     1       1.733   3.815  18.767  0.00  0.00    +0.000 C 
ATOM      5  N   UNL     1       2.934   4.543  18.381  0.00  0.00    +0.000 N 
ATOM      6  C   UNL     1       4.182   3.891  18.430  0.00  0.00    +0.000 C 
ATOM      7  O   UNL     1       4.225   2.700  18.749  0.00  0.00    +0.000 OA
ATOM      8  C   UNL     1       2.674   5.923  17.975  0.00  0.00    +0.000 C 
ATOM      9  C   UNL     1       2.532   6.918  19.145  0.00  0.00    +0.000 C 
ENDROOT
BRANCH   6  10
ATOM     10  C   UNL     1       5.420   4.589  18.047  0.00  0.00    +0.000 A 
ATOM     11  S   UNL     1       6.392   5.409  19.203  0.00  0.00    +0.000 S 
ATOM     12  C   UNL     1       7.476   5.978  18.030  0.00  0.00    +0.000 A 
ATOM     13  C   UNL     1       7.244   5.391  16.814  0.00  0.00    +0.000 A 
ATOM     14  C   UNL     1       6.088   4.536  16.821  0.00  0.00    +0.000 A 
ATOM     15  C   UNL     1       5.697   3.718  15.632  0.00  0.00    +0.000 C 
ENDBRANCH   6  10
BRANCH   1  16
ATOM     16  C   UNL     1       1.581   7.733  21.218  0.00  0.00    +0.000 C 
BRANCH  16  17
ATOM     17  C   UNL     1       0.394   8.712  21.239  0.00  0.00    +0.000 C 
BRANCH  17  18
ATOM     18  C   UNL     1       0.668   9.956  20.395  0.00  0.00    +0.000 C 
BRANCH  18  20
ATOM     19  C   UNL     1      -1.169  11.212  19.605  0.00  0.00    +0.000 C 
ATOM     20  O   UNL     1      -0.350  10.072  19.400  0.00  0.00    +0.000 OA
ENDBRANCH  18  20
ENDBRANCH  17  18
ENDBRANCH  16  17
ENDBRANCH   1  16
TORSDOF 5
ENDMDL
MODEL 8
REMARK VINA RESULT:      -5.8      3.664      6.881
REMARK  Name = 
REMARK  7 active torsions:
REMARK  status: ('A' for Active; 'I' for Inactive)
REMARK    1  A    between atoms: C_1  and  O_2
REMARK    2  A    between atoms: O_2  and  C_3
REMARK    3  A    between atoms: C_3  and  C_4
REMARK    4  A    between atoms: C_4  and  C_5
REMARK    5  A    between atoms: C_5  and  N_6
REMARK    6  A    between atoms: C_11  and  C_13
REMARK    7  A    between atoms: C_17  and  C_18
REMARK                            x       y       z     vdW  Elec       q    Type
REMARK                         _______ _______ _______ _____ _____    ______ ____
ROOT
ATOM      1  N   UNL     1       1.651   6.179  20.078  0.00  0.00    +0.000 NA
ATOM      2  C   UNL     1       1.987   4.890  20.729  0.00  0.00    +0.000 C 
ATOM      3  C   UNL     1       1.299   3.654  20.147  0.00  0.00    +0.000 C 
ATOM      4  C   UNL     1       1.561   3.319  18.684  0.00  0.00    +0.000 C 
ATOM      5  N   UNL     1       2.706   4.003  18.098  0.00  0.00    +0.000 N 
ATOM      6  C   UNL     1       3.924   3.310  17.955  0.00  0.00    +0.000 C 
ATOM      7  O   UNL     1       3.981   2.121  18.279  0.00  0.00    +0.000 OA
ATOM      8  C   UNL     1       2.428   5.387  17.720  0.00  0.00    +0.000 C 
ATOM      9  C   UNL     1       2.508   6.397  18.883  0.00  0.00    +0.000 C 
ENDROOT
BRANCH   6  10
ATOM     10  C   UNL     1       5.106   3.963  17.366  0.00  0.00    +0.000 A 
ATOM     11  S   UNL     1       5.381   3.976  15.670  0.00  0.00    +0.000 S 
ATOM     12  C   UNL     1       6.873   4.767  15.822  0.00  0.00    +0.000 A 
ATOM     13  C   UNL     1       7.071   5.211  17.103  0.00  0.00    +0.000 A 
ATOM     14  C   UNL     1       6.025   4.802  18.000  0.00  0.00    +0.000 A 
ATOM     15  C   UNL     1       5.982   5.248  19.426  0.00  0.00    +0.000 C 
ENDBRANCH   6  10
BRANCH   1  16
ATOM     16  C   UNL     1       1.932   7.262  21.071  0.00  0.00    +0.000 C 
BRANCH  16  17
ATOM     17  C   UNL     1       0.960   8.454  21.033  0.00  0.00    +0.000 C 
BRANCH  17  18
ATOM     18  C   UNL     1       0.994   9.258  22.331  0.00  0.00    +0.000 C 
BRANCH  18  20
ATOM     19  C   UNL     1       0.708  10.904  20.662  0.00  0.00    +0.000 C 
ATOM     20  O   UNL     1       1.060  10.648  22.012  0.00  0.00    +0.000 OA
ENDBRANCH  18  20
ENDBRANCH  17  18
ENDBRANCH  16  17
ENDBRANCH   1  16
TORSDOF 5
ENDMDL
MODEL 9
REMARK VINA RESULT:      -5.8      1.269      1.836
REMARK  Name = 
REMARK  7 active torsions:
REMARK  status: ('A' for Active; 'I' for Inactive)
REMARK    1  A    between atoms: C_1  and  O_2
REMARK    2  A    between atoms: O_2  and  C_3
REMARK    3  A    between atoms: C_3  and  C_4
REMARK    4  A    between atoms: C_4  and  C_5
REMARK    5  A    between atoms: C_5  and  N_6
REMARK    6  A    between atoms: C_11  and  C_13
REMARK    7  A    between atoms: C_17  and  C_18
REMARK                            x       y       z     vdW  Elec       q    Type
REMARK                         _______ _______ _______ _____ _____    ______ ____
ROOT
ATOM      1  N   UNL     1       5.794   5.435  15.999  0.00  0.00    +0.000 NA
ATOM      2  C   UNL     1       6.569   4.331  16.614  0.00  0.00    +0.000 C 
ATOM      3  C   UNL     1       7.320   4.684  17.899  0.00  0.00    +0.000 C 
ATOM      4  C   UNL     1       6.502   5.166  19.091  0.00  0.00    +0.000 C 
ATOM      5  N   UNL     1       5.072   4.904  18.992  0.00  0.00    +0.000 N 
ATOM      6  C   UNL     1       4.521   3.813  19.694  0.00  0.00    +0.000 C 
ATOM      7  O   UNL     1       5.253   3.133  20.420  0.00  0.00    +0.000 OA
ATOM      8  C   UNL     1       4.362   5.851  18.136  0.00  0.00    +0.000 C 
ATOM      9  C   UNL     1       4.451   5.541  16.627  0.00  0.00    +0.000 C 
ENDROOT
BRANCH   6  10
ATOM     10  C   UNL     1       3.081   3.513  19.625  0.00  0.00    +0.000 A 
ATOM     11  S   UNL     1       1.942   4.306  20.638  0.00  0.00    +0.000 S 
ATOM     12  C   UNL     1       0.640   3.393  20.050  0.00  0.00    +0.000 A 
ATOM     13  C   UNL     1       1.007   2.652  18.957  0.00  0.00    +0.000 A 
ATOM     14  C   UNL     1       2.410   2.755  18.662  0.00  0.00    +0.000 A 
ATOM     15  C   UNL     1       3.019   2.107  17.460  0.00  0.00    +0.000 C 
ENDBRANCH   6  10
BRANCH   1  16
ATOM     16  C   UNL     1       5.618   5.098  14.552  0.00  0.00    +0.000 C 
BRANCH  16  17
ATOM     17  C   UNL     1       6.419   3.880  14.061  0.00  0.00    +0.000 C 
BRANCH  17  18
ATOM     18  C   UNL     1       6.296   3.688  12.551  0.00  0.00    +0.000 C 
BRANCH  18  20
ATOM     19  C   UNL     1       8.104   5.186  12.809  0.00  0.00    +0.000 C 
ATOM     20  O   UNL     1       7.206   4.573  11.898  0.00  0.00    +0.000 OA
ENDBRANCH  18  20
ENDBRANCH  17  18
ENDBRANCH  16  17
ENDBRANCH   1  16
TORSDOF 5
ENDMDL
