MODEL 1
REMARK VINA RESULT:      -9.1      0.000      0.000
REMARK  Name = 
REMARK  7 active torsions:
REMARK  status: ('A' for Active; 'I' for Inactive)
REMARK    1  A    between atoms: C_1  and  C_2
REMARK    2  A    between atoms: C_2  and  C_3
REMARK    3  A    between atoms: N_7  and  C_8
REMARK    4  A    between atoms: C_11  and  C_12
REMARK    5  A    between atoms: C_15  and  N_16
REMARK    6  A    between atoms: C_17  and  C_18
REMARK    7  A    between atoms: C_28  and  C_29
REMARK                            x       y       z     vdW  Elec       q    Type
REMARK                         _______ _______ _______ _____ _____    ______ ____
ROOT
ATOM      1  C   UNL     1       0.565  10.069  20.042  0.00  0.00    +0.000 A 
ATOM      2  C   UNL     1       1.129   9.760  18.803  0.00  0.00    +0.000 A 
ATOM      3  C   UNL     1       1.831   8.565  18.600  0.00  0.00    +0.000 A 
ATOM      4  C   UNL     1       2.005   7.625  19.624  0.00  0.00    +0.000 A 
ATOM      5  C   UNL     1       1.427   7.931  20.864  0.00  0.00    +0.000 A 
ATOM      6  C   UNL     1       0.723   9.129  21.068  0.00  0.00    +0.000 A 
ENDROOT
BRANCH   1  13
ATOM      7  C   UNL     1      -0.803  14.677  21.472  0.00  0.00    +0.000 C 
ATOM      8  C   UNL     1      -0.923  13.165  21.314  0.00  0.00    +0.000 C 
ATOM      9  C   UNL     1      -1.621  12.579  22.559  0.00  0.00    +0.000 C 
ATOM     10  O   UNL     1      -1.758  12.871  20.183  0.00  0.00    +0.000 OA
ATOM     11  C   UNL     1      -1.360  11.655  19.678  0.00  0.00    +0.000 C 
ATOM     12  O   UNL     1      -2.029  11.072  18.840  0.00  0.00    +0.000 OA
ATOM     13  N   UNL     1      -0.147  11.283  20.249  0.00  0.00    +0.000 N 
ATOM     14  C   UNL     1       0.376  12.406  20.999  0.00  0.00    +0.000 C 
BRANCH  14  15
ATOM     15  C   UNL     1       1.432  13.173  20.199  0.00  0.00    +0.000 A 
ATOM     16  C   UNL     1       1.327  13.367  18.809  0.00  0.00    +0.000 A 
ATOM     17  C   UNL     1       2.335  14.012  18.090  0.00  0.00    +0.000 A 
ATOM     18  C   UNL     1       3.460  14.491  18.750  0.00  0.00    +0.000 A 
ATOM     19  C   UNL     1       3.573  14.335  20.130  0.00  0.00    +0.000 A 
ATOM     20  C   UNL     1       2.566  13.683  20.851  0.00  0.00    +0.000 A 
ENDBRANCH  14  15
ENDBRANCH   1  13
BRANCH   4  21
ATOM     21  C   UNL     1       2.761   6.379  19.393  0.00  0.00    +0.000 A 
ATOM     22  C   UNL     1       2.590   5.251  20.193  0.00  0.00    +0.000 A 
ATOM     23  N   UNL     1       3.280   4.095  20.073  0.00  0.00    +0.000 NA
ATOM     24  C   UNL     1       4.182   4.010  19.075  0.00  0.00    +0.000 A 
ATOM     25  C   UNL     1       4.416   5.042  18.158  0.00  0.00    +0.000 A 
ATOM     26  C   UNL     1       3.699   6.240  18.363  0.00  0.00    +0.000 A 
BRANCH  25  27
ATOM     27  C   UNL     1       5.316   4.901  17.007  0.00  0.00    +0.000 A 
ATOM     28  N   UNL     1       4.919   4.101  15.988  0.00  0.00    +0.000 NA
ATOM     29  C   UNL     1       5.720   4.062  14.900  0.00  0.00    +0.000 A 
ATOM     30  C   UNL     1       6.874   4.793  14.791  0.00  0.00    +0.000 A 
ATOM     31  F   UNL     1       7.641   4.744  13.698  0.00  0.00    +0.000 F 
ATOM     32  C   UNL     1       7.194   5.585  15.863  0.00  0.00    +0.000 A 
ATOM     33  N   UNL     1       6.430   5.669  16.978  0.00  0.00    +0.000 NA
ENDBRANCH  25  27
BRANCH  24  34
ATOM     34  N   UNL     1       4.932   2.834  19.093  0.00  0.00    +0.000 N 
ATOM     35  H   UNL     1       5.524   2.829  18.266  0.00  0.00    +0.000 HD
ATOM     36  H   UNL     1       5.439   2.739  19.968  0.00  0.00    +0.000 HD
ENDBRANCH  24  34
ENDBRANCH   4  21
TORSDOF 5
ENDMDL
MODEL 2
REMARK VINA RESULT:      -9.1      3.731      9.208
REMARK  Name = 
REMARK  7 active torsions:
REMARK  status: ('A' for Active; 'I' for Inactive)
REMARK    1  A    between atoms: C_1  and  C_2
REMARK    2  A    between atoms: C_2  and  C_3
REMARK    3  A    between atoms: N_7  and  C_8
REMARK    4  A    between atoms: C_11  and  C_12
REMARK    5  A    between atoms: C_15  and  N_16
REMARK    6  A    between atoms: C_17  and  C_18
REMARK    7  A    between atoms: C_28  and  C_29
REMARK                            x       y       z     vdW  Elec       q    Type
REMARK                         _______ _______ _______ _____ _____    ______ ____
ROOT
ATOM      1  C   UNL     1       2.241   6.865  19.145  0.00  0.00    +0.000 A 
ATOM      2  C   UNL     1       2.321   7.600  17.961  0.00  0.00    +0.000 A 
ATOM      3  C   UNL     1       1.925   8.942  17.909  0.00  0.00    +0.000 A 
ATOM      4  C   UNL     1       1.429   9.613  19.035  0.00  0.00    +0.000 A 
ATOM      5  C   UNL     1       1.361   8.877  20.226  0.00  0.00    +0.000 A 
ATOM      6  C   UNL     1       1.758   7.531  20.279  0.00  0.00    +0.000 A 
ENDROOT
BRANCH   1  13
ATOM      7  C   UNL     1       4.121   2.342  18.069  0.00  0.00    +0.000 C 
ATOM      8  C   UNL     1       3.065   3.355  18.496  0.00  0.00    +0.000 C 
ATOM      9  C   UNL     1       1.685   2.897  17.980  0.00  0.00    +0.000 C 
ATOM     10  O   UNL     1       2.991   3.388  19.930  0.00  0.00    +0.000 OA
ATOM     11  C   UNL     1       2.576   4.648  20.295  0.00  0.00    +0.000 C 
ATOM     12  O   UNL     1       2.237   4.890  21.443  0.00  0.00    +0.000 OA
ATOM     13  N   UNL     1       2.642   5.502  19.199  0.00  0.00    +0.000 N 
ATOM     14  C   UNL     1       3.335   4.822  18.124  0.00  0.00    +0.000 C 
BRANCH  14  15
ATOM     15  C   UNL     1       4.805   5.242  18.049  0.00  0.00    +0.000 A 
ATOM     16  C   UNL     1       5.645   5.243  19.179  0.00  0.00    +0.000 A 
ATOM     17  C   UNL     1       6.963   5.693  19.100  0.00  0.00    +0.000 A 
ATOM     18  C   UNL     1       7.474   6.135  17.886  0.00  0.00    +0.000 A 
ATOM     19  C   UNL     1       6.670   6.117  16.748  0.00  0.00    +0.000 A 
ATOM     20  C   UNL     1       5.346   5.672  16.827  0.00  0.00    +0.000 A 
ENDBRANCH  14  15
ENDBRANCH   1  13
BRANCH   4  21
ATOM     21  C   UNL     1       1.003  11.024  18.956  0.00  0.00    +0.000 A 
ATOM     22  C   UNL     1      -0.338  11.396  19.023  0.00  0.00    +0.000 A 
ATOM     23  N   UNL     1      -0.804  12.660  18.909  0.00  0.00    +0.000 NA
ATOM     24  C   UNL     1       0.101  13.646  18.754  0.00  0.00    +0.000 A 
ATOM     25  C   UNL     1       1.483  13.426  18.729  0.00  0.00    +0.000 A 
ATOM     26  C   UNL     1       1.908  12.082  18.807  0.00  0.00    +0.000 A 
BRANCH  25  27
ATOM     27  C   UNL     1       2.466  14.514  18.675  0.00  0.00    +0.000 A 
ATOM     28  N   UNL     1       2.234  15.616  19.430  0.00  0.00    +0.000 NA
ATOM     29  C   UNL     1       3.199  16.561  19.436  0.00  0.00    +0.000 A 
ATOM     30  C   UNL     1       4.373  16.441  18.739  0.00  0.00    +0.000 A 
ATOM     31  F   UNL     1       5.315  17.388  18.772  0.00  0.00    +0.000 F 
ATOM     32  C   UNL     1       4.531  15.290  18.011  0.00  0.00    +0.000 A 
ATOM     33  N   UNL     1       3.602  14.305  17.969  0.00  0.00    +0.000 NA
ENDBRANCH  25  27
BRANCH  24  34
ATOM     34  N   UNL     1      -0.466  14.900  18.526  0.00  0.00    +0.000 N 
ATOM     35  H   UNL     1      -0.783  14.928  17.561  0.00  0.00    +0.000 HD
ATOM     36  H   UNL     1      -1.190  15.102  19.209  0.00  0.00    +0.000 HD
ENDBRANCH  24  34
ENDBRANCH   4  21
TORSDOF 5
ENDMDL
MODEL 3
REMARK VINA RESULT:      -9.1      3.723      9.222
REMARK  Name = 
REMARK  7 active torsions:
REMARK  status: ('A' for Active; 'I' for Inactive)
REMARK    1  A    between atoms: C_1  and  C_2
REMARK    2  A    between atoms: C_2  and  C_3
REMARK    3  A    between atoms: N_7  and  C_8
REMARK    4  A    between atoms: C_11  and  C_12
REMARK    5  A    between atoms: C_15  and  N_16
REMARK    6  A    between atoms: C_17  and  C_18
REMARK    7  A    between atoms: C_28  and  C_29
REMARK                            x       y       z     vdW  Elec       q    Type
REMARK                         _______ _______ _______ _____ _____    ______ ____
ROOT
ATOM      1  C   UNL     1       2.231   6.897  19.094  0.00  0.00    +0.000 A 
ATOM      2  C   UNL     1       1.749   7.569  20.219  0.00  0.00    +0.000 A 
ATOM      3  C   UNL     1       1.350   8.909  20.152  0.00  0.00    +0.000 A 
ATOM      4  C   UNL     1       1.415   9.642  18.960  0.00  0.00    +0.000 A 
ATOM      5  C   UNL     1       1.887   8.963  17.828  0.00  0.00    +0.000 A 
ATOM      6  C   UNL     1       2.288   7.619  17.895  0.00  0.00    +0.000 A 
ENDROOT
BRANCH   1  13
ATOM      7  C   UNL     1       4.114   2.366  18.057  0.00  0.00    +0.000 C 
ATOM      8  C   UNL     1       3.060   3.381  18.484  0.00  0.00    +0.000 C 
ATOM      9  C   UNL     1       1.675   2.910  17.994  0.00  0.00    +0.000 C 
ATOM     10  O   UNL     1       3.005   3.435  19.918  0.00  0.00    +0.000 OA
ATOM     11  C   UNL     1       2.591   4.698  20.271  0.00  0.00    +0.000 C 
ATOM     12  O   UNL     1       2.266   4.956  21.420  0.00  0.00    +0.000 OA
ATOM     13  N   UNL     1       2.638   5.536  19.162  0.00  0.00    +0.000 N 
ATOM     14  C   UNL     1       3.319   4.844  18.088  0.00  0.00    +0.000 C 
BRANCH  14  15
ATOM     15  C   UNL     1       4.786   5.268  17.986  0.00  0.00    +0.000 A 
ATOM     16  C   UNL     1       5.393   5.586  16.756  0.00  0.00    +0.000 A 
ATOM     17  C   UNL     1       6.750   5.904  16.680  0.00  0.00    +0.000 A 
ATOM     18  C   UNL     1       7.523   5.928  17.834  0.00  0.00    +0.000 A 
ATOM     19  C   UNL     1       6.938   5.645  19.066  0.00  0.00    +0.000 A 
ATOM     20  C   UNL     1       5.579   5.319  19.144  0.00  0.00    +0.000 A 
ENDBRANCH  14  15
ENDBRANCH   1  13
BRANCH   4  21
ATOM     21  C   UNL     1       1.003  11.059  18.913  0.00  0.00    +0.000 A 
ATOM     22  C   UNL     1      -0.330  11.446  19.029  0.00  0.00    +0.000 A 
ATOM     23  N   UNL     1      -0.785  12.716  18.946  0.00  0.00    +0.000 NA
ATOM     24  C   UNL     1       0.127  13.694  18.775  0.00  0.00    +0.000 A 
ATOM     25  C   UNL     1       1.504  13.458  18.703  0.00  0.00    +0.000 A 
ATOM     26  C   UNL     1       1.915  12.108  18.749  0.00  0.00    +0.000 A 
BRANCH  25  27
ATOM     27  C   UNL     1       2.498  14.536  18.631  0.00  0.00    +0.000 A 
ATOM     28  N   UNL     1       2.276  15.652  19.368  0.00  0.00    +0.000 NA
ATOM     29  C   UNL     1       3.250  16.588  19.359  0.00  0.00    +0.000 A 
ATOM     30  C   UNL     1       4.423  16.445  18.665  0.00  0.00    +0.000 A 
ATOM     31  F   UNL     1       5.374  17.383  18.683  0.00  0.00    +0.000 F 
ATOM     32  C   UNL     1       4.570  15.281  17.956  0.00  0.00    +0.000 A 
ATOM     33  N   UNL     1       3.632  14.305  17.929  0.00  0.00    +0.000 NA
ENDBRANCH  25  27
BRANCH  24  34
ATOM     34  N   UNL     1      -0.433  14.957  18.582  0.00  0.00    +0.000 N 
ATOM     35  H   UNL     1      -1.417  14.833  18.363  0.00  0.00    +0.000 HD
ATOM     36  H   UNL     1      -0.256  15.560  19.381  0.00  0.00    +0.000 HD
ENDBRANCH  24  34
ENDBRANCH   4  21
TORSDOF 5
ENDMDL
MODEL 4
REMARK VINA RESULT:      -9.0      0.140      1.170
REMARK  Name = 
REMARK  7 active torsions:
REMARK  status: ('A' for Active; 'I' for Inactive)
REMARK    1  A    between atoms: C_1  and  C_2
REMARK    2  A    between atoms: C_2  and  C_3
REMARK    3  A    between atoms: N_7  and  C_8
REMARK    4  A    between atoms: C_11  and  C_12
REMARK    5  A    between atoms: C_15  and  N_16
REMARK    6  A    between atoms: C_17  and  C_18
REMARK    7  A    between atoms: C_28  and  C_29
REMARK                            x       y       z     vdW  Elec       q    Type
REMARK                         _______ _______ _______ _____ _____    ______ ____
ROOT
ATOM      1  C   UNL     1       0.595  10.052  20.118  0.00  0.00    +0.000 A 
ATOM      2  C   UNL     1       0.777   9.096  21.118  0.00  0.00    +0.000 A 
ATOM      3  C   UNL     1       1.489   7.914  20.875  0.00  0.00    +0.000 A 
ATOM      4  C   UNL     1       2.049   7.631  19.623  0.00  0.00    +0.000 A 
ATOM      5  C   UNL     1       1.876   8.599  18.623  0.00  0.00    +0.000 A 
ATOM      6  C   UNL     1       1.163   9.783  18.866  0.00  0.00    +0.000 A 
ENDROOT
BRANCH   1  13
ATOM      7  C   UNL     1      -0.814  14.602  21.687  0.00  0.00    +0.000 C 
ATOM      8  C   UNL     1      -0.919  13.095  21.485  0.00  0.00    +0.000 C 
ATOM      9  C   UNL     1      -1.607  12.466  22.714  0.00  0.00    +0.000 C 
ATOM     10  O   UNL     1      -1.755  12.825  20.349  0.00  0.00    +0.000 OA
ATOM     11  C   UNL     1      -1.347  11.629  19.807  0.00  0.00    +0.000 C 
ATOM     12  O   UNL     1      -2.012  11.064  18.954  0.00  0.00    +0.000 OA
ATOM     13  N   UNL     1      -0.128  11.252  20.363  0.00  0.00    +0.000 N 
ATOM     14  C   UNL     1       0.386  12.358  21.144  0.00  0.00    +0.000 C 
BRANCH  14  15
ATOM     15  C   UNL     1       1.432  13.159  20.363  0.00  0.00    +0.000 A 
ATOM     16  C   UNL     1       2.607  13.646  20.965  0.00  0.00    +0.000 A 
ATOM     17  C   UNL     1       3.513  14.432  20.251  0.00  0.00    +0.000 A 
ATOM     18  C   UNL     1       3.271  14.731  18.916  0.00  0.00    +0.000 A 
ATOM     19  C   UNL     1       2.128  14.236  18.291  0.00  0.00    +0.000 A 
ATOM     20  C   UNL     1       1.215  13.454  19.008  0.00  0.00    +0.000 A 
ENDBRANCH  14  15
ENDBRANCH   1  13
BRANCH   4  21
ATOM     21  C   UNL     1       2.783   6.373  19.383  0.00  0.00    +0.000 A 
ATOM     22  C   UNL     1       2.594   5.244  20.176  0.00  0.00    +0.000 A 
ATOM     23  N   UNL     1       3.263   4.077  20.047  0.00  0.00    +0.000 NA
ATOM     24  C   UNL     1       4.162   3.982  19.046  0.00  0.00    +0.000 A 
ATOM     25  C   UNL     1       4.411   5.015  18.136  0.00  0.00    +0.000 A 
ATOM     26  C   UNL     1       3.716   6.225  18.349  0.00  0.00    +0.000 A 
BRANCH  25  27
ATOM     27  C   UNL     1       5.305   4.866  16.981  0.00  0.00    +0.000 A 
ATOM     28  N   UNL     1       4.901   4.063  15.966  0.00  0.00    +0.000 NA
ATOM     29  C   UNL     1       5.697   4.017  14.876  0.00  0.00    +0.000 A 
ATOM     30  C   UNL     1       6.854   4.742  14.758  0.00  0.00    +0.000 A 
ATOM     31  F   UNL     1       7.616   4.685  13.663  0.00  0.00    +0.000 F 
ATOM     32  C   UNL     1       7.182   5.536  15.827  0.00  0.00    +0.000 A 
ATOM     33  N   UNL     1       6.423   5.628  16.945  0.00  0.00    +0.000 NA
ENDBRANCH  25  27
BRANCH  24  34
ATOM     34  N   UNL     1       4.891   2.793  19.055  0.00  0.00    +0.000 N 
ATOM     35  H   UNL     1       5.612   2.875  19.766  0.00  0.00    +0.000 HD
ATOM     36  H   UNL     1       4.279   1.991  19.172  0.00  0.00    +0.000 HD
ENDBRANCH  24  34
ENDBRANCH   4  21
TORSDOF 5
ENDMDL
MODEL 5
REMARK VINA RESULT:      -9.0      4.357     10.035
REMARK  Name = 
REMARK  7 active torsions:
REMARK  status: ('A' for Active; 'I' for Inactive)
REMARK    1  A    between atoms: C_1  and  C_2
REMARK    2  A    between atoms: C_2  and  C_3
REMARK    3  A    between atoms: N_7  and  C_8
REMARK    4  A    between atoms: C_11  and  C_12
REMARK    5  A    between atoms: C_15  and  N_16
REMARK    6  A    between atoms: C_17  and  C_18
REMARK    7  A    between atoms: C_28  and  C_29
REMARK                            x       y       z     vdW  Elec       q    Type
REMARK                         _______ _______ _______ _____ _____    ______ ____
ROOT
ATOM      1  C   UNL     1       2.839   7.499  18.673  0.00  0.00    +0.000 A 
ATOM      2  C   UNL     1       2.663   8.487  17.703  0.00  0.00    +0.000 A 
ATOM      3  C   UNL     1       1.799   9.569  17.915  0.00  0.00    +0.000 A 
ATOM      4  C   UNL     1       1.069   9.713  19.102  0.00  0.00    +0.000 A 
ATOM      5  C   UNL     1       1.257   8.726  20.079  0.00  0.00    +0.000 A 
ATOM      6  C   UNL     1       2.123   7.641  19.868  0.00  0.00    +0.000 A 
ENDROOT
BRANCH   1  13
ATOM      7  C   UNL     1       5.490   3.271  19.178  0.00  0.00    +0.000 C 
ATOM      8  C   UNL     1       5.254   4.755  18.916  0.00  0.00    +0.000 C 
ATOM      9  C   UNL     1       6.451   5.562  19.461  0.00  0.00    +0.000 C 
ATOM     10  O   UNL     1       5.199   4.984  17.500  0.00  0.00    +0.000 OA
ATOM     11  C   UNL     1       4.395   6.080  17.288  0.00  0.00    +0.000 C 
ATOM     12  O   UNL     1       4.336   6.615  16.192  0.00  0.00    +0.000 OA
ATOM     13  N   UNL     1       3.715   6.399  18.459  0.00  0.00    +0.000 N 
ATOM     14  C   UNL     1       3.921   5.334  19.418  0.00  0.00    +0.000 C 
BRANCH  14  15
ATOM     15  C   UNL     1       2.734   4.369  19.451  0.00  0.00    +0.000 A 
ATOM     16  C   UNL     1       2.133   3.876  18.277  0.00  0.00    +0.000 A 
ATOM     17  C   UNL     1       1.009   3.051  18.331  0.00  0.00    +0.000 A 
ATOM     18  C   UNL     1       0.473   2.687  19.561  0.00  0.00    +0.000 A 
ATOM     19  C   UNL     1       1.068   3.140  20.737  0.00  0.00    +0.000 A 
ATOM     20  C   UNL     1       2.190   3.973  20.684  0.00  0.00    +0.000 A 
ENDBRANCH  14  15
ENDBRANCH   1  13
BRANCH   4  21
ATOM     21  C   UNL     1       0.152  10.853  19.299  0.00  0.00    +0.000 A 
ATOM     22  C   UNL     1       0.582  12.063  19.837  0.00  0.00    +0.000 A 
ATOM     23  N   UNL     1      -0.208  13.130  20.091  0.00  0.00    +0.000 NA
ATOM     24  C   UNL     1      -1.512  13.031  19.764  0.00  0.00    +0.000 A 
ATOM     25  C   UNL     1      -2.071  11.898  19.161  0.00  0.00    +0.000 A 
ATOM     26  C   UNL     1      -1.206  10.800  18.962  0.00  0.00    +0.000 A 
BRANCH  25  27
ATOM     27  C   UNL     1      -3.463  11.840  18.702  0.00  0.00    +0.000 A 
ATOM     28  N   UNL     1      -4.433  12.217  19.572  0.00  0.00    +0.000 NA
ATOM     29  C   UNL     1      -5.697  12.245  19.097  0.00  0.00    +0.000 A 
ATOM     30  C   UNL     1      -6.020  11.930  17.802  0.00  0.00    +0.000 A 
ATOM     31  F   UNL     1      -7.278  11.976  17.356  0.00  0.00    +0.000 F 
ATOM     32  C   UNL     1      -4.978  11.570  16.988  0.00  0.00    +0.000 A 
ATOM     33  N   UNL     1      -3.690  11.528  17.405  0.00  0.00    +0.000 NA
ENDBRANCH  25  27
BRANCH  24  34
ATOM     34  N   UNL     1      -2.278  14.125  20.165  0.00  0.00    +0.000 N 
ATOM     35  H   UNL     1      -1.642  14.871  20.431  0.00  0.00    +0.000 HD
ATOM     36  H   UNL     1      -2.947  14.385  19.446  0.00  0.00    +0.000 HD
ENDBRANCH  24  34
ENDBRANCH   4  21
TORSDOF 5
ENDMDL
MODEL 6
REMARK VINA RESULT:      -9.0      4.306      9.892
REMARK  Name = 
REMARK  7 active torsions:
REMARK  status: ('A' for Active; 'I' for Inactive)
REMARK    1  A    between atoms: C_1  and  C_2
REMARK    2  A    between atoms: C_2  and  C_3
REMARK    3  A    between atoms: N_7  and  C_8
REMARK    4  A    between atoms: C_11  and  C_12
REMARK    5  A    between atoms: C_15  and  N_16
REMARK    6  A    between atoms: C_17  and  C_18
REMARK    7  A    between atoms: C_28  and  C_29
REMARK                            x       y       z     vdW  Elec       q    Type
REMARK                         _______ _______ _______ _____ _____    ______ ____
ROOT
ATOM      1  C   UNL     1       2.320   6.961  19.034  0.00  0.00    +0.000 A 
ATOM      2  C   UNL     1       2.195   7.764  17.899  0.00  0.00    +0.000 A 
ATOM      3  C   UNL     1       1.618   9.038  17.969  0.00  0.00    +0.000 A 
ATOM      4  C   UNL     1       1.137   9.569  19.173  0.00  0.00    +0.000 A 
ATOM      5  C   UNL     1       1.274   8.765  20.314  0.00  0.00    +0.000 A 
ATOM      6  C   UNL     1       1.853   7.488  20.244  0.00  0.00    +0.000 A 
ENDROOT
BRANCH   1  13
ATOM      7  C   UNL     1       4.915   2.908  17.623  0.00  0.00    +0.000 C 
ATOM      8  C   UNL     1       3.690   3.708  18.055  0.00  0.00    +0.000 C 
ATOM      9  C   UNL     1       2.442   3.148  17.341  0.00  0.00    +0.000 C 
ATOM     10  O   UNL     1       3.484   3.536  19.465  0.00  0.00    +0.000 OA
ATOM     11  C   UNL     1       2.862   4.670  19.934  0.00  0.00    +0.000 C 
ATOM     12  O   UNL     1       2.390   4.709  21.060  0.00  0.00    +0.000 OA
ATOM     13  N   UNL     1       2.904   5.666  18.964  0.00  0.00    +0.000 N 
ATOM     14  C   UNL     1       3.781   5.234  17.895  0.00  0.00    +0.000 C 
BRANCH  14  15
ATOM     15  C   UNL     1       5.177   5.847  18.031  0.00  0.00    +0.000 A 
ATOM     16  C   UNL     1       5.652   6.836  17.148  0.00  0.00    +0.000 A 
ATOM     17  C   UNL     1       6.953   7.331  17.251  0.00  0.00    +0.000 A 
ATOM     18  C   UNL     1       7.799   6.861  18.247  0.00  0.00    +0.000 A 
ATOM     19  C   UNL     1       7.342   5.902  19.149  0.00  0.00    +0.000 A 
ATOM     20  C   UNL     1       6.040   5.399  19.044  0.00  0.00    +0.000 A 
ENDBRANCH  14  15
ENDBRANCH   1  13
BRANCH   4  21
ATOM     21  C   UNL     1       0.518  10.908  19.222  0.00  0.00    +0.000 A 
ATOM     22  C   UNL     1       1.208  12.056  18.837  0.00  0.00    +0.000 A 
ATOM     23  N   UNL     1       0.724  13.316  18.902  0.00  0.00    +0.000 NA
ATOM     24  C   UNL     1      -0.541  13.476  19.339  0.00  0.00    +0.000 A 
ATOM     25  C   UNL     1      -1.371  12.409  19.702  0.00  0.00    +0.000 A 
ATOM     26  C   UNL     1      -0.795  11.121  19.657  0.00  0.00    +0.000 A 
BRANCH  25  27
ATOM     27  C   UNL     1      -2.782  12.581  20.067  0.00  0.00    +0.000 A 
ATOM     28  N   UNL     1      -3.720  12.149  19.189  0.00  0.00    +0.000 NA
ATOM     29  C   UNL     1      -5.008  12.232  19.589  0.00  0.00    +0.000 A 
ATOM     30  C   UNL     1      -5.384  12.708  20.818  0.00  0.00    +0.000 A 
ATOM     31  F   UNL     1      -6.666  12.768  21.191  0.00  0.00    +0.000 F 
ATOM     32  C   UNL     1      -4.371  13.112  21.648  0.00  0.00    +0.000 A 
ATOM     33  N   UNL     1      -3.062  13.050  21.305  0.00  0.00    +0.000 NA
ENDBRANCH  25  27
BRANCH  24  34
ATOM     34  N   UNL     1      -0.921  14.810  19.487  0.00  0.00    +0.000 N 
ATOM     35  H   UNL     1      -0.078  15.377  19.477  0.00  0.00    +0.000 HD
ATOM     36  H   UNL     1      -1.609  15.072  18.788  0.00  0.00    +0.000 HD
ENDBRANCH  24  34
ENDBRANCH   4  21
TORSDOF 5
ENDMDL
MODEL 7
REMARK VINA RESULT:      -8.9      4.348      9.988
REMARK  Name = 
REMARK  7 active torsions:
REMARK  status: ('A' for Active; 'I' for Inactive)
REMARK    1  A    between atoms: C_1  and  C_2
REMARK    2  A    between atoms: C_2  and  C_3
REMARK    3  A    between atoms: N_7  and  C_8
REMARK    4  A    between atoms: C_11  and  C_12
REMARK    5  A    between atoms: C_15  and  N_16
REMARK    6  A    between atoms: C_17  and  C_18
REMARK    7  A    between atoms: C_28  and  C_29
REMARK                            x       y       z     vdW  Elec       q    Type
REMARK                         _______ _______ _______ _____ _____    ______ ____
ROOT
ATOM      1  C   UNL     1       2.329   6.895  19.194  0.00  0.00    +0.000 A 
ATOM      2  C   UNL     1       2.236   7.799  18.135  0.00  0.00    +0.000 A 
ATOM      3  C   UNL     1       1.684   9.074  18.311  0.00  0.00    +0.000 A 
ATOM      4  C   UNL     1       1.196   9.504  19.552  0.00  0.00    +0.000 A 
ATOM      5  C   UNL     1       1.301   8.599  20.617  0.00  0.00    +0.000 A 
ATOM      6  C   UNL     1       1.855   7.321  20.441  0.00  0.00    +0.000 A 
ENDROOT
BRANCH   1  13
ATOM      7  C   UNL     1       4.825   2.917  17.432  0.00  0.00    +0.000 C 
ATOM      8  C   UNL     1       3.623   3.703  17.946  0.00  0.00    +0.000 C 
ATOM      9  C   UNL     1       2.352   3.220  17.217  0.00  0.00    +0.000 C 
ATOM     10  O   UNL     1       3.439   3.429  19.343  0.00  0.00    +0.000 OA
ATOM     11  C   UNL     1       2.846   4.534  19.909  0.00  0.00    +0.000 C 
ATOM     12  O   UNL     1       2.395   4.496  21.043  0.00  0.00    +0.000 OA
ATOM     13  N   UNL     1       2.889   5.600  19.015  0.00  0.00    +0.000 N 
ATOM     14  C   UNL     1       3.738   5.235  17.901  0.00  0.00    +0.000 C 
BRANCH  14  15
ATOM     15  C   UNL     1       5.148   5.813  18.055  0.00  0.00    +0.000 A 
ATOM     16  C   UNL     1       5.663   6.782  17.173  0.00  0.00    +0.000 A 
ATOM     17  C   UNL     1       6.974   7.244  17.293  0.00  0.00    +0.000 A 
ATOM     18  C   UNL     1       7.791   6.760  18.308  0.00  0.00    +0.000 A 
ATOM     19  C   UNL     1       7.294   5.821  19.209  0.00  0.00    +0.000 A 
ATOM     20  C   UNL     1       5.982   5.351  19.086  0.00  0.00    +0.000 A 
ENDBRANCH  14  15
ENDBRANCH   1  13
BRANCH   4  21
ATOM     21  C   UNL     1       0.604  10.846  19.714  0.00  0.00    +0.000 A 
ATOM     22  C   UNL     1       1.072  11.952  19.007  0.00  0.00    +0.000 A 
ATOM     23  N   UNL     1       0.613  13.216  19.140  0.00  0.00    +0.000 NA
ATOM     24  C   UNL     1      -0.407  13.421  19.998  0.00  0.00    +0.000 A 
ATOM     25  C   UNL     1      -1.016  12.395  20.729  0.00  0.00    +0.000 A 
ATOM     26  C   UNL     1      -0.463  11.104  20.583  0.00  0.00    +0.000 A 
BRANCH  25  27
ATOM     27  C   UNL     1      -2.198  12.607  21.573  0.00  0.00    +0.000 A 
ATOM     28  N   UNL     1      -3.332  13.049  20.976  0.00  0.00    +0.000 NA
ATOM     29  C   UNL     1      -4.430  13.145  21.756  0.00  0.00    +0.000 A 
ATOM     30  C   UNL     1      -4.440  12.807  23.084  0.00  0.00    +0.000 A 
ATOM     31  F   UNL     1      -5.545  12.902  23.830  0.00  0.00    +0.000 F 
ATOM     32  C   UNL     1      -3.254  12.358  23.605  0.00  0.00    +0.000 A 
ATOM     33  N   UNL     1      -2.121  12.236  22.872  0.00  0.00    +0.000 NA
ENDBRANCH  25  27
BRANCH  24  34
ATOM     34  N   UNL     1      -0.741  14.765  20.164  0.00  0.00    +0.000 N 
ATOM     35  H   UNL     1      -0.354  15.075  21.050  0.00  0.00    +0.000 HD
ATOM     36  H   UNL     1      -0.444  15.316  19.363  0.00  0.00    +0.000 HD
ENDBRANCH  24  34
ENDBRANCH   4  21
TORSDOF 5
ENDMDL
MODEL 8
REMARK VINA RESULT:      -8.9      4.188      9.973
REMARK  Name = 
REMARK  7 active torsions:
REMARK  status: ('A' for Active; 'I' for Inactive)
REMARK    1  A    between atoms: C_1  and  C_2
REMARK    2  A    between atoms: C_2  and  C_3
REMARK    3  A    between atoms: N_7  and  C_8
REMARK    4  A    between atoms: C_11  and  C_12
REMARK    5  A    between atoms: C_15  and  N_16
REMARK    6  A    between atoms: C_17  and  C_18
REMARK    7  A    between atoms: C_28  and  C_29
REMARK                            x       y       z     vdW  Elec       q    Type
REMARK                         _______ _______ _______ _____ _____    ______ ____
ROOT
ATOM      1  C   UNL     1       2.274   6.180  19.257  0.00  0.00    +0.000 A 
ATOM      2  C   UNL     1       1.784   6.911  20.340  0.00  0.00    +0.000 A 
ATOM      3  C   UNL     1       1.480   8.273  20.222  0.00  0.00    +0.000 A 
ATOM      4  C   UNL     1       1.653   8.969  19.018  0.00  0.00    +0.000 A 
ATOM      5  C   UNL     1       2.133   8.230  17.927  0.00  0.00    +0.000 A 
ATOM      6  C   UNL     1       2.438   6.864  18.046  0.00  0.00    +0.000 A 
ENDROOT
BRANCH   1  13
ATOM      7  C   UNL     1       3.617   1.438  18.328  0.00  0.00    +0.000 C 
ATOM      8  C   UNL     1       2.726   2.570  18.829  0.00  0.00    +0.000 C 
ATOM      9  C   UNL     1       1.248   2.187  18.608  0.00  0.00    +0.000 C 
ATOM     10  O   UNL     1       2.914   2.732  20.243  0.00  0.00    +0.000 OA
ATOM     11  C   UNL     1       2.659   4.049  20.547  0.00  0.00    +0.000 C 
ATOM     12  O   UNL     1       2.549   4.418  21.706  0.00  0.00    +0.000 OA
ATOM     13  N   UNL     1       2.584   4.797  19.376  0.00  0.00    +0.000 N 
ATOM     14  C   UNL     1       3.024   3.971  18.271  0.00  0.00    +0.000 C 
BRANCH  14  15
ATOM     15  C   UNL     1       4.482   4.256  17.901  0.00  0.00    +0.000 A 
ATOM     16  C   UNL     1       5.444   4.620  18.863  0.00  0.00    +0.000 A 
ATOM     17  C   UNL     1       6.751   4.940  18.493  0.00  0.00    +0.000 A 
ATOM     18  C   UNL     1       7.127   4.888  17.157  0.00  0.00    +0.000 A 
ATOM     19  C   UNL     1       6.200   4.504  16.190  0.00  0.00    +0.000 A 
ATOM     20  C   UNL     1       4.887   4.188  16.558  0.00  0.00    +0.000 A 
ENDBRANCH  14  15
ENDBRANCH   1  13
BRANCH   4  21
ATOM     21  C   UNL     1       1.341  10.408  18.918  0.00  0.00    +0.000 A 
ATOM     22  C   UNL     1       2.195  11.308  18.284  0.00  0.00    +0.000 A 
ATOM     23  N   UNL     1       1.999  12.642  18.197  0.00  0.00    +0.000 NA
ATOM     24  C   UNL     1       0.868  13.142  18.734  0.00  0.00    +0.000 A 
ATOM     25  C   UNL     1      -0.108  12.349  19.348  0.00  0.00    +0.000 A 
ATOM     26  C   UNL     1       0.174  10.969  19.450  0.00  0.00    +0.000 A 
BRANCH  25  27
ATOM     27  C   UNL     1      -1.388  12.883  19.828  0.00  0.00    +0.000 A 
ATOM     28  N   UNL     1      -2.520  12.224  19.481  0.00  0.00    +0.000 NA
ATOM     29  C   UNL     1      -3.675  12.680  20.012  0.00  0.00    +0.000 A 
ATOM     30  C   UNL     1      -3.737  13.744  20.875  0.00  0.00    +0.000 A 
ATOM     31  F   UNL     1      -4.892  14.167  21.394  0.00  0.00    +0.000 F 
ATOM     32  C   UNL     1      -2.544  14.346  21.181  0.00  0.00    +0.000 A 
ATOM     33  N   UNL     1      -1.354  13.932  20.684  0.00  0.00    +0.000 NA
ENDBRANCH  25  27
BRANCH  24  34
ATOM     34  N   UNL     1       0.799  14.535  18.707  0.00  0.00    +0.000 N 
ATOM     35  H   UNL     1       1.131  14.846  17.798  0.00  0.00    +0.000 HD
ATOM     36  H   UNL     1      -0.135  14.858  18.942  0.00  0.00    +0.000 HD
ENDBRANCH  24  34
ENDBRANCH   4  21
TORSDOF 5
ENDMDL
MODEL 9
REMARK VINA RESULT:      -8.9      3.737      9.219
REMARK  Name = 
REMARK  7 active torsions:
REMARK  status: ('A' for Active; 'I' for Inactive)
REMARK    1  A    between atoms: C_1  and  C_2
REMARK    2  A    between atoms: C_2  and  C_3
REMARK    3  A    between atoms: N_7  and  C_8
REMARK    4  A    between atoms: C_11  and  C_12
REMARK    5  A    between atoms: C_15  and  N_16
REMARK    6  A    between atoms: C_17  and  C_18
REMARK    7  A    between atoms: C_28  and  C_29
REMARK                            x       y       z     vdW  Elec       q    Type
REMARK                         _______ _______ _______ _____ _____    ______ ____
ROOT
ATOM      1  C   UNL     1       2.204   6.584  19.223  0.00  0.00    +0.000 A 
ATOM      2  C   UNL     1       2.289   7.299  18.027  0.00  0.00    +0.000 A 
ATOM      3  C   UNL     1       1.906   8.644  17.954  0.00  0.00    +0.000 A 
ATOM      4  C   UNL     1       1.418   9.337  19.069  0.00  0.00    +0.000 A 
ATOM      5  C   UNL     1       1.345   8.621  20.272  0.00  0.00    +0.000 A 
ATOM      6  C   UNL     1       1.729   7.273  20.346  0.00  0.00    +0.000 A 
ENDROOT
BRANCH   1  13
ATOM      7  C   UNL     1       3.959   2.002  18.187  0.00  0.00    +0.000 C 
ATOM      8  C   UNL     1       2.944   3.043  18.645  0.00  0.00    +0.000 C 
ATOM      9  C   UNL     1       1.529   2.587  18.233  0.00  0.00    +0.000 C 
ATOM     10  O   UNL     1       2.961   3.125  20.078  0.00  0.00    +0.000 OA
ATOM     11  C   UNL     1       2.585   4.402  20.425  0.00  0.00    +0.000 C 
ATOM     12  O   UNL     1       2.321   4.688  21.583  0.00  0.00    +0.000 OA
ATOM     13  N   UNL     1       2.591   5.218  19.298  0.00  0.00    +0.000 N 
ATOM     14  C   UNL     1       3.207   4.493  18.206  0.00  0.00    +0.000 C 
BRANCH  14  15
ATOM     15  C   UNL     1       4.675   4.889  18.025  0.00  0.00    +0.000 A 
ATOM     16  C   UNL     1       5.285   4.949  16.757  0.00  0.00    +0.000 A 
ATOM     17  C   UNL     1       6.642   5.247  16.622  0.00  0.00    +0.000 A 
ATOM     18  C   UNL     1       7.411   5.508  17.749  0.00  0.00    +0.000 A 
ATOM     19  C   UNL     1       6.822   5.483  19.012  0.00  0.00    +0.000 A 
ATOM     20  C   UNL     1       5.464   5.178  19.150  0.00  0.00    +0.000 A 
ENDBRANCH  14  15
ENDBRANCH   1  13
BRANCH   4  21
ATOM     21  C   UNL     1       1.006  10.751  18.967  0.00  0.00    +0.000 A 
ATOM     22  C   UNL     1      -0.334  11.129  18.920  0.00  0.00    +0.000 A 
ATOM     23  N   UNL     1      -0.784  12.395  18.778  0.00  0.00    +0.000 NA
ATOM     24  C   UNL     1       0.135  13.379  18.714  0.00  0.00    +0.000 A 
ATOM     25  C   UNL     1       1.513  13.153  18.810  0.00  0.00    +0.000 A 
ATOM     26  C   UNL     1       1.924  11.806  18.910  0.00  0.00    +0.000 A 
BRANCH  25  27
ATOM     27  C   UNL     1       2.501  14.237  18.855  0.00  0.00    +0.000 A 
ATOM     28  N   UNL     1       3.528  14.196  17.971  0.00  0.00    +0.000 NA
ATOM     29  C   UNL     1       4.370  15.252  17.970  0.00  0.00    +0.000 A 
ATOM     30  C   UNL     1       4.217  16.337  18.794  0.00  0.00    +0.000 A 
ATOM     31  F   UNL     1       5.059  17.373  18.763  0.00  0.00    +0.000 F 
ATOM     32  C   UNL     1       3.145  16.302  19.648  0.00  0.00    +0.000 A 
ATOM     33  N   UNL     1       2.265  15.273  19.694  0.00  0.00    +0.000 NA
ENDBRANCH  25  27
BRANCH  24  34
ATOM     34  N   UNL     1      -0.405  14.638  18.450  0.00  0.00    +0.000 N 
ATOM     35  H   UNL     1      -1.133  14.815  19.136  0.00  0.00    +0.000 HD
ATOM     36  H   UNL     1       0.322  15.347  18.422  0.00  0.00    +0.000 HD
ENDBRANCH  24  34
ENDBRANCH   4  21
TORSDOF 5
ENDMDL
