MODEL 1
REMARK VINA RESULT:      -7.2      0.000      0.000
REMARK  Name = 
REMARK  6 active torsions:
REMARK  status: ('A' for Active; 'I' for Inactive)
REMARK    1  A    between atoms: C_1  and  O_2
REMARK    2  A    between atoms: O_2  and  C_3
REMARK    3  A    between atoms: C_3  and  C_4
REMARK    4  A    between atoms: C_4  and  N_5
REMARK    5  A    between atoms: C_8  and  N_9
REMARK    6  A    between atoms: C_11  and  C_12
REMARK                            x       y       z     vdW  Elec       q    Type
REMARK                         _______ _______ _______ _____ _____    ______ ____
ROOT
ATOM      1  N   UNL     1       2.237   6.209  19.975  0.00  0.00    +0.000 N 
ATOM      2  N   UNL     1       3.083   5.722  19.037  0.00  0.00    +0.000 NA
ATOM      3  C   UNL     1       3.357   6.736  18.206  0.00  0.00    +0.000 A 
ATOM      4  C   UNL     1       2.681   7.901  18.655  0.00  0.00    +0.000 A 
ATOM      5  C   UNL     1       2.015   7.567  19.831  0.00  0.00    +0.000 A 
ATOM      6  C   UNL     1       1.223   8.522  20.637  0.00  0.00    +0.000 A 
ATOM      7  C   UNL     1       0.930   8.350  21.996  0.00  0.00    +0.000 A 
ATOM      8  C   UNL     1       0.233   9.329  22.724  0.00  0.00    +0.000 A 
ATOM      9  C   UNL     1      -0.164  10.518  22.120  0.00  0.00    +0.000 A 
ATOM     10  C   UNL     1       0.122  10.726  20.780  0.00  0.00    +0.000 A 
ATOM     11  C   UNL     1       0.794   9.735  20.055  0.00  0.00    +0.000 A 
ATOM     12  S   UNL     1       1.143  10.089  18.349  0.00  0.00    +0.000 S 
ATOM     13  O   UNL     1       0.078   9.472  17.579  0.00  0.00    +0.000 OA
ATOM     14  O   UNL     1       1.398  11.517  18.253  0.00  0.00    +0.000 OA
ATOM     15  C   UNL     1       2.679   9.249  18.038  0.00  0.00    +0.000 C 
ENDROOT
BRANCH   3  16
ATOM     16  C   UNL     1       4.195   6.631  16.976  0.00  0.00    +0.000 C 
ATOM     17  O   UNL     1       3.965   7.377  16.024  0.00  0.00    +0.000 OA
ATOM     18  N   UNL     1       5.260   5.734  16.922  0.00  0.00    +0.000 N 
ATOM     19  C   UNL     1       5.693   4.829  17.983  0.00  0.00    +0.000 C 
ATOM     20  C   UNL     1       7.223   4.702  18.052  0.00  0.00    +0.000 C 
ATOM     21  O   UNL     1       7.825   4.470  16.773  0.00  0.00    +0.000 OA
ATOM     22  C   UNL     1       7.454   5.495  15.836  0.00  0.00    +0.000 C 
ATOM     23  C   UNL     1       5.939   5.500  15.640  0.00  0.00    +0.000 C 
ENDBRANCH   3  16
BRANCH   1  27
ATOM     24  N   UNL     1       1.823   2.470  19.984  0.00  0.00    +0.000 NA
ATOM     25  C   UNL     1       3.009   3.172  20.477  0.00  0.00    +0.000 C 
ATOM     26  C   UNL     1       2.698   4.277  21.481  0.00  0.00    +0.000 C 
ATOM     27  C   UNL     1       1.666   5.275  20.953  0.00  0.00    +0.000 C 
ATOM     28  C   UNL     1       0.429   4.503  20.474  0.00  0.00    +0.000 C 
ATOM     29  C   UNL     1       0.762   3.369  19.503  0.00  0.00    +0.000 C 
BRANCH  24  30
ATOM     30  C   UNL     1       2.184   1.528  18.894  0.00  0.00    +0.000 C 
BRANCH  30  31
ATOM     31  C   UNL     1       3.673   1.469  18.516  0.00  0.00    +0.000 C 
BRANCH  31  33
ATOM     32  C   UNL     1       2.868   2.912  16.854  0.00  0.00    +0.000 C 
ATOM     33  O   UNL     1       3.899   2.002  17.212  0.00  0.00    +0.000 OA
ENDBRANCH  31  33
ENDBRANCH  30  31
ENDBRANCH  24  30
ENDBRANCH   1  27
TORSDOF 5
ENDMDL
MODEL 2
REMARK VINA RESULT:      -7.2      7.087     10.369
REMARK  Name = 
REMARK  6 active torsions:
REMARK  status: ('A' for Active; 'I' for Inactive)
REMARK    1  A    between atoms: C_1  and  O_2
REMARK    2  A    between atoms: O_2  and  C_3
REMARK    3  A    between atoms: C_3  and  C_4
REMARK    4  A    between atoms: C_4  and  N_5
REMARK    5  A    between atoms: C_8  and  N_9
REMARK    6  A    between atoms: C_11  and  C_12
REMARK                            x       y       z     vdW  Elec       q    Type
REMARK                         _______ _______ _______ _____ _____    ______ ____
ROOT
ATOM      1  N   UNL     1      -1.995  13.687  20.512  0.00  0.00    +0.000 N 
ATOM      2  N   UNL     1      -1.115  14.561  21.056  0.00  0.00    +0.000 NA
ATOM      3  C   UNL     1       0.103  14.179  20.648  0.00  0.00    +0.000 A 
ATOM      4  C   UNL     1      -0.023  13.048  19.800  0.00  0.00    +0.000 A 
ATOM      5  C   UNL     1      -1.382  12.779  19.667  0.00  0.00    +0.000 A 
ATOM      6  C   UNL     1      -1.935  11.694  18.826  0.00  0.00    +0.000 A 
ATOM      7  C   UNL     1      -3.245  11.676  18.329  0.00  0.00    +0.000 A 
ATOM      8  C   UNL     1      -3.689  10.652  17.475  0.00  0.00    +0.000 A 
ATOM      9  C   UNL     1      -2.828   9.636  17.074  0.00  0.00    +0.000 A 
ATOM     10  C   UNL     1      -1.522   9.631  17.537  0.00  0.00    +0.000 A 
ATOM     11  C   UNL     1      -1.095  10.640  18.407  0.00  0.00    +0.000 A 
ATOM     12  S   UNL     1       0.600  10.575  18.938  0.00  0.00    +0.000 S 
ATOM     13  O   UNL     1       0.598   9.913  20.229  0.00  0.00    +0.000 OA
ATOM     14  O   UNL     1       1.373  10.040  17.829  0.00  0.00    +0.000 OA
ATOM     15  C   UNL     1       1.058  12.282  19.134  0.00  0.00    +0.000 C 
ENDROOT
BRANCH   3  16
ATOM     16  C   UNL     1       1.384  14.818  21.070  0.00  0.00    +0.000 C 
ATOM     17  O   UNL     1       1.896  14.492  22.141  0.00  0.00    +0.000 OA
ATOM     18  N   UNL     1       2.024  15.735  20.238  0.00  0.00    +0.000 N 
ATOM     19  C   UNL     1       1.576  16.178  18.921  0.00  0.00    +0.000 C 
ATOM     20  C   UNL     1       2.745  16.374  17.943  0.00  0.00    +0.000 C 
ATOM     21  O   UNL     1       3.825  17.131  18.504  0.00  0.00    +0.000 OA
ATOM     22  C   UNL     1       4.293  16.533  19.724  0.00  0.00    +0.000 C 
ATOM     23  C   UNL     1       3.165  16.501  20.756  0.00  0.00    +0.000 C 
ENDBRANCH   3  16
BRANCH   1  27
ATOM     24  N   UNL     1      -3.698  14.354  23.799  0.00  0.00    +0.000 NA
ATOM     25  C   UNL     1      -3.276  15.395  22.860  0.00  0.00    +0.000 C 
ATOM     26  C   UNL     1      -3.770  15.174  21.433  0.00  0.00    +0.000 C 
ATOM     27  C   UNL     1      -3.408  13.789  20.896  0.00  0.00    +0.000 C 
ATOM     28  C   UNL     1      -3.893  12.727  21.893  0.00  0.00    +0.000 C 
ATOM     29  C   UNL     1      -3.427  12.987  23.327  0.00  0.00    +0.000 C 
BRANCH  24  30
ATOM     30  C   UNL     1      -3.048  14.543  25.121  0.00  0.00    +0.000 C 
BRANCH  30  31
ATOM     31  C   UNL     1      -1.686  15.256  25.109  0.00  0.00    +0.000 C 
BRANCH  31  33
ATOM     32  C   UNL     1      -0.395  16.197  26.824  0.00  0.00    +0.000 C 
ATOM     33  O   UNL     1      -1.623  16.269  26.113  0.00  0.00    +0.000 OA
ENDBRANCH  31  33
ENDBRANCH  30  31
ENDBRANCH  24  30
ENDBRANCH   1  27
TORSDOF 5
ENDMDL
MODEL 3
REMARK VINA RESULT:      -7.1      5.524     10.064
REMARK  Name = 
REMARK  6 active torsions:
REMARK  status: ('A' for Active; 'I' for Inactive)
REMARK    1  A    between atoms: C_1  and  O_2
REMARK    2  A    between atoms: O_2  and  C_3
REMARK    3  A    between atoms: C_3  and  C_4
REMARK    4  A    between atoms: C_4  and  N_5
REMARK    5  A    between atoms: C_8  and  N_9
REMARK    6  A    between atoms: C_11  and  C_12
REMARK                            x       y       z     vdW  Elec       q    Type
REMARK                         _______ _______ _______ _____ _____    ______ ____
ROOT
ATOM      1  N   UNL     1      -2.195  11.442  19.210  0.00  0.00    +0.000 N 
ATOM      2  N   UNL     1      -2.867  12.336  19.973  0.00  0.00    +0.000 NA
ATOM      3  C   UNL     1      -2.265  12.346  21.170  0.00  0.00    +0.000 A 
ATOM      4  C   UNL     1      -1.164  11.450  21.145  0.00  0.00    +0.000 A 
ATOM      5  C   UNL     1      -1.089  10.923  19.859  0.00  0.00    +0.000 A 
ATOM      6  C   UNL     1      -0.046   9.973  19.411  0.00  0.00    +0.000 A 
ATOM      7  C   UNL     1       0.318   9.780  18.071  0.00  0.00    +0.000 A 
ATOM      8  C   UNL     1       1.367   8.916  17.716  0.00  0.00    +0.000 A 
ATOM      9  C   UNL     1       2.097   8.243  18.690  0.00  0.00    +0.000 A 
ATOM     10  C   UNL     1       1.773   8.422  20.025  0.00  0.00    +0.000 A 
ATOM     11  C   UNL     1       0.710   9.265  20.370  0.00  0.00    +0.000 A 
ATOM     12  S   UNL     1       0.371   9.458  22.104  0.00  0.00    +0.000 S 
ATOM     13  O   UNL     1      -0.695   8.525  22.417  0.00  0.00    +0.000 OA
ATOM     14  O   UNL     1       1.647   9.389  22.798  0.00  0.00    +0.000 OA
ATOM     15  C   UNL     1      -0.225  11.128  22.246  0.00  0.00    +0.000 C 
ENDROOT
BRANCH   3  16
ATOM     16  C   UNL     1      -2.722  13.137  22.351  0.00  0.00    +0.000 C 
ATOM     17  O   UNL     1      -3.595  12.675  23.084  0.00  0.00    +0.000 OA
ATOM     18  N   UNL     1      -2.130  14.363  22.651  0.00  0.00    +0.000 N 
ATOM     19  C   UNL     1      -1.049  15.014  21.916  0.00  0.00    +0.000 C 
ATOM     20  C   UNL     1      -0.057  15.726  22.849  0.00  0.00    +0.000 C 
ATOM     21  O   UNL     1      -0.701  16.544  23.833  0.00  0.00    +0.000 OA
ATOM     22  C   UNL     1      -1.643  15.778  24.602  0.00  0.00    +0.000 C 
ATOM     23  C   UNL     1      -2.729  15.215  23.687  0.00  0.00    +0.000 C 
ENDBRANCH   3  16
BRANCH   1  27
ATOM     24  N   UNL     1      -5.608  10.446  17.983  0.00  0.00    +0.000 NA
ATOM     25  C   UNL     1      -5.149  11.829  18.117  0.00  0.00    +0.000 C 
ATOM     26  C   UNL     1      -3.813  12.103  17.433  0.00  0.00    +0.000 C 
ATOM     27  C   UNL     1      -2.718  11.131  17.875  0.00  0.00    +0.000 C 
ATOM     28  C   UNL     1      -3.228   9.694  17.692  0.00  0.00    +0.000 C 
ATOM     29  C   UNL     1      -4.590   9.447  18.345  0.00  0.00    +0.000 C 
BRANCH  24  30
ATOM     30  C   UNL     1      -6.821  10.212  18.807  0.00  0.00    +0.000 C 
BRANCH  30  31
ATOM     31  C   UNL     1      -7.245  11.367  19.730  0.00  0.00    +0.000 C 
BRANCH  31  33
ATOM     32  C   UNL     1      -7.045  12.316  21.864  0.00  0.00    +0.000 C 
ATOM     33  O   UNL     1      -6.703  11.210  21.041  0.00  0.00    +0.000 OA
ENDBRANCH  31  33
ENDBRANCH  30  31
ENDBRANCH  24  30
ENDBRANCH   1  27
TORSDOF 5
ENDMDL
MODEL 4
REMARK VINA RESULT:      -7.1      7.974     10.496
REMARK  Name = 
REMARK  6 active torsions:
REMARK  status: ('A' for Active; 'I' for Inactive)
REMARK    1  A    between atoms: C_1  and  O_2
REMARK    2  A    between atoms: O_2  and  C_3
REMARK    3  A    between atoms: C_3  and  C_4
REMARK    4  A    between atoms: C_4  and  N_5
REMARK    5  A    between atoms: C_8  and  N_9
REMARK    6  A    between atoms: C_11  and  C_12
REMARK                            x       y       z     vdW  Elec       q    Type
REMARK                         _______ _______ _______ _____ _____    ______ ____
ROOT
ATOM      1  N   UNL     1      -3.225  12.865  21.494  0.00  0.00    +0.000 N 
ATOM      2  N   UNL     1      -1.952  12.985  21.938  0.00  0.00    +0.000 NA
ATOM      3  C   UNL     1      -1.156  12.711  20.895  0.00  0.00    +0.000 A 
ATOM      4  C   UNL     1      -1.959  12.437  19.757  0.00  0.00    +0.000 A 
ATOM      5  C   UNL     1      -3.288  12.603  20.137  0.00  0.00    +0.000 A 
ATOM      6  C   UNL     1      -4.439  12.448  19.220  0.00  0.00    +0.000 A 
ATOM      7  C   UNL     1      -5.699  13.021  19.437  0.00  0.00    +0.000 A 
ATOM      8  C   UNL     1      -6.732  12.897  18.492  0.00  0.00    +0.000 A 
ATOM      9  C   UNL     1      -6.524  12.220  17.295  0.00  0.00    +0.000 A 
ATOM     10  C   UNL     1      -5.286  11.652  17.043  0.00  0.00    +0.000 A 
ATOM     11  C   UNL     1      -4.270  11.759  18.000  0.00  0.00    +0.000 A 
ATOM     12  S   UNL     1      -2.705  11.022  17.591  0.00  0.00    +0.000 S 
ATOM     13  O   UNL     1      -2.699   9.708  18.206  0.00  0.00    +0.000 OA
ATOM     14  O   UNL     1      -2.525  11.172  16.156  0.00  0.00    +0.000 OA
ATOM     15  C   UNL     1      -1.511  12.070  18.392  0.00  0.00    +0.000 C 
ENDROOT
BRANCH   3  16
ATOM     16  C   UNL     1       0.334  12.651  20.949  0.00  0.00    +0.000 C 
ATOM     17  O   UNL     1       0.883  11.610  21.306  0.00  0.00    +0.000 OA
ATOM     18  N   UNL     1       1.099  13.746  20.551  0.00  0.00    +0.000 N 
ATOM     19  C   UNL     1       0.600  15.024  20.051  0.00  0.00    +0.000 C 
ATOM     20  C   UNL     1       1.475  15.591  18.922  0.00  0.00    +0.000 C 
ATOM     21  O   UNL     1       2.874  15.564  19.232  0.00  0.00    +0.000 OA
ATOM     22  C   UNL     1       3.301  14.234  19.570  0.00  0.00    +0.000 C 
ATOM     23  C   UNL     1       2.546  13.742  20.804  0.00  0.00    +0.000 C 
ENDBRANCH   3  16
BRANCH   1  27
ATOM     24  N   UNL     1      -3.591  14.834  24.678  0.00  0.00    +0.000 NA
ATOM     25  C   UNL     1      -3.938  15.339  23.348  0.00  0.00    +0.000 C 
ATOM     26  C   UNL     1      -4.861  14.414  22.560  0.00  0.00    +0.000 C 
ATOM     27  C   UNL     1      -4.318  12.987  22.466  0.00  0.00    +0.000 C 
ATOM     28  C   UNL     1      -3.994  12.486  23.880  0.00  0.00    +0.000 C 
ATOM     29  C   UNL     1      -3.106  13.445  24.674  0.00  0.00    +0.000 C 
BRANCH  24  30
ATOM     30  C   UNL     1      -2.566  15.698  25.317  0.00  0.00    +0.000 C 
BRANCH  30  31
ATOM     31  C   UNL     1      -1.102  15.381  24.970  0.00  0.00    +0.000 C 
BRANCH  31  33
ATOM     32  C   UNL     1      -0.912  16.914  26.733  0.00  0.00    +0.000 C 
ATOM     33  O   UNL     1      -0.202  16.139  25.778  0.00  0.00    +0.000 OA
ENDBRANCH  31  33
ENDBRANCH  30  31
ENDBRANCH  24  30
ENDBRANCH   1  27
TORSDOF 5
ENDMDL
MODEL 5
REMARK VINA RESULT:      -7.0      6.855     11.812
REMARK  Name = 
REMARK  6 active torsions:
REMARK  status: ('A' for Active; 'I' for Inactive)
REMARK    1  A    between atoms: C_1  and  O_2
REMARK    2  A    between atoms: O_2  and  C_3
REMARK    3  A    between atoms: C_3  and  C_4
REMARK    4  A    between atoms: C_4  and  N_5
REMARK    5  A    between atoms: C_8  and  N_9
REMARK    6  A    between atoms: C_11  and  C_12
REMARK                            x       y       z     vdW  Elec       q    Type
REMARK                         _______ _______ _______ _____ _____    ______ ____
ROOT
ATOM      1  N   UNL     1      -3.912  11.935  19.236  0.00  0.00    +0.000 N 
ATOM      2  N   UNL     1      -4.538  12.946  19.885  0.00  0.00    +0.000 NA
ATOM      3  C   UNL     1      -3.630  13.495  20.703  0.00  0.00    +0.000 A 
ATOM      4  C   UNL     1      -2.390  12.823  20.539  0.00  0.00    +0.000 A 
ATOM      5  C   UNL     1      -2.566  11.864  19.545  0.00  0.00    +0.000 A 
ATOM      6  C   UNL     1      -1.491  10.976  19.049  0.00  0.00    +0.000 A 
ATOM      7  C   UNL     1      -1.509  10.344  17.799  0.00  0.00    +0.000 A 
ATOM      8  C   UNL     1      -0.424   9.570  17.356  0.00  0.00    +0.000 A 
ATOM      9  C   UNL     1       0.718   9.429  18.138  0.00  0.00    +0.000 A 
ATOM     10  C   UNL     1       0.774  10.051  19.375  0.00  0.00    +0.000 A 
ATOM     11  C   UNL     1      -0.322  10.801  19.820  0.00  0.00    +0.000 A 
ATOM     12  S   UNL     1      -0.162  11.586  21.407  0.00  0.00    +0.000 S 
ATOM     13  O   UNL     1      -0.794  10.698  22.365  0.00  0.00    +0.000 OA
ATOM     14  O   UNL     1       1.232  11.968  21.555  0.00  0.00    +0.000 OA
ATOM     15  C   UNL     1      -1.113  13.080  21.248  0.00  0.00    +0.000 C 
ENDROOT
BRANCH   3  16
ATOM     16  C   UNL     1      -3.905  14.599  21.668  0.00  0.00    +0.000 C 
ATOM     17  O   UNL     1      -3.284  15.656  21.567  0.00  0.00    +0.000 OA
ATOM     18  N   UNL     1      -4.892  14.456  22.642  0.00  0.00    +0.000 N 
ATOM     19  C   UNL     1      -5.749  13.292  22.851  0.00  0.00    +0.000 C 
ATOM     20  C   UNL     1      -7.181  13.687  23.245  0.00  0.00    +0.000 C 
ATOM     21  O   UNL     1      -7.226  14.669  24.288  0.00  0.00    +0.000 OA
ATOM     22  C   UNL     1      -6.471  15.837  23.926  0.00  0.00    +0.000 C 
ATOM     23  C   UNL     1      -5.006  15.464  23.704  0.00  0.00    +0.000 C 
ENDBRANCH   3  16
BRANCH   1  27
ATOM     24  N   UNL     1      -7.082  12.506  17.292  0.00  0.00    +0.000 NA
ATOM     25  C   UNL     1      -5.737  12.772  16.778  0.00  0.00    +0.000 C 
ATOM     26  C   UNL     1      -4.779  11.594  16.924  0.00  0.00    +0.000 C 
ATOM     27  C   UNL     1      -4.709  11.069  18.359  0.00  0.00    +0.000 C 
ATOM     28  C   UNL     1      -6.134  10.776  18.849  0.00  0.00    +0.000 C 
ATOM     29  C   UNL     1      -7.095  11.951  18.655  0.00  0.00    +0.000 C 
BRANCH  24  30
ATOM     30  C   UNL     1      -7.907  13.741  17.270  0.00  0.00    +0.000 C 
BRANCH  30  31
ATOM     31  C   UNL     1      -7.274  14.966  16.590  0.00  0.00    +0.000 C 
BRANCH  31  33
ATOM     32  C   UNL     1      -7.594  15.813  18.752  0.00  0.00    +0.000 C 
ATOM     33  O   UNL     1      -6.841  15.927  17.553  0.00  0.00    +0.000 OA
ENDBRANCH  31  33
ENDBRANCH  30  31
ENDBRANCH  24  30
ENDBRANCH   1  27
TORSDOF 5
ENDMDL
MODEL 6
REMARK VINA RESULT:      -7.0      5.343     10.072
REMARK  Name = 
REMARK  6 active torsions:
REMARK  status: ('A' for Active; 'I' for Inactive)
REMARK    1  A    between atoms: C_1  and  O_2
REMARK    2  A    between atoms: O_2  and  C_3
REMARK    3  A    between atoms: C_3  and  C_4
REMARK    4  A    between atoms: C_4  and  N_5
REMARK    5  A    between atoms: C_8  and  N_9
REMARK    6  A    between atoms: C_11  and  C_12
REMARK                            x       y       z     vdW  Elec       q    Type
REMARK                         _______ _______ _______ _____ _____    ______ ____
ROOT
ATOM      1  N   UNL     1      -1.486  11.453  18.738  0.00  0.00    +0.000 N 
ATOM      2  N   UNL     1      -2.034  12.557  19.300  0.00  0.00    +0.000 NA
ATOM      3  C   UNL     1      -1.477  12.685  20.512  0.00  0.00    +0.000 A 
ATOM      4  C   UNL     1      -0.531  11.644  20.702  0.00  0.00    +0.000 A 
ATOM      5  C   UNL     1      -0.497  10.895  19.529  0.00  0.00    +0.000 A 
ATOM      6  C   UNL     1       0.398   9.738  19.308  0.00  0.00    +0.000 A 
ATOM      7  C   UNL     1       0.771   9.262  18.044  0.00  0.00    +0.000 A 
ATOM      8  C   UNL     1       1.682   8.203  17.900  0.00  0.00    +0.000 A 
ATOM      9  C   UNL     1       2.265   7.609  19.015  0.00  0.00    +0.000 A 
ATOM     10  C   UNL     1       1.929   8.064  20.280  0.00  0.00    +0.000 A 
ATOM     11  C   UNL     1       1.001   9.103  20.415  0.00  0.00    +0.000 A 
ATOM     12  S   UNL     1       0.640   9.643  22.070  0.00  0.00    +0.000 S 
ATOM     13  O   UNL     1      -0.569   8.948  22.470  0.00  0.00    +0.000 OA
ATOM     14  O   UNL     1       1.866   9.506  22.839  0.00  0.00    +0.000 OA
ATOM     15  C   UNL     1       0.309  11.381  21.895  0.00  0.00    +0.000 C 
ENDROOT
BRANCH   3  16
ATOM     16  C   UNL     1      -1.843  13.728  21.515  0.00  0.00    +0.000 C 
ATOM     17  O   UNL     1      -1.115  14.709  21.656  0.00  0.00    +0.000 OA
ATOM     18  N   UNL     1      -3.023  13.618  22.249  0.00  0.00    +0.000 N 
ATOM     19  C   UNL     1      -4.014  12.550  22.154  0.00  0.00    +0.000 C 
ATOM     20  C   UNL     1      -5.452  13.075  22.291  0.00  0.00    +0.000 C 
ATOM     21  O   UNL     1      -5.621  13.963  23.403  0.00  0.00    +0.000 OA
ATOM     22  C   UNL     1      -4.697  15.061  23.329  0.00  0.00    +0.000 C 
ATOM     23  C   UNL     1      -3.261  14.539  23.368  0.00  0.00    +0.000 C 
ENDBRANCH   3  16
BRANCH   1  27
ATOM     24  N   UNL     1      -4.927  10.457  17.590  0.00  0.00    +0.000 NA
ATOM     25  C   UNL     1      -4.406  11.825  17.554  0.00  0.00    +0.000 C 
ATOM     26  C   UNL     1      -3.051  11.950  16.864  0.00  0.00    +0.000 C 
ATOM     27  C   UNL     1      -2.008  10.996  17.445  0.00  0.00    +0.000 C 
ATOM     28  C   UNL     1      -2.580   9.571  17.439  0.00  0.00    +0.000 C 
ATOM     29  C   UNL     1      -3.959   9.470  18.094  0.00  0.00    +0.000 C 
BRANCH  24  30
ATOM     30  C   UNL     1      -6.159  10.385  18.416  0.00  0.00    +0.000 C 
BRANCH  30  31
ATOM     31  C   UNL     1      -7.032  11.651  18.441  0.00  0.00    +0.000 C 
BRANCH  31  33
ATOM     32  C   UNL     1      -7.621  10.678  20.490  0.00  0.00    +0.000 C 
ATOM     33  O   UNL     1      -7.570  11.884  19.742  0.00  0.00    +0.000 OA
ENDBRANCH  31  33
ENDBRANCH  30  31
ENDBRANCH  24  30
ENDBRANCH   1  27
TORSDOF 5
ENDMDL
MODEL 7
REMARK VINA RESULT:      -7.0      5.788      9.477
REMARK  Name = 
REMARK  6 active torsions:
REMARK  status: ('A' for Active; 'I' for Inactive)
REMARK    1  A    between atoms: C_1  and  O_2
REMARK    2  A    between atoms: O_2  and  C_3
REMARK    3  A    between atoms: C_3  and  C_4
REMARK    4  A    between atoms: C_4  and  N_5
REMARK    5  A    between atoms: C_8  and  N_9
REMARK    6  A    between atoms: C_11  and  C_12
REMARK                            x       y       z     vdW  Elec       q    Type
REMARK                         _______ _______ _______ _____ _____    ______ ____
ROOT
ATOM      1  N   UNL     1      -3.681  13.390  21.321  0.00  0.00    +0.000 N 
ATOM      2  N   UNL     1      -3.410  12.613  20.245  0.00  0.00    +0.000 NA
ATOM      3  C   UNL     1      -2.078  12.617  20.098  0.00  0.00    +0.000 A 
ATOM      4  C   UNL     1      -1.498  13.398  21.131  0.00  0.00    +0.000 A 
ATOM      5  C   UNL     1      -2.534  13.837  21.951  0.00  0.00    +0.000 A 
ATOM      6  C   UNL     1      -2.339  14.651  23.171  0.00  0.00    +0.000 A 
ATOM      7  C   UNL     1      -3.263  14.727  24.221  0.00  0.00    +0.000 A 
ATOM      8  C   UNL     1      -2.987  15.461  25.386  0.00  0.00    +0.000 A 
ATOM      9  C   UNL     1      -1.771  16.117  25.545  0.00  0.00    +0.000 A 
ATOM     10  C   UNL     1      -0.829  16.051  24.531  0.00  0.00    +0.000 A 
ATOM     11  C   UNL     1      -1.120  15.338  23.362  0.00  0.00    +0.000 A 
ATOM     12  S   UNL     1       0.149  15.285  22.119  0.00  0.00    +0.000 S 
ATOM     13  O   UNL     1      -0.167  16.335  21.169  0.00  0.00    +0.000 OA
ATOM     14  O   UNL     1       1.425  15.270  22.814  0.00  0.00    +0.000 OA
ATOM     15  C   UNL     1      -0.062  13.693  21.354  0.00  0.00    +0.000 C 
ENDROOT
BRANCH   3  16
ATOM     16  C   UNL     1      -1.339  11.947  18.987  0.00  0.00    +0.000 C 
ATOM     17  O   UNL     1      -1.332  12.464  17.871  0.00  0.00    +0.000 OA
ATOM     18  N   UNL     1      -0.622  10.775  19.222  0.00  0.00    +0.000 N 
ATOM     19  C   UNL     1      -0.487  10.075  20.496  0.00  0.00    +0.000 C 
ATOM     20  C   UNL     1       0.920   9.492  20.695  0.00  0.00    +0.000 C 
ATOM     21  O   UNL     1       1.394   8.769  19.551  0.00  0.00    +0.000 OA
ATOM     22  C   UNL     1       1.359   9.590  18.373  0.00  0.00    +0.000 C 
ATOM     23  C   UNL     1      -0.077  10.026  18.082  0.00  0.00    +0.000 C 
ENDBRANCH   3  16
BRANCH   1  27
ATOM     24  N   UNL     1      -6.889  12.815  19.441  0.00  0.00    +0.000 NA
ATOM     25  C   UNL     1      -6.271  11.839  20.341  0.00  0.00    +0.000 C 
ATOM     26  C   UNL     1      -5.934  12.400  21.719  0.00  0.00    +0.000 C 
ATOM     27  C   UNL     1      -5.085  13.670  21.643  0.00  0.00    +0.000 C 
ATOM     28  C   UNL     1      -5.781  14.676  20.716  0.00  0.00    +0.000 C 
ATOM     29  C   UNL     1      -6.153  14.086  19.354  0.00  0.00    +0.000 C 
BRANCH  24  30
ATOM     30  C   UNL     1      -7.036  12.251  18.075  0.00  0.00    +0.000 C 
BRANCH  30  31
ATOM     31  C   UNL     1      -5.792  12.329  17.174  0.00  0.00    +0.000 C 
BRANCH  31  33
ATOM     32  C   UNL     1      -4.038  11.119  16.198  0.00  0.00    +0.000 C 
ATOM     33  O   UNL     1      -5.083  11.091  17.161  0.00  0.00    +0.000 OA
ENDBRANCH  31  33
ENDBRANCH  30  31
ENDBRANCH  24  30
ENDBRANCH   1  27
TORSDOF 5
ENDMDL
MODEL 8
REMARK VINA RESULT:      -7.0      7.480     11.340
REMARK  Name = 
REMARK  6 active torsions:
REMARK  status: ('A' for Active; 'I' for Inactive)
REMARK    1  A    between atoms: C_1  and  O_2
REMARK    2  A    between atoms: O_2  and  C_3
REMARK    3  A    between atoms: C_3  and  C_4
REMARK    4  A    between atoms: C_4  and  N_5
REMARK    5  A    between atoms: C_8  and  N_9
REMARK    6  A    between atoms: C_11  and  C_12
REMARK                            x       y       z     vdW  Elec       q    Type
REMARK                         _______ _______ _______ _____ _____    ______ ____
ROOT
ATOM      1  N   UNL     1      -3.957  13.044  20.321  0.00  0.00    +0.000 N 
ATOM      2  N   UNL     1      -3.515  13.826  21.334  0.00  0.00    +0.000 NA
ATOM      3  C   UNL     1      -2.188  13.655  21.398  0.00  0.00    +0.000 A 
ATOM      4  C   UNL     1      -1.784  12.758  20.375  0.00  0.00    +0.000 A 
ATOM      5  C   UNL     1      -2.922  12.421  19.646  0.00  0.00    +0.000 A 
ATOM      6  C   UNL     1      -2.917  11.534  18.462  0.00  0.00    +0.000 A 
ATOM      7  C   UNL     1      -3.913  11.532  17.477  0.00  0.00    +0.000 A 
ATOM      8  C   UNL     1      -3.814  10.715  16.339  0.00  0.00    +0.000 A 
ATOM      9  C   UNL     1      -2.705   9.899  16.141  0.00  0.00    +0.000 A 
ATOM     10  C   UNL     1      -1.695   9.887  17.089  0.00  0.00    +0.000 A 
ATOM     11  C   UNL     1      -1.812  10.685  18.234  0.00  0.00    +0.000 A 
ATOM     12  S   UNL     1      -0.464  10.629  19.390  0.00  0.00    +0.000 S 
ATOM     13  O   UNL     1      -0.845   9.674  20.414  0.00  0.00    +0.000 OA
ATOM     14  O   UNL     1       0.753  10.444  18.618  0.00  0.00    +0.000 OA
ATOM     15  C   UNL     1      -0.417  12.268  20.079  0.00  0.00    +0.000 C 
ENDROOT
BRANCH   3  16
ATOM     16  C   UNL     1      -1.295  14.272  22.422  0.00  0.00    +0.000 C 
ATOM     17  O   UNL     1      -1.069  13.666  23.469  0.00  0.00    +0.000 OA
ATOM     18  N   UNL     1      -0.681  15.500  22.176  0.00  0.00    +0.000 N 
ATOM     19  C   UNL     1      -0.802  16.309  20.967  0.00  0.00    +0.000 C 
ATOM     20  C   UNL     1       0.522  16.988  20.585  0.00  0.00    +0.000 C 
ATOM     21  O   UNL     1       1.158  17.640  21.692  0.00  0.00    +0.000 OA
ATOM     22  C   UNL     1       1.365  16.724  22.779  0.00  0.00    +0.000 C 
ATOM     23  C   UNL     1       0.023  16.183  23.270  0.00  0.00    +0.000 C 
ENDBRANCH   3  16
BRANCH   1  27
ATOM     24  N   UNL     1      -6.927  14.215  22.310  0.00  0.00    +0.000 NA
ATOM     25  C   UNL     1      -6.245  15.016  21.292  0.00  0.00    +0.000 C 
ATOM     26  C   UNL     1      -6.078  14.300  19.956  0.00  0.00    +0.000 C 
ATOM     27  C   UNL     1      -5.404  12.935  20.102  0.00  0.00    +0.000 C 
ATOM     28  C   UNL     1      -6.165  12.117  21.155  0.00  0.00    +0.000 C 
ATOM     29  C   UNL     1      -6.364  12.865  22.475  0.00  0.00    +0.000 C 
BRANCH  24  30
ATOM     30  C   UNL     1      -6.906  14.906  23.625  0.00  0.00    +0.000 C 
BRANCH  30  31
ATOM     31  C   UNL     1      -5.709  15.836  23.881  0.00  0.00    +0.000 C 
BRANCH  31  33
ATOM     32  C   UNL     1      -3.593  15.977  24.879  0.00  0.00    +0.000 C 
ATOM     33  O   UNL     1      -4.570  15.104  24.329  0.00  0.00    +0.000 OA
ENDBRANCH  31  33
ENDBRANCH  30  31
ENDBRANCH  24  30
ENDBRANCH   1  27
TORSDOF 5
ENDMDL
MODEL 9
REMARK VINA RESULT:      -6.9      6.603     10.517
REMARK  Name = 
REMARK  6 active torsions:
REMARK  status: ('A' for Active; 'I' for Inactive)
REMARK    1  A    between atoms: C_1  and  O_2
REMARK    2  A    between atoms: O_2  and  C_3
REMARK    3  A    between atoms: C_3  and  C_4
REMARK    4  A    between atoms: C_4  and  N_5
REMARK    5  A    between atoms: C_8  and  N_9
REMARK    6  A    between atoms: C_11  and  C_12
REMARK                            x       y       z     vdW  Elec       q    Type
REMARK                         _______ _______ _______ _____ _____    ______ ____
ROOT
ATOM      1  N   UNL     1      -4.502  13.688  22.738  0.00  0.00    +0.000 N 
ATOM      2  N   UNL     1      -3.950  12.506  22.375  0.00  0.00    +0.000 NA
ATOM      3  C   UNL     1      -2.661  12.559  22.737  0.00  0.00    +0.000 A 
ATOM      4  C   UNL     1      -2.406  13.804  23.370  0.00  0.00    +0.000 A 
ATOM      5  C   UNL     1      -3.613  14.496  23.424  0.00  0.00    +0.000 A 
ATOM      6  C   UNL     1      -3.779  15.827  24.050  0.00  0.00    +0.000 A 
ATOM      7  C   UNL     1      -5.003  16.333  24.507  0.00  0.00    +0.000 A 
ATOM      8  C   UNL     1      -5.084  17.575  25.158  0.00  0.00    +0.000 A 
ATOM      9  C   UNL     1      -3.941  18.332  25.393  0.00  0.00    +0.000 A 
ATOM     10  C   UNL     1      -2.712  17.855  24.966  0.00  0.00    +0.000 A 
ATOM     11  C   UNL     1      -2.643  16.628  24.296  0.00  0.00    +0.000 A 
ATOM     12  S   UNL     1      -1.028  16.076  23.800  0.00  0.00    +0.000 S 
ATOM     13  O   UNL     1      -0.870  16.473  22.413  0.00  0.00    +0.000 OA
ATOM     14  O   UNL     1      -0.092  16.531  24.815  0.00  0.00    +0.000 OA
ATOM     15  C   UNL     1      -1.122  14.304  23.916  0.00  0.00    +0.000 C 
ENDROOT
BRANCH   3  16
ATOM     16  C   UNL     1      -1.651  11.496  22.462  0.00  0.00    +0.000 C 
ATOM     17  O   UNL     1      -1.459  10.616  23.300  0.00  0.00    +0.000 OA
ATOM     18  N   UNL     1      -0.968  11.467  21.247  0.00  0.00    +0.000 N 
ATOM     19  C   UNL     1      -1.125  12.401  20.136  0.00  0.00    +0.000 C 
ATOM     20  C   UNL     1      -1.035  11.702  18.770  0.00  0.00    +0.000 C 
ATOM     21  O   UNL     1       0.088  10.818  18.666  0.00  0.00    +0.000 OA
ATOM     22  C   UNL     1       0.075   9.843  19.723  0.00  0.00    +0.000 C 
ATOM     23  C   UNL     1       0.161  10.543  21.079  0.00  0.00    +0.000 C 
ENDBRANCH   3  16
BRANCH   1  27
ATOM     24  N   UNL     1      -6.626  12.473  19.881  0.00  0.00    +0.000 NA
ATOM     25  C   UNL     1      -6.510  11.794  21.173  0.00  0.00    +0.000 C 
ATOM     26  C   UNL     1      -6.762  12.704  22.371  0.00  0.00    +0.000 C 
ATOM     27  C   UNL     1      -5.890  13.960  22.346  0.00  0.00    +0.000 C 
ATOM     28  C   UNL     1      -6.062  14.657  20.989  0.00  0.00    +0.000 C 
ATOM     29  C   UNL     1      -5.850  13.721  19.797  0.00  0.00    +0.000 C 
BRANCH  24  30
ATOM     30  C   UNL     1      -6.207  11.574  18.775  0.00  0.00    +0.000 C 
BRANCH  30  31
ATOM     31  C   UNL     1      -4.863  11.905  18.105  0.00  0.00    +0.000 C 
BRANCH  31  33
ATOM     32  C   UNL     1      -3.725  11.060  16.239  0.00  0.00    +0.000 C 
ATOM     33  O   UNL     1      -4.917  11.682  16.697  0.00  0.00    +0.000 OA
ENDBRANCH  31  33
ENDBRANCH  30  31
ENDBRANCH  24  30
ENDBRANCH   1  27
TORSDOF 5
ENDMDL
