MODEL 1
REMARK VINA RESULT:      -7.8      0.000      0.000
REMARK  Name = 
REMARK  6 active torsions:
REMARK  status: ('A' for Active; 'I' for Inactive)
REMARK    1  A    between atoms: C_2  and  C_3
REMARK    2  A    between atoms: C_8  and  C_10
REMARK    3  A    between atoms: C_10  and  N_11
REMARK    4  A    between atoms: C_10  and  C_12
REMARK    5  A    between atoms: C_12  and  C_13
REMARK    6  A    between atoms: C_13  and  C_14
REMARK                            x       y       z     vdW  Elec       q    Type
REMARK                         _______ _______ _______ _____ _____    ______ ____
ROOT
ATOM      1  C   UNL     1       3.354   2.851  17.857  0.00  0.00    +0.000 C 
ENDROOT
BRANCH   1   2
ATOM      2  C   UNL     1       4.483   3.721  17.292  0.00  0.00    +0.000 C 
BRANCH   2   8
ATOM      3  C   UNL     1       6.313   6.207  17.037  0.00  0.00    +0.000 C 
ATOM      4  C   UNL     1       7.125   7.414  17.544  0.00  0.00    +0.000 C 
ATOM      5  C   UNL     1       8.071   6.783  18.561  0.00  0.00    +0.000 C 
ATOM      6  C   UNL     1       7.167   5.768  19.246  0.00  0.00    +0.000 C 
ATOM      7  N   UNL     1       6.270   5.298  18.194  0.00  0.00    +0.000 N 
ATOM      8  C   UNL     1       5.458   4.197  18.412  0.00  0.00    +0.000 C 
ATOM      9  O   UNL     1       5.499   3.596  19.491  0.00  0.00    +0.000 OA
BRANCH   3  11
ATOM     10  N   UNL     1       7.553   5.139  14.972  0.00  0.00    +0.000 NA
ATOM     11  C   UNL     1       7.000   5.614  15.864  0.00  0.00    +0.000 C 
ENDBRANCH   3  11
ENDBRANCH   2   8
BRANCH   2  12
ATOM     12  N   UNL     1       5.190   2.891  16.285  0.00  0.00    +0.000 NA
ATOM     13  H   UNL     1       5.983   3.433  15.929  0.00  0.00    +0.000 HD
ATOM     14  H   UNL     1       4.598   2.689  15.484  0.00  0.00    +0.000 HD
ENDBRANCH   2  12
ENDBRANCH   1   2
BRANCH   1  15
ATOM     15  C   UNL     1       2.065   3.664  18.060  0.00  0.00    +0.000 C 
BRANCH  15  16
ATOM     16  C   UNL     1       2.071   4.464  19.348  0.00  0.00    +0.000 C 
ATOM     17  O   UNL     1       2.007   3.899  20.440  0.00  0.00    +0.000 OA
ATOM     18  N   UNL     1       2.209   5.843  19.220  0.00  0.00    +0.000 N 
ATOM     19  C   UNL     1       2.271   6.541  17.927  0.00  0.00    +0.000 C 
ATOM     20  C   UNL     1       2.685   8.012  18.020  0.00  0.00    +0.000 C 
ATOM     21  C   UNL     1       1.809   8.709  19.026  0.00  0.00    +0.000 A 
ATOM     22  C   UNL     1       1.339  10.010  18.834  0.00  0.00    +0.000 A 
ATOM     23  C   UNL     1       0.518  10.599  19.796  0.00  0.00    +0.000 A 
ATOM     24  C   UNL     1       0.174   9.897  20.952  0.00  0.00    +0.000 A 
ATOM     25  C   UNL     1       0.661   8.608  21.158  0.00  0.00    +0.000 A 
ATOM     26  C   UNL     1       1.481   8.007  20.198  0.00  0.00    +0.000 A 
ATOM     27  C   UNL     1       2.089   6.647  20.436  0.00  0.00    +0.000 C 
ENDBRANCH  15  16
ENDBRANCH   1  15
TORSDOF 6
ENDMDL
MODEL 2
REMARK VINA RESULT:      -7.5      1.028      1.413
REMARK  Name = 
REMARK  6 active torsions:
REMARK  status: ('A' for Active; 'I' for Inactive)
REMARK    1  A    between atoms: C_2  and  C_3
REMARK    2  A    between atoms: C_8  and  C_10
REMARK    3  A    between atoms: C_10  and  N_11
REMARK    4  A    between atoms: C_10  and  C_12
REMARK    5  A    between atoms: C_12  and  C_13
REMARK    6  A    between atoms: C_13  and  C_14
REMARK                            x       y       z     vdW  Elec       q    Type
REMARK                         _______ _______ _______ _____ _____    ______ ____
ROOT
ATOM      1  C   UNL     1       2.735   4.045  18.218  0.00  0.00    +0.000 C 
ENDROOT
BRANCH   1   2
ATOM      2  C   UNL     1       4.109   3.690  17.636  0.00  0.00    +0.000 C 
BRANCH   2   8
ATOM      3  C   UNL     1       5.905   6.155  17.102  0.00  0.00    +0.000 C 
ATOM      4  C   UNL     1       6.808   7.346  17.477  0.00  0.00    +0.000 C 
ATOM      5  C   UNL     1       7.904   6.691  18.313  0.00  0.00    +0.000 C 
ATOM      6  C   UNL     1       7.114   5.678  19.130  0.00  0.00    +0.000 C 
ATOM      7  N   UNL     1       6.045   5.233  18.239  0.00  0.00    +0.000 N 
ATOM      8  C   UNL     1       5.266   4.139  18.580  0.00  0.00    +0.000 C 
ATOM      9  O   UNL     1       5.480   3.524  19.631  0.00  0.00    +0.000 OA
BRANCH   3  11
ATOM     10  N   UNL     1       6.764   5.101  14.845  0.00  0.00    +0.000 NA
ATOM     11  C   UNL     1       6.375   5.569  15.824  0.00  0.00    +0.000 C 
ENDBRANCH   3  11
ENDBRANCH   2   8
BRANCH   2  12
ATOM     12  N   UNL     1       4.117   2.218  17.445  0.00  0.00    +0.000 NA
ATOM     13  H   UNL     1       5.092   1.915  17.361  0.00  0.00    +0.000 HD
ATOM     14  H   UNL     1       3.657   1.951  16.579  0.00  0.00    +0.000 HD
ENDBRANCH   2  12
ENDBRANCH   1   2
BRANCH   1  15
ATOM     15  C   UNL     1       2.393   5.525  17.986  0.00  0.00    +0.000 C 
BRANCH  15  16
ATOM     16  C   UNL     1       2.173   6.288  19.277  0.00  0.00    +0.000 C 
ATOM     17  O   UNL     1       2.200   5.709  20.363  0.00  0.00    +0.000 OA
ATOM     18  N   UNL     1       2.001   7.665  19.163  0.00  0.00    +0.000 N 
ATOM     19  C   UNL     1       1.949   8.377  17.876  0.00  0.00    +0.000 C 
ATOM     20  C   UNL     1       2.018   9.902  17.992  0.00  0.00    +0.000 C 
ATOM     21  C   UNL     1       0.973  10.369  18.969  0.00  0.00    +0.000 A 
ATOM     22  C   UNL     1       0.228  11.534  18.768  0.00  0.00    +0.000 A 
ATOM     23  C   UNL     1      -0.737  11.909  19.702  0.00  0.00    +0.000 A 
ATOM     24  C   UNL     1      -0.954  11.133  20.841  0.00  0.00    +0.000 A 
ATOM     25  C   UNL     1      -0.196   9.983  21.056  0.00  0.00    +0.000 A 
ATOM     26  C   UNL     1       0.771   9.596  20.125  0.00  0.00    +0.000 A 
ATOM     27  C   UNL     1       1.661   8.404  20.377  0.00  0.00    +0.000 C 
ENDBRANCH  15  16
ENDBRANCH   1  15
TORSDOF 6
ENDMDL
MODEL 3
REMARK VINA RESULT:      -7.4      2.462      4.700
REMARK  Name = 
REMARK  6 active torsions:
REMARK  status: ('A' for Active; 'I' for Inactive)
REMARK    1  A    between atoms: C_2  and  C_3
REMARK    2  A    between atoms: C_8  and  C_10
REMARK    3  A    between atoms: C_10  and  N_11
REMARK    4  A    between atoms: C_10  and  C_12
REMARK    5  A    between atoms: C_12  and  C_13
REMARK    6  A    between atoms: C_13  and  C_14
REMARK                            x       y       z     vdW  Elec       q    Type
REMARK                         _______ _______ _______ _____ _____    ______ ____
ROOT
ATOM      1  C   UNL     1       3.700   6.464  17.544  0.00  0.00    +0.000 C 
ENDROOT
BRANCH   1   2
ATOM      2  C   UNL     1       3.737   4.946  17.754  0.00  0.00    +0.000 C 
BRANCH   2   8
ATOM      3  C   UNL     1       3.078   3.785  20.549  0.00  0.00    +0.000 C 
ATOM      4  C   UNL     1       2.179   3.430  21.749  0.00  0.00    +0.000 C 
ATOM      5  C   UNL     1       1.070   2.600  21.108  0.00  0.00    +0.000 C 
ATOM      6  C   UNL     1       0.829   3.347  19.805  0.00  0.00    +0.000 C 
ATOM      7  N   UNL     1       2.144   3.849  19.413  0.00  0.00    +0.000 N 
ATOM      8  C   UNL     1       2.336   4.387  18.151  0.00  0.00    +0.000 C 
ATOM      9  O   UNL     1       1.401   4.432  17.344  0.00  0.00    +0.000 OA
BRANCH   3  11
ATOM     10  N   UNL     1       4.924   1.932  20.234  0.00  0.00    +0.000 NA
ATOM     11  C   UNL     1       4.111   2.734  20.385  0.00  0.00    +0.000 C 
ENDBRANCH   3  11
ENDBRANCH   2   8
BRANCH   2  12
ATOM     12  N   UNL     1       4.204   4.354  16.476  0.00  0.00    +0.000 NA
ATOM     13  H   UNL     1       4.705   3.487  16.692  0.00  0.00    +0.000 HD
ATOM     14  H   UNL     1       4.870   4.961  16.004  0.00  0.00    +0.000 HD
ENDBRANCH   2  12
ENDBRANCH   1   2
BRANCH   1  15
ATOM     15  C   UNL     1       3.137   7.189  18.776  0.00  0.00    +0.000 C 
BRANCH  15  16
ATOM     16  C   UNL     1       2.208   8.330  18.414  0.00  0.00    +0.000 C 
ATOM     17  O   UNL     1       2.258   8.854  17.300  0.00  0.00    +0.000 OA
ATOM     18  N   UNL     1       1.276   8.702  19.378  0.00  0.00    +0.000 N 
ATOM     19  C   UNL     1       1.208   8.103  20.720  0.00  0.00    +0.000 C 
ATOM     20  C   UNL     1      -0.047   8.471  21.516  0.00  0.00    +0.000 C 
ATOM     21  C   UNL     1      -0.201   9.968  21.529  0.00  0.00    +0.000 A 
ATOM     22  C   UNL     1      -0.637  10.666  22.658  0.00  0.00    +0.000 A 
ATOM     23  C   UNL     1      -0.747  12.056  22.613  0.00  0.00    +0.000 A 
ATOM     24  C   UNL     1      -0.434  12.750  21.443  0.00  0.00    +0.000 A 
ATOM     25  C   UNL     1      -0.022  12.054  20.308  0.00  0.00    +0.000 A 
ATOM     26  C   UNL     1       0.095  10.662  20.343  0.00  0.00    +0.000 A 
ATOM     27  C   UNL     1       0.456   9.881  19.104  0.00  0.00    +0.000 C 
ENDBRANCH  15  16
ENDBRANCH   1  15
TORSDOF 6
ENDMDL
MODEL 4
REMARK VINA RESULT:      -7.2      2.208      4.298
REMARK  Name = 
REMARK  6 active torsions:
REMARK  status: ('A' for Active; 'I' for Inactive)
REMARK    1  A    between atoms: C_2  and  C_3
REMARK    2  A    between atoms: C_8  and  C_10
REMARK    3  A    between atoms: C_10  and  N_11
REMARK    4  A    between atoms: C_10  and  C_12
REMARK    5  A    between atoms: C_12  and  C_13
REMARK    6  A    between atoms: C_13  and  C_14
REMARK                            x       y       z     vdW  Elec       q    Type
REMARK                         _______ _______ _______ _____ _____    ______ ____
ROOT
ATOM      1  C   UNL     1       4.514   5.557  16.953  0.00  0.00    +0.000 C 
ENDROOT
BRANCH   1   2
ATOM      2  C   UNL     1       4.425   4.102  17.429  0.00  0.00    +0.000 C 
BRANCH   2   8
ATOM      3  C   UNL     1       3.330   3.554  20.274  0.00  0.00    +0.000 C 
ATOM      4  C   UNL     1       2.260   3.480  21.379  0.00  0.00    +0.000 C 
ATOM      5  C   UNL     1       1.197   2.576  20.763  0.00  0.00    +0.000 C 
ATOM      6  C   UNL     1       1.177   3.052  19.318  0.00  0.00    +0.000 C 
ATOM      7  N   UNL     1       2.561   3.419  19.027  0.00  0.00    +0.000 N 
ATOM      8  C   UNL     1       2.952   3.683  17.724  0.00  0.00    +0.000 C 
ATOM      9  O   UNL     1       2.138   3.596  16.799  0.00  0.00    +0.000 OA
BRANCH   3  11
ATOM     10  N   UNL     1       5.090   1.626  20.631  0.00  0.00    +0.000 NA
ATOM     11  C   UNL     1       4.309   2.458  20.469  0.00  0.00    +0.000 C 
ENDBRANCH   3  11
ENDBRANCH   2   8
BRANCH   2  12
ATOM     12  N   UNL     1       5.011   3.269  16.349  0.00  0.00    +0.000 NA
ATOM     13  H   UNL     1       5.159   2.327  16.721  0.00  0.00    +0.000 HD
ATOM     14  H   UNL     1       5.924   3.613  16.066  0.00  0.00    +0.000 HD
ENDBRANCH   2  12
ENDBRANCH   1   2
BRANCH   1  15
ATOM     15  C   UNL     1       4.320   6.542  18.117  0.00  0.00    +0.000 C 
BRANCH  15  16
ATOM     16  C   UNL     1       3.245   7.575  17.842  0.00  0.00    +0.000 C 
ATOM     17  O   UNL     1       3.213   8.180  16.770  0.00  0.00    +0.000 OA
ATOM     18  N   UNL     1       2.283   7.747  18.833  0.00  0.00    +0.000 N 
ATOM     19  C   UNL     1       2.309   7.047  20.127  0.00  0.00    +0.000 C 
ATOM     20  C   UNL     1       1.026   7.187  20.949  0.00  0.00    +0.000 C 
ATOM     21  C   UNL     1       0.676   8.646  21.073  0.00  0.00    +0.000 A 
ATOM     22  C   UNL     1       0.165   9.195  22.252  0.00  0.00    +0.000 A 
ATOM     23  C   UNL     1      -0.128  10.557  22.311  0.00  0.00    +0.000 A 
ATOM     24  C   UNL     1       0.078  11.371  21.196  0.00  0.00    +0.000 A 
ATOM     25  C   UNL     1       0.565  10.821  20.012  0.00  0.00    +0.000 A 
ATOM     26  C   UNL     1       0.865   9.458  19.942  0.00  0.00    +0.000 A 
ATOM     27  C   UNL     1       1.312   8.824  18.648  0.00  0.00    +0.000 C 
ENDBRANCH  15  16
ENDBRANCH   1  15
TORSDOF 6
ENDMDL
MODEL 5
REMARK VINA RESULT:      -7.1      1.460      2.254
REMARK  Name = 
REMARK  6 active torsions:
REMARK  status: ('A' for Active; 'I' for Inactive)
REMARK    1  A    between atoms: C_2  and  C_3
REMARK    2  A    between atoms: C_8  and  C_10
REMARK    3  A    between atoms: C_10  and  N_11
REMARK    4  A    between atoms: C_10  and  C_12
REMARK    5  A    between atoms: C_12  and  C_13
REMARK    6  A    between atoms: C_13  and  C_14
REMARK                            x       y       z     vdW  Elec       q    Type
REMARK                         _______ _______ _______ _____ _____    ______ ____
ROOT
ATOM      1  C   UNL     1       2.160   5.139  18.116  0.00  0.00    +0.000 C 
ENDROOT
BRANCH   1   2
ATOM      2  C   UNL     1       3.518   4.773  17.505  0.00  0.00    +0.000 C 
BRANCH   2   8
ATOM      3  C   UNL     1       6.119   6.435  17.253  0.00  0.00    +0.000 C 
ATOM      4  C   UNL     1       7.340   7.223  17.764  0.00  0.00    +0.000 C 
ATOM      5  C   UNL     1       8.035   6.218  18.678  0.00  0.00    +0.000 C 
ATOM      6  C   UNL     1       6.854   5.553  19.370  0.00  0.00    +0.000 C 
ATOM      7  N   UNL     1       5.799   5.521  18.360  0.00  0.00    +0.000 N 
ATOM      8  C   UNL     1       4.651   4.777  18.577  0.00  0.00    +0.000 C 
ATOM      9  O   UNL     1       4.518   4.124  19.618  0.00  0.00    +0.000 OA
BRANCH   3  11
ATOM     10  N   UNL     1       6.784   5.193  15.026  0.00  0.00    +0.000 NA
ATOM     11  C   UNL     1       6.486   5.722  16.005  0.00  0.00    +0.000 C 
ENDBRANCH   3  11
ENDBRANCH   2   8
BRANCH   2  12
ATOM     12  N   UNL     1       3.359   3.427  16.901  0.00  0.00    +0.000 NA
ATOM     13  H   UNL     1       3.724   3.463  15.945  0.00  0.00    +0.000 HD
ATOM     14  H   UNL     1       2.380   3.164  16.826  0.00  0.00    +0.000 HD
ENDBRANCH   2  12
ENDBRANCH   1   2
BRANCH   1  15
ATOM     15  C   UNL     1       2.049   6.650  18.373  0.00  0.00    +0.000 C 
BRANCH  15  16
ATOM     16  C   UNL     1       1.979   6.993  19.848  0.00  0.00    +0.000 C 
ATOM     17  O   UNL     1       2.255   6.151  20.704  0.00  0.00    +0.000 OA
ATOM     18  N   UNL     1       1.648   8.307  20.165  0.00  0.00    +0.000 N 
ATOM     19  C   UNL     1       1.300   9.325  19.162  0.00  0.00    +0.000 C 
ATOM     20  C   UNL     1       1.228  10.754  19.707  0.00  0.00    +0.000 C 
ATOM     21  C   UNL     1       0.326  10.778  20.911  0.00  0.00    +0.000 A 
ATOM     22  C   UNL     1      -0.559  11.829  21.162  0.00  0.00    +0.000 A 
ATOM     23  C   UNL     1      -1.381  11.789  22.289  0.00  0.00    +0.000 A 
ATOM     24  C   UNL     1      -1.315  10.709  23.170  0.00  0.00    +0.000 A 
ATOM     25  C   UNL     1      -0.416   9.670  22.935  0.00  0.00    +0.000 A 
ATOM     26  C   UNL     1       0.410   9.699  21.808  0.00  0.00    +0.000 A 
ATOM     27  C   UNL     1       1.449   8.630  21.577  0.00  0.00    +0.000 C 
ENDBRANCH  15  16
ENDBRANCH   1  15
TORSDOF 6
ENDMDL
MODEL 6
REMARK VINA RESULT:      -7.0      2.051      3.242
REMARK  Name = 
REMARK  6 active torsions:
REMARK  status: ('A' for Active; 'I' for Inactive)
REMARK    1  A    between atoms: C_2  and  C_3
REMARK    2  A    between atoms: C_8  and  C_10
REMARK    3  A    between atoms: C_10  and  N_11
REMARK    4  A    between atoms: C_10  and  C_12
REMARK    5  A    between atoms: C_12  and  C_13
REMARK    6  A    between atoms: C_13  and  C_14
REMARK                            x       y       z     vdW  Elec       q    Type
REMARK                         _______ _______ _______ _____ _____    ______ ____
ROOT
ATOM      1  C   UNL     1       2.190   6.135  18.417  0.00  0.00    +0.000 C 
ENDROOT
BRANCH   1   2
ATOM      2  C   UNL     1       3.282   5.269  17.777  0.00  0.00    +0.000 C 
BRANCH   2   8
ATOM      3  C   UNL     1       6.050   6.604  17.398  0.00  0.00    +0.000 C 
ATOM      4  C   UNL     1       7.401   7.195  17.847  0.00  0.00    +0.000 C 
ATOM      5  C   UNL     1       8.027   6.049  18.636  0.00  0.00    +0.000 C 
ATOM      6  C   UNL     1       6.828   5.490  19.388  0.00  0.00    +0.000 C 
ATOM      7  N   UNL     1       5.701   5.662  18.473  0.00  0.00    +0.000 N 
ATOM      8  C   UNL     1       4.486   5.055  18.745  0.00  0.00    +0.000 C 
ATOM      9  O   UNL     1       4.351   4.352  19.753  0.00  0.00    +0.000 OA
BRANCH   3  11
ATOM     10  N   UNL     1       6.346   5.450  15.048  0.00  0.00    +0.000 NA
ATOM     11  C   UNL     1       6.220   5.940  16.084  0.00  0.00    +0.000 C 
ENDBRANCH   3  11
ENDBRANCH   2   8
BRANCH   2  12
ATOM     12  N   UNL     1       2.643   3.976  17.427  0.00  0.00    +0.000 NA
ATOM     13  H   UNL     1       3.384   3.281  17.299  0.00  0.00    +0.000 HD
ATOM     14  H   UNL     1       2.145   4.032  16.542  0.00  0.00    +0.000 HD
ENDBRANCH   2  12
ENDBRANCH   1   2
BRANCH   1  15
ATOM     15  C   UNL     1       2.752   7.481  18.901  0.00  0.00    +0.000 C 
BRANCH  15  16
ATOM     16  C   UNL     1       1.848   8.651  18.566  0.00  0.00    +0.000 C 
ATOM     17  O   UNL     1       1.898   9.187  17.458  0.00  0.00    +0.000 OA
ATOM     18  N   UNL     1       0.938   9.033  19.546  0.00  0.00    +0.000 N 
ATOM     19  C   UNL     1       0.870   8.418  20.881  0.00  0.00    +0.000 C 
ATOM     20  C   UNL     1      -0.365   8.808  21.697  0.00  0.00    +0.000 C 
ATOM     21  C   UNL     1      -0.480  10.308  21.731  0.00  0.00    +0.000 A 
ATOM     22  C   UNL     1      -0.884  11.002  22.874  0.00  0.00    +0.000 A 
ATOM     23  C   UNL     1      -0.958  12.394  22.849  0.00  0.00    +0.000 A 
ATOM     24  C   UNL     1      -0.642  13.096  21.685  0.00  0.00    +0.000 A 
ATOM     25  C   UNL     1      -0.262  12.405  20.536  0.00  0.00    +0.000 A 
ATOM     26  C   UNL     1      -0.181  11.010  20.551  0.00  0.00    +0.000 A 
ATOM     27  C   UNL     1       0.145  10.236  19.297  0.00  0.00    +0.000 C 
ENDBRANCH  15  16
ENDBRANCH   1  15
TORSDOF 6
ENDMDL
MODEL 7
REMARK VINA RESULT:      -6.9      3.393      5.746
REMARK  Name = 
REMARK  6 active torsions:
REMARK  status: ('A' for Active; 'I' for Inactive)
REMARK    1  A    between atoms: C_2  and  C_3
REMARK    2  A    between atoms: C_8  and  C_10
REMARK    3  A    between atoms: C_10  and  N_11
REMARK    4  A    between atoms: C_10  and  C_12
REMARK    5  A    between atoms: C_12  and  C_13
REMARK    6  A    between atoms: C_13  and  C_14
REMARK                            x       y       z     vdW  Elec       q    Type
REMARK                         _______ _______ _______ _____ _____    ______ ____
ROOT
ATOM      1  C   UNL     1       2.419   8.262  18.211  0.00  0.00    +0.000 C 
ENDROOT
BRANCH   1   2
ATOM      2  C   UNL     1       2.279   6.877  18.855  0.00  0.00    +0.000 C 
BRANCH   2   8
ATOM      3  C   UNL     1       1.859   3.842  18.407  0.00  0.00    +0.000 C 
ATOM      4  C   UNL     1       2.122   2.464  17.771  0.00  0.00    +0.000 C 
ATOM      5  C   UNL     1       3.611   2.251  18.027  0.00  0.00    +0.000 C 
ATOM      6  C   UNL     1       4.176   3.643  17.781  0.00  0.00    +0.000 C 
ATOM      7  N   UNL     1       3.135   4.556  18.248  0.00  0.00    +0.000 N 
ATOM      8  C   UNL     1       3.405   5.908  18.383  0.00  0.00    +0.000 C 
ATOM      9  O   UNL     1       4.531   6.348  18.123  0.00  0.00    +0.000 OA
BRANCH   3  11
ATOM     10  N   UNL     1       1.205   3.518  20.939  0.00  0.00    +0.000 NA
ATOM     11  C   UNL     1       1.474   3.658  19.827  0.00  0.00    +0.000 C 
ENDBRANCH   3  11
ENDBRANCH   2   8
BRANCH   2  12
ATOM     12  N   UNL     1       2.336   7.088  20.323  0.00  0.00    +0.000 NA
ATOM     13  H   UNL     1       1.771   7.912  20.547  0.00  0.00    +0.000 HD
ATOM     14  H   UNL     1       3.282   7.295  20.634  0.00  0.00    +0.000 HD
ENDBRANCH   2  12
ENDBRANCH   1   2
BRANCH   1  15
ATOM     15  C   UNL     1       1.055   8.818  17.772  0.00  0.00    +0.000 C 
BRANCH  15  16
ATOM     16  C   UNL     1       0.731  10.154  18.409  0.00  0.00    +0.000 C 
ATOM     17  O   UNL     1       1.569  10.746  19.091  0.00  0.00    +0.000 OA
ATOM     18  N   UNL     1      -0.525  10.686  18.133  0.00  0.00    +0.000 N 
ATOM     19  C   UNL     1      -1.547   9.991  17.335  0.00  0.00    +0.000 C 
ATOM     20  C   UNL     1      -2.743  10.862  16.939  0.00  0.00    +0.000 C 
ATOM     21  C   UNL     1      -3.302  11.521  18.171  0.00  0.00    +0.000 A 
ATOM     22  C   UNL     1      -4.674  11.684  18.375  0.00  0.00    +0.000 A 
ATOM     23  C   UNL     1      -5.133  12.291  19.544  0.00  0.00    +0.000 A 
ATOM     24  C   UNL     1      -4.228  12.744  20.505  0.00  0.00    +0.000 A 
ATOM     25  C   UNL     1      -2.858  12.605  20.293  0.00  0.00    +0.000 A 
ATOM     26  C   UNL     1      -2.387  11.995  19.127  0.00  0.00    +0.000 A 
ATOM     27  C   UNL     1      -0.909  11.909  18.836  0.00  0.00    +0.000 C 
ENDBRANCH  15  16
ENDBRANCH   1  15
TORSDOF 6
ENDMDL
MODEL 8
REMARK VINA RESULT:      -6.9      1.336      1.637
REMARK  Name = 
REMARK  6 active torsions:
REMARK  status: ('A' for Active; 'I' for Inactive)
REMARK    1  A    between atoms: C_2  and  C_3
REMARK    2  A    between atoms: C_8  and  C_10
REMARK    3  A    between atoms: C_10  and  N_11
REMARK    4  A    between atoms: C_10  and  C_12
REMARK    5  A    between atoms: C_12  and  C_13
REMARK    6  A    between atoms: C_13  and  C_14
REMARK                            x       y       z     vdW  Elec       q    Type
REMARK                         _______ _______ _______ _____ _____    ______ ____
ROOT
ATOM      1  C   UNL     1       2.874   3.330  19.319  0.00  0.00    +0.000 C 
ENDROOT
BRANCH   1   2
ATOM      2  C   UNL     1       4.281   3.084  18.762  0.00  0.00    +0.000 C 
BRANCH   2   8
ATOM      3  C   UNL     1       4.894   5.229  16.614  0.00  0.00    +0.000 C 
ATOM      4  C   UNL     1       5.263   6.630  16.090  0.00  0.00    +0.000 C 
ATOM      5  C   UNL     1       6.580   6.923  16.802  0.00  0.00    +0.000 C 
ATOM      6  C   UNL     1       6.319   6.361  18.192  0.00  0.00    +0.000 C 
ATOM      7  N   UNL     1       5.466   5.196  17.969  0.00  0.00    +0.000 N 
ATOM      8  C   UNL     1       5.217   4.308  19.003  0.00  0.00    +0.000 C 
ATOM      9  O   UNL     1       5.727   4.486  20.114  0.00  0.00    +0.000 OA
BRANCH   3  11
ATOM     10  N   UNL     1       5.942   3.427  15.002  0.00  0.00    +0.000 NA
ATOM     11  C   UNL     1       5.478   4.203  15.717  0.00  0.00    +0.000 C 
ENDBRANCH   3  11
ENDBRANCH   2   8
BRANCH   2  12
ATOM     12  N   UNL     1       4.799   1.873  19.446  0.00  0.00    +0.000 NA
ATOM     13  H   UNL     1       5.687   2.118  19.895  0.00  0.00    +0.000 HD
ATOM     14  H   UNL     1       5.007   1.130  18.785  0.00  0.00    +0.000 HD
ENDBRANCH   2  12
ENDBRANCH   1   2
BRANCH   1  15
ATOM     15  C   UNL     1       2.303   4.671  18.832  0.00  0.00    +0.000 C 
BRANCH  15  16
ATOM     16  C   UNL     1       2.064   5.654  19.960  0.00  0.00    +0.000 C 
ATOM     17  O   UNL     1       1.956   5.263  21.123  0.00  0.00    +0.000 OA
ATOM     18  N   UNL     1       2.033   7.001  19.614  0.00  0.00    +0.000 N 
ATOM     19  C   UNL     1       2.144   7.491  18.231  0.00  0.00    +0.000 C 
ATOM     20  C   UNL     1       2.349   9.004  18.108  0.00  0.00    +0.000 C 
ATOM     21  C   UNL     1       1.284   9.711  18.902  0.00  0.00    +0.000 A 
ATOM     22  C   UNL     1       0.671  10.884  18.453  0.00  0.00    +0.000 A 
ATOM     23  C   UNL     1      -0.319  11.488  19.228  0.00  0.00    +0.000 A 
ATOM     24  C   UNL     1      -0.693  10.932  20.452  0.00  0.00    +0.000 A 
ATOM     25  C   UNL     1      -0.066   9.776  20.914  0.00  0.00    +0.000 A 
ATOM     26  C   UNL     1       0.925   9.160  20.144  0.00  0.00    +0.000 A 
ATOM     27  C   UNL     1       1.677   7.958  20.661  0.00  0.00    +0.000 C 
ENDBRANCH  15  16
ENDBRANCH   1  15
TORSDOF 6
ENDMDL
MODEL 9
REMARK VINA RESULT:      -6.9      4.765      7.183
REMARK  Name = 
REMARK  6 active torsions:
REMARK  status: ('A' for Active; 'I' for Inactive)
REMARK    1  A    between atoms: C_2  and  C_3
REMARK    2  A    between atoms: C_8  and  C_10
REMARK    3  A    between atoms: C_10  and  N_11
REMARK    4  A    between atoms: C_10  and  C_12
REMARK    5  A    between atoms: C_12  and  C_13
REMARK    6  A    between atoms: C_13  and  C_14
REMARK                            x       y       z     vdW  Elec       q    Type
REMARK                         _______ _______ _______ _____ _____    ______ ____
ROOT
ATOM      1  C   UNL     1       7.697   9.270  17.908  0.00  0.00    +0.000 C 
ENDROOT
BRANCH   1   2
ATOM      2  C   UNL     1       8.995  10.038  18.186  0.00  0.00    +0.000 C 
BRANCH   2   8
ATOM      3  C   UNL     1      11.418  11.908  17.715  0.00  0.00    +0.000 C 
ATOM      4  C   UNL     1      12.175  13.102  17.103  0.00  0.00    +0.000 C 
ATOM      5  C   UNL     1      11.291  14.290  17.472  0.00  0.00    +0.000 C 
ATOM      6  C   UNL     1       9.895  13.720  17.267  0.00  0.00    +0.000 C 
ATOM      7  N   UNL     1      10.005  12.315  17.652  0.00  0.00    +0.000 N 
ATOM      8  C   UNL     1       8.864  11.544  17.804  0.00  0.00    +0.000 C 
ATOM      9  O   UNL     1       7.747  12.043  17.629  0.00  0.00    +0.000 OA
BRANCH   3  11
ATOM     10  N   UNL     1      12.245  11.491  20.181  0.00  0.00    +0.000 NA
ATOM     11  C   UNL     1      11.892  11.688  19.102  0.00  0.00    +0.000 C 
ENDBRANCH   3  11
ENDBRANCH   2   8
BRANCH   2  12
ATOM     12  N   UNL     1       9.277   9.878  19.635  0.00  0.00    +0.000 NA
ATOM     13  H   UNL     1       8.409   9.592  20.097  0.00  0.00    +0.000 HD
ATOM     14  H   UNL     1       9.553  10.758  20.061  0.00  0.00    +0.000 HD
ENDBRANCH   2  12
ENDBRANCH   1   2
BRANCH   1  15
ATOM     15  C   UNL     1       7.983   7.848  17.399  0.00  0.00    +0.000 C 
BRANCH  15  16
ATOM     16  C   UNL     1       7.554   6.774  18.379  0.00  0.00    +0.000 C 
ATOM     17  O   UNL     1       8.347   6.321  19.204  0.00  0.00    +0.000 OA
ATOM     18  N   UNL     1       6.219   6.385  18.326  0.00  0.00    +0.000 N 
ATOM     19  C   UNL     1       5.256   6.901  17.340  0.00  0.00    +0.000 C 
ATOM     20  C   UNL     1       3.797   6.540  17.629  0.00  0.00    +0.000 C 
ATOM     21  C   UNL     1       3.689   5.054  17.838  0.00  0.00    +0.000 A 
ATOM     22  C   UNL     1       2.612   4.306  17.355  0.00  0.00    +0.000 A 
ATOM     23  C   UNL     1       2.574   2.928  17.569  0.00  0.00    +0.000 A 
ATOM     24  C   UNL     1       3.601   2.296  18.271  0.00  0.00    +0.000 A 
ATOM     25  C   UNL     1       4.664   3.042  18.775  0.00  0.00    +0.000 A 
ATOM     26  C   UNL     1       4.715   4.423  18.564  0.00  0.00    +0.000 A 
ATOM     27  C   UNL     1       5.810   5.264  19.171  0.00  0.00    +0.000 C 
ENDBRANCH  15  16
ENDBRANCH   1  15
TORSDOF 6
ENDMDL
