MODEL 1
REMARK VINA RESULT:      -7.3      0.000      0.000
REMARK  Name = 
REMARK  7 active torsions:
REMARK  status: ('A' for Active; 'I' for Inactive)
REMARK    1  A    between atoms: C_1  and  O_2
REMARK    2  A    between atoms: O_2  and  C_3
REMARK    3  A    between atoms: C_8  and  N_9
REMARK    4  A    between atoms: C_13  and  C_15
REMARK    5  A    between atoms: C_17  and  S_18
REMARK    6  A    between atoms: S_18  and  N_21
REMARK    7  A    between atoms: C_29  and  C_30
REMARK                            x       y       z     vdW  Elec       q    Type
REMARK                         _______ _______ _______ _____ _____    ______ ____
ROOT
ATOM      1  N   UNL     1       1.543  10.250  19.327  0.00  0.00    +0.000 N 
ATOM      2  C   UNL     1       1.701   9.681  20.660  0.00  0.00    +0.000 C 
ATOM      3  C   UNL     1       1.012   8.299  20.685  0.00  0.00    +0.000 C 
ATOM      4  N   UNL     1       1.517   7.458  19.593  0.00  0.00    +0.000 N 
ATOM      5  C   UNL     1       2.045   6.192  19.847  0.00  0.00    +0.000 C 
ATOM      6  O   UNL     1       2.116   5.820  21.006  0.00  0.00    +0.000 OA
ATOM      7  C   UNL     1       1.435   8.071  18.261  0.00  0.00    +0.000 C 
ATOM      8  C   UNL     1       2.093   9.442  18.255  0.00  0.00    +0.000 C 
ENDROOT
BRANCH   5   9
ATOM      9  C   UNL     1       2.580   5.257  18.774  0.00  0.00    +0.000 A 
ATOM     10  C   UNL     1       3.579   5.703  17.871  0.00  0.00    +0.000 A 
ATOM     11  C   UNL     1       4.207   4.843  16.971  0.00  0.00    +0.000 A 
ATOM     12  C   UNL     1       3.811   3.510  16.912  0.00  0.00    +0.000 A 
ATOM     13  C   UNL     1       2.769   3.056  17.710  0.00  0.00    +0.000 A 
ATOM     14  C   UNL     1       2.121   3.901  18.625  0.00  0.00    +0.000 A 
ATOM     15  C   UNL     1       0.986   3.250  19.390  0.00  0.00    +0.000 C 
BRANCH  11  16
ATOM     16  S   UNL     1       5.499   5.436  15.862  0.00  0.00    +0.000 S 
ATOM     17  O   UNL     1       5.442   4.568  14.589  0.00  0.00    +0.000 OA
ATOM     18  O   UNL     1       5.110   6.788  15.252  0.00  0.00    +0.000 OA
BRANCH  16  19
ATOM     19  N   UNL     1       7.257   5.461  16.268  0.00  0.00    +0.000 NA
ATOM     20  C   UNL     1       7.647   4.539  17.349  0.00  0.00    +0.000 C 
ATOM     21  C   UNL     1       7.194   5.058  18.727  0.00  0.00    +0.000 C 
ATOM     22  O   UNL     1       7.695   6.360  18.983  0.00  0.00    +0.000 OA
ATOM     23  C   UNL     1       7.277   7.266  17.974  0.00  0.00    +0.000 C 
ATOM     24  C   UNL     1       7.764   6.808  16.589  0.00  0.00    +0.000 C 
ENDBRANCH  16  19
ENDBRANCH  11  16
ENDBRANCH   5   9
BRANCH   1  30
ATOM     25  C   UNL     1      -0.482  11.564  18.640  0.00  0.00    +0.000 A 
ATOM     26  C   UNL     1      -1.079  12.825  18.413  0.00  0.00    +0.000 A 
ATOM     27  C   UNL     1      -0.350  14.002  18.570  0.00  0.00    +0.000 A 
ATOM     28  C   UNL     1       0.982  13.948  18.956  0.00  0.00    +0.000 A 
ATOM     29  C   UNL     1       1.589  12.717  19.201  0.00  0.00    +0.000 A 
ATOM     30  C   UNL     1       0.877  11.502  19.050  0.00  0.00    +0.000 A 
BRANCH  25  32
ATOM     31  C   UNL     1      -1.990  10.005  17.471  0.00  0.00    +0.000 C 
ATOM     32  O   UNL     1      -1.200  10.414  18.529  0.00  0.00    +0.000 OA
ENDBRANCH  25  32
ENDBRANCH   1  30
TORSDOF 5
ENDMDL
MODEL 2
REMARK VINA RESULT:      -7.2      3.457      9.574
REMARK  Name = 
REMARK  7 active torsions:
REMARK  status: ('A' for Active; 'I' for Inactive)
REMARK    1  A    between atoms: C_1  and  O_2
REMARK    2  A    between atoms: O_2  and  C_3
REMARK    3  A    between atoms: C_8  and  N_9
REMARK    4  A    between atoms: C_13  and  C_15
REMARK    5  A    between atoms: C_17  and  S_18
REMARK    6  A    between atoms: S_18  and  N_21
REMARK    7  A    between atoms: C_29  and  C_30
REMARK                            x       y       z     vdW  Elec       q    Type
REMARK                         _______ _______ _______ _____ _____    ______ ____
ROOT
ATOM      1  N   UNL     1       2.738   6.568  18.181  0.00  0.00    +0.000 N 
ATOM      2  C   UNL     1       2.138   6.180  19.452  0.00  0.00    +0.000 C 
ATOM      3  C   UNL     1       2.167   7.401  20.399  0.00  0.00    +0.000 C 
ATOM      4  N   UNL     1       1.544   8.562  19.752  0.00  0.00    +0.000 N 
ATOM      5  C   UNL     1       0.499   9.251  20.367  0.00  0.00    +0.000 C 
ATOM      6  O   UNL     1       0.087   8.836  21.438  0.00  0.00    +0.000 OA
ATOM      7  C   UNL     1       2.095   8.897  18.432  0.00  0.00    +0.000 C 
ATOM      8  C   UNL     1       2.085   7.681  17.519  0.00  0.00    +0.000 C 
ENDROOT
BRANCH   5   9
ATOM      9  C   UNL     1      -0.194  10.466  19.771  0.00  0.00    +0.000 A 
ATOM     10  C   UNL     1      -1.421  10.317  19.074  0.00  0.00    +0.000 A 
ATOM     11  C   UNL     1      -2.168  11.413  18.641  0.00  0.00    +0.000 A 
ATOM     12  C   UNL     1      -1.677  12.699  18.848  0.00  0.00    +0.000 A 
ATOM     13  C   UNL     1      -0.434  12.883  19.438  0.00  0.00    +0.000 A 
ATOM     14  C   UNL     1       0.338  11.798  19.884  0.00  0.00    +0.000 A 
ATOM     15  C   UNL     1       1.681  12.180  20.475  0.00  0.00    +0.000 C 
BRANCH  11  16
ATOM     16  S   UNL     1      -3.741  11.189  17.789  0.00  0.00    +0.000 S 
ATOM     17  O   UNL     1      -3.467  11.331  16.279  0.00  0.00    +0.000 OA
ATOM     18  O   UNL     1      -4.170   9.716  17.821  0.00  0.00    +0.000 OA
BRANCH  16  19
ATOM     19  N   UNL     1      -5.195  12.228  18.046  0.00  0.00    +0.000 NA
ATOM     20  C   UNL     1      -5.235  12.909  19.351  0.00  0.00    +0.000 C 
ATOM     21  C   UNL     1      -5.580  11.929  20.490  0.00  0.00    +0.000 C 
ATOM     22  O   UNL     1      -6.804  11.257  20.246  0.00  0.00    +0.000 OA
ATOM     23  C   UNL     1      -6.753  10.552  19.015  0.00  0.00    +0.000 C 
ATOM     24  C   UNL     1      -6.469  11.511  17.846  0.00  0.00    +0.000 C 
ENDBRANCH  16  19
ENDBRANCH  11  16
ENDBRANCH   5   9
BRANCH   1  30
ATOM     25  C   UNL     1       3.891   4.590  17.155  0.00  0.00    +0.000 A 
ATOM     26  C   UNL     1       5.060   4.044  16.576  0.00  0.00    +0.000 A 
ATOM     27  C   UNL     1       6.223   4.803  16.459  0.00  0.00    +0.000 A 
ATOM     28  C   UNL     1       6.246   6.114  16.911  0.00  0.00    +0.000 A 
ATOM     29  C   UNL     1       5.102   6.681  17.471  0.00  0.00    +0.000 A 
ATOM     30  C   UNL     1       3.904   5.938  17.606  0.00  0.00    +0.000 A 
BRANCH  25  32
ATOM     31  C   UNL     1       2.557   2.628  17.815  0.00  0.00    +0.000 C 
ATOM     32  O   UNL     1       2.742   3.869  17.235  0.00  0.00    +0.000 OA
ENDBRANCH  25  32
ENDBRANCH   1  30
TORSDOF 5
ENDMDL
MODEL 3
REMARK VINA RESULT:      -7.0      3.433      8.581
REMARK  Name = 
REMARK  7 active torsions:
REMARK  status: ('A' for Active; 'I' for Inactive)
REMARK    1  A    between atoms: C_1  and  O_2
REMARK    2  A    between atoms: O_2  and  C_3
REMARK    3  A    between atoms: C_8  and  N_9
REMARK    4  A    between atoms: C_13  and  C_15
REMARK    5  A    between atoms: C_17  and  S_18
REMARK    6  A    between atoms: S_18  and  N_21
REMARK    7  A    between atoms: C_29  and  C_30
REMARK                            x       y       z     vdW  Elec       q    Type
REMARK                         _______ _______ _______ _____ _____    ______ ____
ROOT
ATOM      1  N   UNL     1       2.592   6.713  18.186  0.00  0.00    +0.000 N 
ATOM      2  C   UNL     1       1.837   6.298  19.363  0.00  0.00    +0.000 C 
ATOM      3  C   UNL     1       1.937   7.414  20.426  0.00  0.00    +0.000 C 
ATOM      4  N   UNL     1       1.524   8.701  19.852  0.00  0.00    +0.000 N 
ATOM      5  C   UNL     1       0.524   9.467  20.452  0.00  0.00    +0.000 C 
ATOM      6  O   UNL     1      -0.029   9.017  21.442  0.00  0.00    +0.000 OA
ATOM      7  C   UNL     1       2.228   9.075  18.618  0.00  0.00    +0.000 C 
ATOM      8  C   UNL     1       2.145   7.958  17.590  0.00  0.00    +0.000 C 
ENDROOT
BRANCH   5   9
ATOM      9  C   UNL     1       0.046  10.811  19.929  0.00  0.00    +0.000 A 
ATOM     10  C   UNL     1       0.469  12.013  20.553  0.00  0.00    +0.000 A 
ATOM     11  C   UNL     1       0.181  13.269  20.022  0.00  0.00    +0.000 A 
ATOM     12  C   UNL     1      -0.593  13.362  18.868  0.00  0.00    +0.000 A 
ATOM     13  C   UNL     1      -1.108  12.213  18.282  0.00  0.00    +0.000 A 
ATOM     14  C   UNL     1      -0.833  10.936  18.795  0.00  0.00    +0.000 A 
ATOM     15  C   UNL     1      -1.503   9.798  18.051  0.00  0.00    +0.000 C 
BRANCH  11  16
ATOM     16  S   UNL     1       0.765  14.776  20.822  0.00  0.00    +0.000 S 
ATOM     17  O   UNL     1      -0.472  15.652  21.103  0.00  0.00    +0.000 OA
ATOM     18  O   UNL     1       1.194  14.490  22.267  0.00  0.00    +0.000 OA
BRANCH  16  19
ATOM     19  N   UNL     1       1.935  15.934  20.082  0.00  0.00    +0.000 NA
ATOM     20  C   UNL     1       2.118  15.773  18.630  0.00  0.00    +0.000 C 
ATOM     21  C   UNL     1       2.956  14.522  18.301  0.00  0.00    +0.000 C 
ATOM     22  O   UNL     1       4.213  14.550  18.957  0.00  0.00    +0.000 OA
ATOM     23  C   UNL     1       4.043  14.650  20.362  0.00  0.00    +0.000 C 
ATOM     24  C   UNL     1       3.260  15.921  20.731  0.00  0.00    +0.000 C 
ENDBRANCH  16  19
ENDBRANCH  11  16
ENDBRANCH   5   9
BRANCH   1  30
ATOM     25  C   UNL     1       3.620   4.621  17.258  0.00  0.00    +0.000 A 
ATOM     26  C   UNL     1       4.751   3.977  16.705  0.00  0.00    +0.000 A 
ATOM     27  C   UNL     1       5.957   4.658  16.549  0.00  0.00    +0.000 A 
ATOM     28  C   UNL     1       6.060   5.987  16.935  0.00  0.00    +0.000 A 
ATOM     29  C   UNL     1       4.955   6.648  17.467  0.00  0.00    +0.000 A 
ATOM     30  C   UNL     1       3.715   5.986  17.642  0.00  0.00    +0.000 A 
BRANCH  25  32
ATOM     31  C   UNL     1       2.177   2.766  17.997  0.00  0.00    +0.000 C 
ATOM     32  O   UNL     1       2.429   3.974  17.376  0.00  0.00    +0.000 OA
ENDBRANCH  25  32
ENDBRANCH   1  30
TORSDOF 5
ENDMDL
MODEL 4
REMARK VINA RESULT:      -6.9      3.182      5.293
REMARK  Name = 
REMARK  7 active torsions:
REMARK  status: ('A' for Active; 'I' for Inactive)
REMARK    1  A    between atoms: C_1  and  O_2
REMARK    2  A    between atoms: O_2  and  C_3
REMARK    3  A    between atoms: C_8  and  N_9
REMARK    4  A    between atoms: C_13  and  C_15
REMARK    5  A    between atoms: C_17  and  S_18
REMARK    6  A    between atoms: S_18  and  N_21
REMARK    7  A    between atoms: C_29  and  C_30
REMARK                            x       y       z     vdW  Elec       q    Type
REMARK                         _______ _______ _______ _____ _____    ______ ____
ROOT
ATOM      1  N   UNL     1      -2.717  11.847  19.175  0.00  0.00    +0.000 N 
ATOM      2  C   UNL     1      -1.933  12.407  20.270  0.00  0.00    +0.000 C 
ATOM      3  C   UNL     1      -1.363  11.241  21.108  0.00  0.00    +0.000 C 
ATOM      4  N   UNL     1      -0.634  10.303  20.246  0.00  0.00    +0.000 N 
ATOM      5  C   UNL     1       0.688   9.953  20.522  0.00  0.00    +0.000 C 
ATOM      6  O   UNL     1       1.236  10.482  21.475  0.00  0.00    +0.000 OA
ATOM      7  C   UNL     1      -1.399   9.808  19.094  0.00  0.00    +0.000 C 
ATOM      8  C   UNL     1      -1.977  10.964  18.293  0.00  0.00    +0.000 C 
ENDROOT
BRANCH   5   9
ATOM      9  C   UNL     1       1.510   8.985  19.687  0.00  0.00    +0.000 A 
ATOM     10  C   UNL     1       1.701   7.649  20.124  0.00  0.00    +0.000 A 
ATOM     11  C   UNL     1       2.316   6.686  19.325  0.00  0.00    +0.000 A 
ATOM     12  C   UNL     1       2.810   7.049  18.075  0.00  0.00    +0.000 A 
ATOM     13  C   UNL     1       2.731   8.370  17.652  0.00  0.00    +0.000 A 
ATOM     14  C   UNL     1       2.116   9.358  18.436  0.00  0.00    +0.000 A 
ATOM     15  C   UNL     1       2.147  10.750  17.835  0.00  0.00    +0.000 C 
BRANCH  11  16
ATOM     16  S   UNL     1       2.510   4.987  19.897  0.00  0.00    +0.000 S 
ATOM     17  O   UNL     1       2.263   4.987  21.419  0.00  0.00    +0.000 OA
ATOM     18  O   UNL     1       1.318   4.127  19.457  0.00  0.00    +0.000 OA
BRANCH  16  19
ATOM     19  N   UNL     1       4.025   4.020  19.722  0.00  0.00    +0.000 NA
ATOM     20  C   UNL     1       4.701   4.175  18.423  0.00  0.00    +0.000 C 
ATOM     21  C   UNL     1       3.949   3.431  17.302  0.00  0.00    +0.000 C 
ATOM     22  O   UNL     1       3.781   2.058  17.611  0.00  0.00    +0.000 OA
ATOM     23  C   UNL     1       3.081   1.901  18.836  0.00  0.00    +0.000 C 
ATOM     24  C   UNL     1       3.835   2.583  19.990  0.00  0.00    +0.000 C 
ENDBRANCH  16  19
ENDBRANCH  11  16
ENDBRANCH   5   9
BRANCH   1  30
ATOM     25  C   UNL     1      -4.996  12.453  20.029  0.00  0.00    +0.000 A 
ATOM     26  C   UNL     1      -6.356  12.722  19.748  0.00  0.00    +0.000 A 
ATOM     27  C   UNL     1      -6.850  12.633  18.448  0.00  0.00    +0.000 A 
ATOM     28  C   UNL     1      -6.004  12.279  17.406  0.00  0.00    +0.000 A 
ATOM     29  C   UNL     1      -4.656  12.026  17.655  0.00  0.00    +0.000 A 
ATOM     30  C   UNL     1      -4.122  12.106  18.964  0.00  0.00    +0.000 A 
BRANCH  25  32
ATOM     31  C   UNL     1      -4.979  13.369  22.316  0.00  0.00    +0.000 C 
ATOM     32  O   UNL     1      -4.500  12.578  21.289  0.00  0.00    +0.000 OA
ENDBRANCH  25  32
ENDBRANCH   1  30
TORSDOF 5
ENDMDL
MODEL 5
REMARK VINA RESULT:      -6.9      1.041      1.641
REMARK  Name = 
REMARK  7 active torsions:
REMARK  status: ('A' for Active; 'I' for Inactive)
REMARK    1  A    between atoms: C_1  and  O_2
REMARK    2  A    between atoms: O_2  and  C_3
REMARK    3  A    between atoms: C_8  and  N_9
REMARK    4  A    between atoms: C_13  and  C_15
REMARK    5  A    between atoms: C_17  and  S_18
REMARK    6  A    between atoms: S_18  and  N_21
REMARK    7  A    between atoms: C_29  and  C_30
REMARK                            x       y       z     vdW  Elec       q    Type
REMARK                         _______ _______ _______ _____ _____    ______ ____
ROOT
ATOM      1  N   UNL     1       1.201  10.007  19.801  0.00  0.00    +0.000 N 
ATOM      2  C   UNL     1       1.623   9.402  21.058  0.00  0.00    +0.000 C 
ATOM      3  C   UNL     1       1.096   7.950  21.103  0.00  0.00    +0.000 C 
ATOM      4  N   UNL     1       1.511   7.221  19.898  0.00  0.00    +0.000 N 
ATOM      5  C   UNL     1       2.202   6.013  19.993  0.00  0.00    +0.000 C 
ATOM      6  O   UNL     1       2.492   5.601  21.104  0.00  0.00    +0.000 OA
ATOM      7  C   UNL     1       1.159   7.878  18.633  0.00  0.00    +0.000 C 
ATOM      8  C   UNL     1       1.660   9.313  18.612  0.00  0.00    +0.000 C 
ENDROOT
BRANCH   5   9
ATOM      9  C   UNL     1       2.659   5.192  18.798  0.00  0.00    +0.000 A 
ATOM     10  C   UNL     1       3.646   5.703  17.916  0.00  0.00    +0.000 A 
ATOM     11  C   UNL     1       4.205   4.932  16.897  0.00  0.00    +0.000 A 
ATOM     12  C   UNL     1       3.749   3.632  16.696  0.00  0.00    +0.000 A 
ATOM     13  C   UNL     1       2.715   3.129  17.475  0.00  0.00    +0.000 A 
ATOM     14  C   UNL     1       2.136   3.883  18.507  0.00  0.00    +0.000 A 
ATOM     15  C   UNL     1       0.999   3.191  19.233  0.00  0.00    +0.000 C 
BRANCH  11  16
ATOM     16  S   UNL     1       5.485   5.601  15.817  0.00  0.00    +0.000 S 
ATOM     17  O   UNL     1       5.452   4.784  14.510  0.00  0.00    +0.000 OA
ATOM     18  O   UNL     1       5.064   6.967  15.261  0.00  0.00    +0.000 OA
BRANCH  16  19
ATOM     19  N   UNL     1       7.241   5.653  16.230  0.00  0.00    +0.000 NA
ATOM     20  C   UNL     1       7.685   4.588  17.145  0.00  0.00    +0.000 C 
ATOM     21  C   UNL     1       7.210   4.848  18.588  0.00  0.00    +0.000 C 
ATOM     22  O   UNL     1       7.642   6.115  19.057  0.00  0.00    +0.000 OA
ATOM     23  C   UNL     1       7.172   7.151  18.210  0.00  0.00    +0.000 C 
ATOM     24  C   UNL     1       7.677   6.954  16.770  0.00  0.00    +0.000 C 
ENDBRANCH  16  19
ENDBRANCH  11  16
ENDBRANCH   5   9
BRANCH   1  30
ATOM     25  C   UNL     1       0.917  12.477  19.464  0.00  0.00    +0.000 A 
ATOM     26  C   UNL     1       0.046  13.585  19.351  0.00  0.00    +0.000 A 
ATOM     27  C   UNL     1      -1.332  13.430  19.490  0.00  0.00    +0.000 A 
ATOM     28  C   UNL     1      -1.868  12.174  19.739  0.00  0.00    +0.000 A 
ATOM     29  C   UNL     1      -1.032  11.064  19.837  0.00  0.00    +0.000 A 
ATOM     30  C   UNL     1       0.373  11.186  19.703  0.00  0.00    +0.000 A 
BRANCH  25  32
ATOM     31  C   UNL     1       2.920  13.239  18.248  0.00  0.00    +0.000 C 
ATOM     32  O   UNL     1       2.259  12.615  19.289  0.00  0.00    +0.000 OA
ENDBRANCH  25  32
ENDBRANCH   1  30
TORSDOF 5
ENDMDL
MODEL 6
REMARK VINA RESULT:      -6.9      2.985      5.020
REMARK  Name = 
REMARK  7 active torsions:
REMARK  status: ('A' for Active; 'I' for Inactive)
REMARK    1  A    between atoms: C_1  and  O_2
REMARK    2  A    between atoms: O_2  and  C_3
REMARK    3  A    between atoms: C_8  and  N_9
REMARK    4  A    between atoms: C_13  and  C_15
REMARK    5  A    between atoms: C_17  and  S_18
REMARK    6  A    between atoms: S_18  and  N_21
REMARK    7  A    between atoms: C_29  and  C_30
REMARK                            x       y       z     vdW  Elec       q    Type
REMARK                         _______ _______ _______ _____ _____    ______ ____
ROOT
ATOM      1  N   UNL     1      -2.492  11.987  19.546  0.00  0.00    +0.000 N 
ATOM      2  C   UNL     1      -1.665  12.432  20.662  0.00  0.00    +0.000 C 
ATOM      3  C   UNL     1      -1.158  11.186  21.422  0.00  0.00    +0.000 C 
ATOM      4  N   UNL     1      -0.495  10.260  20.495  0.00  0.00    +0.000 N 
ATOM      5  C   UNL     1       0.806   9.816  20.733  0.00  0.00    +0.000 C 
ATOM      6  O   UNL     1       1.394  10.253  21.707  0.00  0.00    +0.000 OA
ATOM      7  C   UNL     1      -1.300   9.882  19.327  0.00  0.00    +0.000 C 
ATOM      8  C   UNL     1      -1.816  11.116  18.603  0.00  0.00    +0.000 C 
ENDROOT
BRANCH   5   9
ATOM      9  C   UNL     1       1.560   8.853  19.830  0.00  0.00    +0.000 A 
ATOM     10  C   UNL     1       1.775   7.512  20.238  0.00  0.00    +0.000 A 
ATOM     11  C   UNL     1       2.326   6.554  19.387  0.00  0.00    +0.000 A 
ATOM     12  C   UNL     1       2.730   6.928  18.109  0.00  0.00    +0.000 A 
ATOM     13  C   UNL     1       2.626   8.253  17.706  0.00  0.00    +0.000 A 
ATOM     14  C   UNL     1       2.075   9.236  18.542  0.00  0.00    +0.000 A 
ATOM     15  C   UNL     1       2.070  10.634  17.954  0.00  0.00    +0.000 C 
BRANCH  11  16
ATOM     16  S   UNL     1       2.552   4.848  19.927  0.00  0.00    +0.000 S 
ATOM     17  O   UNL     1       2.320   4.817  21.450  0.00  0.00    +0.000 OA
ATOM     18  O   UNL     1       1.370   3.977  19.483  0.00  0.00    +0.000 OA
BRANCH  16  19
ATOM     19  N   UNL     1       4.080   3.909  19.720  0.00  0.00    +0.000 NA
ATOM     20  C   UNL     1       4.769   4.138  18.439  0.00  0.00    +0.000 C 
ATOM     21  C   UNL     1       4.039   3.444  17.273  0.00  0.00    +0.000 C 
ATOM     22  O   UNL     1       3.883   2.055  17.509  0.00  0.00    +0.000 OA
ATOM     23  C   UNL     1       3.172   1.827  18.716  0.00  0.00    +0.000 C 
ATOM     24  C   UNL     1       3.905   2.458  19.912  0.00  0.00    +0.000 C 
ENDBRANCH  16  19
ENDBRANCH  11  16
ENDBRANCH   5   9
BRANCH   1  30
ATOM     25  C   UNL     1      -4.666  11.823  18.305  0.00  0.00    +0.000 A 
ATOM     26  C   UNL     1      -6.028  12.190  18.209  0.00  0.00    +0.000 A 
ATOM     27  C   UNL     1      -6.603  13.062  19.131  0.00  0.00    +0.000 A 
ATOM     28  C   UNL     1      -5.837  13.583  20.165  0.00  0.00    +0.000 A 
ATOM     29  C   UNL     1      -4.496  13.223  20.292  0.00  0.00    +0.000 A 
ATOM     30  C   UNL     1      -3.881  12.341  19.371  0.00  0.00    +0.000 A 
BRANCH  25  32
ATOM     31  C   UNL     1      -4.136  10.983  16.051  0.00  0.00    +0.000 C 
ATOM     32  O   UNL     1      -4.111  10.941  17.432  0.00  0.00    +0.000 OA
ENDBRANCH  25  32
ENDBRANCH   1  30
TORSDOF 5
ENDMDL
MODEL 7
REMARK VINA RESULT:      -6.9      3.685      9.363
REMARK  Name = 
REMARK  7 active torsions:
REMARK  status: ('A' for Active; 'I' for Inactive)
REMARK    1  A    between atoms: C_1  and  O_2
REMARK    2  A    between atoms: O_2  and  C_3
REMARK    3  A    between atoms: C_8  and  N_9
REMARK    4  A    between atoms: C_13  and  C_15
REMARK    5  A    between atoms: C_17  and  S_18
REMARK    6  A    between atoms: S_18  and  N_21
REMARK    7  A    between atoms: C_29  and  C_30
REMARK                            x       y       z     vdW  Elec       q    Type
REMARK                         _______ _______ _______ _____ _____    ______ ____
ROOT
ATOM      1  N   UNL     1       2.652   6.684  18.165  0.00  0.00    +0.000 N 
ATOM      2  C   UNL     1       1.891   6.202  19.312  0.00  0.00    +0.000 C 
ATOM      3  C   UNL     1       1.970   7.263  20.431  0.00  0.00    +0.000 C 
ATOM      4  N   UNL     1       1.549   8.574  19.921  0.00  0.00    +0.000 N 
ATOM      5  C   UNL     1       0.536   9.298  20.550  0.00  0.00    +0.000 C 
ATOM      6  O   UNL     1      -0.022   8.792  21.509  0.00  0.00    +0.000 OA
ATOM      7  C   UNL     1       2.259   9.017  18.714  0.00  0.00    +0.000 C 
ATOM      8  C   UNL     1       2.198   7.954  17.629  0.00  0.00    +0.000 C 
ENDROOT
BRANCH   5   9
ATOM      9  C   UNL     1       0.048  10.662  20.091  0.00  0.00    +0.000 A 
ATOM     10  C   UNL     1       0.350  11.821  20.852  0.00  0.00    +0.000 A 
ATOM     11  C   UNL     1       0.056  13.107  20.397  0.00  0.00    +0.000 A 
ATOM     12  C   UNL     1      -0.603  13.268  19.182  0.00  0.00    +0.000 A 
ATOM     13  C   UNL     1      -1.003  12.154  18.454  0.00  0.00    +0.000 A 
ATOM     14  C   UNL     1      -0.719  10.850  18.887  0.00  0.00    +0.000 A 
ATOM     15  C   UNL     1      -1.257   9.755  17.988  0.00  0.00    +0.000 C 
BRANCH  11  16
ATOM     16  S   UNL     1       0.486  14.561  21.373  0.00  0.00    +0.000 S 
ATOM     17  O   UNL     1       1.829  14.262  22.069  0.00  0.00    +0.000 OA
ATOM     18  O   UNL     1       0.933  15.712  20.463  0.00  0.00    +0.000 OA
BRANCH  16  19
ATOM     19  N   UNL     1      -0.531  15.229  22.706  0.00  0.00    +0.000 NA
ATOM     20  C   UNL     1      -1.189  14.211  23.542  0.00  0.00    +0.000 C 
ATOM     21  C   UNL     1      -2.369  13.550  22.804  0.00  0.00    +0.000 C 
ATOM     22  O   UNL     1      -3.313  14.512  22.365  0.00  0.00    +0.000 OA
ATOM     23  C   UNL     1      -2.697  15.467  21.514  0.00  0.00    +0.000 C 
ATOM     24  C   UNL     1      -1.549  16.189  22.239  0.00  0.00    +0.000 C 
ENDBRANCH  16  19
ENDBRANCH  11  16
ENDBRANCH   5   9
BRANCH   1  30
ATOM     25  C   UNL     1       3.724   4.636  17.190  0.00  0.00    +0.000 A 
ATOM     26  C   UNL     1       4.865   4.034  16.612  0.00  0.00    +0.000 A 
ATOM     27  C   UNL     1       6.050   4.749  16.452  0.00  0.00    +0.000 A 
ATOM     28  C   UNL     1       6.123   6.073  16.860  0.00  0.00    +0.000 A 
ATOM     29  C   UNL     1       5.007   6.695  17.417  0.00  0.00    +0.000 A 
ATOM     30  C   UNL     1       3.787   5.997  17.595  0.00  0.00    +0.000 A 
BRANCH  25  32
ATOM     31  C   UNL     1       2.348   2.712  17.876  0.00  0.00    +0.000 C 
ATOM     32  O   UNL     1       2.553   3.956  17.310  0.00  0.00    +0.000 OA
ENDBRANCH  25  32
ENDBRANCH   1  30
TORSDOF 5
ENDMDL
MODEL 8
REMARK VINA RESULT:      -6.9      3.669      9.226
REMARK  Name = 
REMARK  7 active torsions:
REMARK  status: ('A' for Active; 'I' for Inactive)
REMARK    1  A    between atoms: C_1  and  O_2
REMARK    2  A    between atoms: O_2  and  C_3
REMARK    3  A    between atoms: C_8  and  N_9
REMARK    4  A    between atoms: C_13  and  C_15
REMARK    5  A    between atoms: C_17  and  S_18
REMARK    6  A    between atoms: S_18  and  N_21
REMARK    7  A    between atoms: C_29  and  C_30
REMARK                            x       y       z     vdW  Elec       q    Type
REMARK                         _______ _______ _______ _____ _____    ______ ____
ROOT
ATOM      1  N   UNL     1       2.517   6.771  19.658  0.00  0.00    +0.000 N 
ATOM      2  C   UNL     1       3.148   7.349  18.477  0.00  0.00    +0.000 C 
ATOM      3  C   UNL     1       2.106   8.225  17.746  0.00  0.00    +0.000 C 
ATOM      4  N   UNL     1       1.522   9.202  18.674  0.00  0.00    +0.000 N 
ATOM      5  C   UNL     1       1.536  10.566  18.382  0.00  0.00    +0.000 C 
ATOM      6  O   UNL     1       2.086  10.929  17.356  0.00  0.00    +0.000 OA
ATOM      7  C   UNL     1       0.965   8.622  19.903  0.00  0.00    +0.000 C 
ATOM      8  C   UNL     1       1.990   7.741  20.598  0.00  0.00    +0.000 C 
ENDROOT
BRANCH   5   9
ATOM      9  C   UNL     1       0.947  11.640  19.282  0.00  0.00    +0.000 A 
ATOM     10  C   UNL     1       1.799  12.540  19.972  0.00  0.00    +0.000 A 
ATOM     11  C   UNL     1       1.306  13.632  20.687  0.00  0.00    +0.000 A 
ATOM     12  C   UNL     1      -0.069  13.824  20.777  0.00  0.00    +0.000 A 
ATOM     13  C   UNL     1      -0.940  12.909  20.199  0.00  0.00    +0.000 A 
ATOM     14  C   UNL     1      -0.470  11.803  19.473  0.00  0.00    +0.000 A 
ATOM     15  C   UNL     1      -1.557  10.892  18.939  0.00  0.00    +0.000 C 
BRANCH  11  16
ATOM     16  S   UNL     1       2.420  14.778  21.522  0.00  0.00    +0.000 S 
ATOM     17  O   UNL     1       1.651  15.372  22.718  0.00  0.00    +0.000 OA
ATOM     18  O   UNL     1       3.509  14.015  22.287  0.00  0.00    +0.000 OA
BRANCH  16  19
ATOM     19  N   UNL     1       3.160  16.229  20.742  0.00  0.00    +0.000 NA
ATOM     20  C   UNL     1       2.296  17.422  20.731  0.00  0.00    +0.000 C 
ATOM     21  C   UNL     1       1.162  17.289  19.695  0.00  0.00    +0.000 C 
ATOM     22  O   UNL     1       1.671  17.034  18.397  0.00  0.00    +0.000 OA
ATOM     23  C   UNL     1       2.459  15.855  18.389  0.00  0.00    +0.000 C 
ATOM     24  C   UNL     1       3.638  15.976  19.370  0.00  0.00    +0.000 C 
ENDBRANCH  16  19
ENDBRANCH  11  16
ENDBRANCH   5   9
BRANCH   1  30
ATOM     25  C   UNL     1       3.494   4.466  19.829  0.00  0.00    +0.000 A 
ATOM     26  C   UNL     1       3.299   3.093  20.103  0.00  0.00    +0.000 A 
ATOM     27  C   UNL     1       2.035   2.597  20.419  0.00  0.00    +0.000 A 
ATOM     28  C   UNL     1       0.946   3.455  20.472  0.00  0.00    +0.000 A 
ATOM     29  C   UNL     1       1.115   4.816  20.223  0.00  0.00    +0.000 A 
ATOM     30  C   UNL     1       2.385   5.352  19.897  0.00  0.00    +0.000 A 
BRANCH  25  32
ATOM     31  C   UNL     1       5.583   4.605  18.531  0.00  0.00    +0.000 C 
ATOM     32  O   UNL     1       4.731   4.962  19.560  0.00  0.00    +0.000 OA
ENDBRANCH  25  32
ENDBRANCH   1  30
TORSDOF 5
ENDMDL
MODEL 9
REMARK VINA RESULT:      -6.8      1.585      2.729
REMARK  Name = 
REMARK  7 active torsions:
REMARK  status: ('A' for Active; 'I' for Inactive)
REMARK    1  A    between atoms: C_1  and  O_2
REMARK    2  A    between atoms: O_2  and  C_3
REMARK    3  A    between atoms: C_8  and  N_9
REMARK    4  A    between atoms: C_13  and  C_15
REMARK    5  A    between atoms: C_17  and  S_18
REMARK    6  A    between atoms: S_18  and  N_21
REMARK    7  A    between atoms: C_29  and  C_30
REMARK                            x       y       z     vdW  Elec       q    Type
REMARK                         _______ _______ _______ _____ _____    ______ ____
ROOT
ATOM      1  N   UNL     1       1.156   9.314  19.684  0.00  0.00    +0.000 N 
ATOM      2  C   UNL     1       1.155   8.794  21.046  0.00  0.00    +0.000 C 
ATOM      3  C   UNL     1       0.771   7.298  20.998  0.00  0.00    +0.000 C 
ATOM      4  N   UNL     1       1.646   6.578  20.064  0.00  0.00    +0.000 N 
ATOM      5  C   UNL     1       2.359   5.451  20.473  0.00  0.00    +0.000 C 
ATOM      6  O   UNL     1       2.270   5.105  21.640  0.00  0.00    +0.000 OA
ATOM      7  C   UNL     1       1.711   7.157  18.716  0.00  0.00    +0.000 C 
ATOM      8  C   UNL     1       2.063   8.634  18.778  0.00  0.00    +0.000 C 
ENDROOT
BRANCH   5   9
ATOM      9  C   UNL     1       3.277   4.645  19.569  0.00  0.00    +0.000 A 
ATOM     10  C   UNL     1       4.556   5.149  19.218  0.00  0.00    +0.000 A 
ATOM     11  C   UNL     1       5.491   4.386  18.519  0.00  0.00    +0.000 A 
ATOM     12  C   UNL     1       5.149   3.103  18.100  0.00  0.00    +0.000 A 
ATOM     13  C   UNL     1       3.873   2.609  18.339  0.00  0.00    +0.000 A 
ATOM     14  C   UNL     1       2.914   3.356  19.041  0.00  0.00    +0.000 A 
ATOM     15  C   UNL     1       1.566   2.677  19.183  0.00  0.00    +0.000 C 
BRANCH  11  16
ATOM     16  S   UNL     1       7.121   5.045  18.119  0.00  0.00    +0.000 S 
ATOM     17  O   UNL     1       7.644   5.763  19.380  0.00  0.00    +0.000 OA
ATOM     18  O   UNL     1       8.156   3.917  18.034  0.00  0.00    +0.000 OA
BRANCH  16  19
ATOM     19  N   UNL     1       7.442   6.236  16.801  0.00  0.00    +0.000 NA
ATOM     20  C   UNL     1       6.645   7.471  16.886  0.00  0.00    +0.000 C 
ATOM     21  C   UNL     1       5.179   7.227  16.478  0.00  0.00    +0.000 C 
ATOM     22  O   UNL     1       5.087   6.667  15.178  0.00  0.00    +0.000 OA
ATOM     23  C   UNL     1       5.809   5.447  15.104  0.00  0.00    +0.000 C 
ATOM     24  C   UNL     1       7.292   5.666  15.449  0.00  0.00    +0.000 C 
ENDBRANCH  16  19
ENDBRANCH  11  16
ENDBRANCH   5   9
BRANCH   1  30
ATOM     25  C   UNL     1       0.574  11.752  19.577  0.00  0.00    +0.000 A 
ATOM     26  C   UNL     1      -0.269  12.768  19.071  0.00  0.00    +0.000 A 
ATOM     27  C   UNL     1      -1.352  12.458  18.252  0.00  0.00    +0.000 A 
ATOM     28  C   UNL     1      -1.615  11.137  17.918  0.00  0.00    +0.000 A 
ATOM     29  C   UNL     1      -0.789  10.119  18.390  0.00  0.00    +0.000 A 
ATOM     30  C   UNL     1       0.319  10.399  19.227  0.00  0.00    +0.000 A 
BRANCH  25  32
ATOM     31  C   UNL     1       2.274  13.279  20.498  0.00  0.00    +0.000 C 
ATOM     32  O   UNL     1       1.656  12.052  20.344  0.00  0.00    +0.000 OA
ENDBRANCH  25  32
ENDBRANCH   1  30
TORSDOF 5
ENDMDL
