MODEL 1
REMARK VINA RESULT:      -9.0      0.000      0.000
REMARK  Name = 
REMARK  8 active torsions:
REMARK  status: ('A' for Active; 'I' for Inactive)
REMARK    1  A    between atoms: C_1  and  C_2
REMARK    2  A    between atoms: C_2  and  C_3
REMARK    3  A    between atoms: C_3  and  C_4
REMARK    4  A    between atoms: C_4  and  C_5
REMARK    5  A    between atoms: C_5  and  C_6
REMARK    6  A    between atoms: C_9  and  N_10
REMARK    7  A    between atoms: N_10  and  C_11
REMARK    8  A    between atoms: N_19  and  C_20
REMARK                            x       y       z     vdW  Elec       q    Type
REMARK                         _______ _______ _______ _____ _____    ______ ____
ROOT
ATOM      1  C   UNL     1       6.934   7.060  17.863  0.00  0.00    +0.000 A 
ATOM      2  C   UNL     1       7.685   6.233  18.699  0.00  0.00    +0.000 A 
ATOM      3  C   UNL     1       8.041   4.974  18.207  0.00  0.00    +0.000 A 
ATOM      4  C   UNL     1       7.541   4.537  16.972  0.00  0.00    +0.000 A 
ATOM      5  C   UNL     1       6.543   5.293  16.348  0.00  0.00    +0.000 A 
ATOM      6  C   UNL     1       6.063   6.427  16.968  0.00  0.00    +0.000 A 
ATOM      7  C   UNL     1       4.663   6.030  17.330  0.00  0.00    +0.000 C 
ATOM      8  O   UNL     1       3.943   6.643  18.101  0.00  0.00    +0.000 OA
ATOM      9  N   UNL     1       4.403   4.814  16.740  0.00  0.00    +0.000 N 
ATOM     10  C   UNL     1       5.378   4.600  15.823  0.00  0.00    +0.000 C 
ATOM     11  O   UNL     1       5.292   4.115  14.710  0.00  0.00    +0.000 OA
ENDROOT
BRANCH   9  12
ATOM     12  C   UNL     1       3.910   3.674  17.487  0.00  0.00    +0.000 C 
ATOM     13  C   UNL     1       2.456   3.274  17.310  0.00  0.00    +0.000 C 
ATOM     14  C   UNL     1       1.538   4.272  17.985  0.00  0.00    +0.000 C 
ATOM     15  C   UNL     1       1.907   4.498  19.434  0.00  0.00    +0.000 C 
ATOM     16  O   UNL     1       1.108   4.938  20.254  0.00  0.00    +0.000 OA
ATOM     17  N   UNL     1       3.203   4.196  19.798  0.00  0.00    +0.000 N 
ATOM     18  C   UNL     1       4.214   3.757  19.000  0.00  0.00    +0.000 C 
ATOM     19  O   UNL     1       5.353   3.556  19.460  0.00  0.00    +0.000 OA
ATOM     20  H   UNL     1       3.422   4.349  20.774  0.00  0.00    +0.000 HD
ENDBRANCH   9  12
BRANCH   1  21
ATOM     21  N   UNL     1       7.774   8.115  17.312  0.00  0.00    +0.000 N 
ATOM     22  H   UNL     1       8.480   7.763  16.670  0.00  0.00    +0.000 HD
BRANCH  21  26
ATOM     23  C   UNL     1       9.409  11.552  19.034  0.00  0.00    +0.000 A 
ATOM     24  C   UNL     1       9.535  10.320  19.690  0.00  0.00    +0.000 A 
ATOM     25  C   UNL     1       8.951   9.182  19.158  0.00  0.00    +0.000 A 
ATOM     26  C   UNL     1       8.218   9.265  17.973  0.00  0.00    +0.000 A 
ATOM     27  C   UNL     1       8.004  10.509  17.375  0.00  0.00    +0.000 A 
ATOM     28  C   UNL     1       8.584  11.654  17.910  0.00  0.00    +0.000 A 
BRANCH  23  29
ATOM     29  C   UNL     1      10.284  12.710  19.437  0.00  0.00    +0.000 C 
BRANCH  29  30
ATOM     30  C   UNL     1      10.315  12.774  20.966  0.00  0.00    +0.000 C 
BRANCH  30  31
ATOM     31  C   UNL     1       8.988  13.182  21.586  0.00  0.00    +0.000 C 
BRANCH  31  33
ATOM     32  C   UNL     1       7.401  11.880  23.046  0.00  0.00    +0.000 C 
ATOM     33  C   UNL     1       8.805  12.430  22.904  0.00  0.00    +0.000 C 
ENDBRANCH  31  33
ENDBRANCH  30  31
ENDBRANCH  29  30
ENDBRANCH  23  29
ENDBRANCH  21  26
ENDBRANCH   1  21
TORSDOF 7
ENDMDL
MODEL 2
REMARK VINA RESULT:      -8.7      1.119      2.135
REMARK  Name = 
REMARK  8 active torsions:
REMARK  status: ('A' for Active; 'I' for Inactive)
REMARK    1  A    between atoms: C_1  and  C_2
REMARK    2  A    between atoms: C_2  and  C_3
REMARK    3  A    between atoms: C_3  and  C_4
REMARK    4  A    between atoms: C_4  and  C_5
REMARK    5  A    between atoms: C_5  and  C_6
REMARK    6  A    between atoms: C_9  and  N_10
REMARK    7  A    between atoms: N_10  and  C_11
REMARK    8  A    between atoms: N_19  and  C_20
REMARK                            x       y       z     vdW  Elec       q    Type
REMARK                         _______ _______ _______ _____ _____    ______ ____
ROOT
ATOM      1  C   UNL     1       6.950   7.092  17.863  0.00  0.00    +0.000 A 
ATOM      2  C   UNL     1       7.713   6.225  18.647  0.00  0.00    +0.000 A 
ATOM      3  C   UNL     1       8.053   4.988  18.093  0.00  0.00    +0.000 A 
ATOM      4  C   UNL     1       7.529   4.610  16.848  0.00  0.00    +0.000 A 
ATOM      5  C   UNL     1       6.523   5.397  16.278  0.00  0.00    +0.000 A 
ATOM      6  C   UNL     1       6.060   6.503  16.957  0.00  0.00    +0.000 A 
ATOM      7  C   UNL     1       4.665   6.095  17.327  0.00  0.00    +0.000 C 
ATOM      8  O   UNL     1       3.962   6.675  18.137  0.00  0.00    +0.000 OA
ATOM      9  N   UNL     1       4.389   4.908  16.686  0.00  0.00    +0.000 N 
ATOM     10  C   UNL     1       5.346   4.732  15.743  0.00  0.00    +0.000 C 
ATOM     11  O   UNL     1       5.238   4.298  14.611  0.00  0.00    +0.000 OA
ENDROOT
BRANCH   9  12
ATOM     12  C   UNL     1       3.905   3.737  17.390  0.00  0.00    +0.000 C 
ATOM     13  C   UNL     1       2.454   3.332  17.197  0.00  0.00    +0.000 C 
ATOM     14  C   UNL     1       1.526   4.297  17.906  0.00  0.00    +0.000 C 
ATOM     15  C   UNL     1       1.893   4.472  19.364  0.00  0.00    +0.000 C 
ATOM     16  O   UNL     1       1.089   4.875  20.198  0.00  0.00    +0.000 OA
ATOM     17  N   UNL     1       3.190   4.167  19.718  0.00  0.00    +0.000 N 
ATOM     18  C   UNL     1       4.206   3.767  18.906  0.00  0.00    +0.000 C 
ATOM     19  O   UNL     1       5.346   3.558  19.360  0.00  0.00    +0.000 OA
ATOM     20  H   UNL     1       3.407   4.286  20.700  0.00  0.00    +0.000 HD
ENDBRANCH   9  12
BRANCH   1  21
ATOM     21  N   UNL     1       7.785   8.167  17.345  0.00  0.00    +0.000 N 
ATOM     22  H   UNL     1       8.455   7.848  16.650  0.00  0.00    +0.000 HD
BRANCH  21  26
ATOM     23  C   UNL     1       9.591  11.412  19.258  0.00  0.00    +0.000 A 
ATOM     24  C   UNL     1       9.516  10.174  19.913  0.00  0.00    +0.000 A 
ATOM     25  C   UNL     1       8.871   9.105  19.313  0.00  0.00    +0.000 A 
ATOM     26  C   UNL     1       8.278   9.265  18.059  0.00  0.00    +0.000 A 
ATOM     27  C   UNL     1       8.262  10.523  17.454  0.00  0.00    +0.000 A 
ATOM     28  C   UNL     1       8.902  11.600  18.057  0.00  0.00    +0.000 A 
BRANCH  23  29
ATOM     29  C   UNL     1      10.539  12.470  19.761  0.00  0.00    +0.000 C 
BRANCH  29  30
ATOM     30  C   UNL     1      11.616  12.689  18.694  0.00  0.00    +0.000 C 
BRANCH  30  31
ATOM     31  C   UNL     1      11.979  14.150  18.486  0.00  0.00    +0.000 C 
BRANCH  31  33
ATOM     32  C   UNL     1      11.604  13.551  16.068  0.00  0.00    +0.000 C 
ATOM     33  C   UNL     1      11.428  14.611  17.137  0.00  0.00    +0.000 C 
ENDBRANCH  31  33
ENDBRANCH  30  31
ENDBRANCH  29  30
ENDBRANCH  23  29
ENDBRANCH  21  26
ENDBRANCH   1  21
TORSDOF 7
ENDMDL
MODEL 3
REMARK VINA RESULT:      -8.6      0.862      1.998
REMARK  Name = 
REMARK  8 active torsions:
REMARK  status: ('A' for Active; 'I' for Inactive)
REMARK    1  A    between atoms: C_1  and  C_2
REMARK    2  A    between atoms: C_2  and  C_3
REMARK    3  A    between atoms: C_3  and  C_4
REMARK    4  A    between atoms: C_4  and  C_5
REMARK    5  A    between atoms: C_5  and  C_6
REMARK    6  A    between atoms: C_9  and  N_10
REMARK    7  A    between atoms: N_10  and  C_11
REMARK    8  A    between atoms: N_19  and  C_20
REMARK                            x       y       z     vdW  Elec       q    Type
REMARK                         _______ _______ _______ _____ _____    ______ ____
ROOT
ATOM      1  C   UNL     1       6.905   7.141  17.788  0.00  0.00    +0.000 A 
ATOM      2  C   UNL     1       7.682   6.334  18.620  0.00  0.00    +0.000 A 
ATOM      3  C   UNL     1       8.030   5.068  18.144  0.00  0.00    +0.000 A 
ATOM      4  C   UNL     1       7.500   4.604  16.932  0.00  0.00    +0.000 A 
ATOM      5  C   UNL     1       6.482   5.343  16.320  0.00  0.00    +0.000 A 
ATOM      6  C   UNL     1       6.014   6.487  16.930  0.00  0.00    +0.000 A 
ATOM      7  C   UNL     1       4.625   6.091  17.337  0.00  0.00    +0.000 C 
ATOM      8  O   UNL     1       3.924   6.716  18.115  0.00  0.00    +0.000 OA
ATOM      9  N   UNL     1       4.356   4.862  16.778  0.00  0.00    +0.000 N 
ATOM     10  C   UNL     1       5.307   4.634  15.840  0.00  0.00    +0.000 C 
ATOM     11  O   UNL     1       5.193   4.126  14.740  0.00  0.00    +0.000 OA
ENDROOT
BRANCH   9  12
ATOM     12  C   UNL     1       3.889   3.736  17.561  0.00  0.00    +0.000 C 
ATOM     13  C   UNL     1       2.429   3.332  17.439  0.00  0.00    +0.000 C 
ATOM     14  C   UNL     1       1.533   4.343  18.126  0.00  0.00    +0.000 C 
ATOM     15  C   UNL     1       1.949   4.593  19.558  0.00  0.00    +0.000 C 
ATOM     16  O   UNL     1       1.177   5.048  20.396  0.00  0.00    +0.000 OA
ATOM     17  N   UNL     1       3.256   4.298  19.885  0.00  0.00    +0.000 N 
ATOM     18  C   UNL     1       4.241   3.845  19.062  0.00  0.00    +0.000 C 
ATOM     19  O   UNL     1       5.395   3.652  19.488  0.00  0.00    +0.000 OA
ATOM     20  H   UNL     1       3.508   4.468  20.850  0.00  0.00    +0.000 HD
ENDBRANCH   9  12
BRANCH   1  21
ATOM     21  N   UNL     1       7.725   8.188  17.194  0.00  0.00    +0.000 N 
ATOM     22  H   UNL     1       8.326   7.845  16.448  0.00  0.00    +0.000 HD
BRANCH  21  26
ATOM     23  C   UNL     1       9.149  11.430  19.411  0.00  0.00    +0.000 A 
ATOM     24  C   UNL     1       8.597  11.647  18.141  0.00  0.00    +0.000 A 
ATOM     25  C   UNL     1       8.172  10.576  17.372  0.00  0.00    +0.000 A 
ATOM     26  C   UNL     1       8.309   9.274  17.856  0.00  0.00    +0.000 A 
ATOM     27  C   UNL     1       8.953   9.051  19.075  0.00  0.00    +0.000 A 
ATOM     28  C   UNL     1       9.387  10.124  19.846  0.00  0.00    +0.000 A 
BRANCH  23  29
ATOM     29  C   UNL     1       9.325  12.587  20.360  0.00  0.00    +0.000 C 
BRANCH  29  30
ATOM     30  C   UNL     1      10.418  13.501  19.798  0.00  0.00    +0.000 C 
BRANCH  30  31
ATOM     31  C   UNL     1      11.800  12.868  19.796  0.00  0.00    +0.000 C 
BRANCH  31  33
ATOM     32  C   UNL     1      11.541  13.670  17.421  0.00  0.00    +0.000 C 
ATOM     33  C   UNL     1      12.276  12.725  18.350  0.00  0.00    +0.000 C 
ENDBRANCH  31  33
ENDBRANCH  30  31
ENDBRANCH  29  30
ENDBRANCH  23  29
ENDBRANCH  21  26
ENDBRANCH   1  21
TORSDOF 7
ENDMDL
MODEL 4
REMARK VINA RESULT:      -8.4      0.857      1.340
REMARK  Name = 
REMARK  8 active torsions:
REMARK  status: ('A' for Active; 'I' for Inactive)
REMARK    1  A    between atoms: C_1  and  C_2
REMARK    2  A    between atoms: C_2  and  C_3
REMARK    3  A    between atoms: C_3  and  C_4
REMARK    4  A    between atoms: C_4  and  C_5
REMARK    5  A    between atoms: C_5  and  C_6
REMARK    6  A    between atoms: C_9  and  N_10
REMARK    7  A    between atoms: N_10  and  C_11
REMARK    8  A    between atoms: N_19  and  C_20
REMARK                            x       y       z     vdW  Elec       q    Type
REMARK                         _______ _______ _______ _____ _____    ______ ____
ROOT
ATOM      1  C   UNL     1       6.944   7.117  17.873  0.00  0.00    +0.000 A 
ATOM      2  C   UNL     1       7.716   6.272  18.671  0.00  0.00    +0.000 A 
ATOM      3  C   UNL     1       8.058   5.025  18.143  0.00  0.00    +0.000 A 
ATOM      4  C   UNL     1       7.526   4.615  16.911  0.00  0.00    +0.000 A 
ATOM      5  C   UNL     1       6.512   5.384  16.331  0.00  0.00    +0.000 A 
ATOM      6  C   UNL     1       6.050   6.504  16.988  0.00  0.00    +0.000 A 
ATOM      7  C   UNL     1       4.659   6.098  17.378  0.00  0.00    +0.000 C 
ATOM      8  O   UNL     1       3.960   6.693  18.181  0.00  0.00    +0.000 OA
ATOM      9  N   UNL     1       4.384   4.895  16.768  0.00  0.00    +0.000 N 
ATOM     10  C   UNL     1       5.334   4.702  15.821  0.00  0.00    +0.000 C 
ATOM     11  O   UNL     1       5.219   4.241  14.701  0.00  0.00    +0.000 OA
ENDROOT
BRANCH   9  12
ATOM     12  C   UNL     1       3.911   3.739  17.503  0.00  0.00    +0.000 C 
ATOM     13  C   UNL     1       2.453   3.338  17.350  0.00  0.00    +0.000 C 
ATOM     14  C   UNL     1       1.548   4.320  18.066  0.00  0.00    +0.000 C 
ATOM     15  C   UNL     1       1.950   4.517  19.511  0.00  0.00    +0.000 C 
ATOM     16  O   UNL     1       1.168   4.939  20.357  0.00  0.00    +0.000 OA
ATOM     17  N   UNL     1       3.254   4.211  19.839  0.00  0.00    +0.000 N 
ATOM     18  C   UNL     1       4.248   3.792  19.010  0.00  0.00    +0.000 C 
ATOM     19  O   UNL     1       5.398   3.584  19.440  0.00  0.00    +0.000 OA
ATOM     20  H   UNL     1       3.495   4.345  20.813  0.00  0.00    +0.000 HD
ENDBRANCH   9  12
BRANCH   1  21
ATOM     21  N   UNL     1       7.769   8.184  17.324  0.00  0.00    +0.000 N 
ATOM     22  H   UNL     1       8.444   7.850  16.640  0.00  0.00    +0.000 HD
BRANCH  21  26
ATOM     23  C   UNL     1       9.517  11.535  19.104  0.00  0.00    +0.000 A 
ATOM     24  C   UNL     1       9.605  10.287  19.738  0.00  0.00    +0.000 A 
ATOM     25  C   UNL     1       8.983   9.179  19.187  0.00  0.00    +0.000 A 
ATOM     26  C   UNL     1       8.251   9.308  18.005  0.00  0.00    +0.000 A 
ATOM     27  C   UNL     1       8.076  10.569  17.431  0.00  0.00    +0.000 A 
ATOM     28  C   UNL     1       8.694  11.684  17.985  0.00  0.00    +0.000 A 
BRANCH  23  29
ATOM     29  C   UNL     1      10.430  12.657  19.526  0.00  0.00    +0.000 C 
BRANCH  29  30
ATOM     30  C   UNL     1       9.914  13.216  20.855  0.00  0.00    +0.000 C 
BRANCH  30  31
ATOM     31  C   UNL     1       9.109  14.496  20.706  0.00  0.00    +0.000 C 
BRANCH  31  33
ATOM     32  C   UNL     1      11.075  15.983  21.231  0.00  0.00    +0.000 C 
ATOM     33  C   UNL     1      10.031  15.605  20.199  0.00  0.00    +0.000 C 
ENDBRANCH  31  33
ENDBRANCH  30  31
ENDBRANCH  29  30
ENDBRANCH  23  29
ENDBRANCH  21  26
ENDBRANCH   1  21
TORSDOF 7
ENDMDL
MODEL 5
REMARK VINA RESULT:      -8.3      0.603      1.104
REMARK  Name = 
REMARK  8 active torsions:
REMARK  status: ('A' for Active; 'I' for Inactive)
REMARK    1  A    between atoms: C_1  and  C_2
REMARK    2  A    between atoms: C_2  and  C_3
REMARK    3  A    between atoms: C_3  and  C_4
REMARK    4  A    between atoms: C_4  and  C_5
REMARK    5  A    between atoms: C_5  and  C_6
REMARK    6  A    between atoms: C_9  and  N_10
REMARK    7  A    between atoms: N_10  and  C_11
REMARK    8  A    between atoms: N_19  and  C_20
REMARK                            x       y       z     vdW  Elec       q    Type
REMARK                         _______ _______ _______ _____ _____    ______ ____
ROOT
ATOM      1  C   UNL     1       6.919   7.131  17.771  0.00  0.00    +0.000 A 
ATOM      2  C   UNL     1       7.699   6.324  18.600  0.00  0.00    +0.000 A 
ATOM      3  C   UNL     1       8.044   5.057  18.124  0.00  0.00    +0.000 A 
ATOM      4  C   UNL     1       7.508   4.592  16.913  0.00  0.00    +0.000 A 
ATOM      5  C   UNL     1       6.488   5.332  16.306  0.00  0.00    +0.000 A 
ATOM      6  C   UNL     1       6.023   6.477  16.917  0.00  0.00    +0.000 A 
ATOM      7  C   UNL     1       4.636   6.082  17.332  0.00  0.00    +0.000 C 
ATOM      8  O   UNL     1       3.938   6.708  18.112  0.00  0.00    +0.000 OA
ATOM      9  N   UNL     1       4.363   4.853  16.774  0.00  0.00    +0.000 N 
ATOM     10  C   UNL     1       5.310   4.624  15.832  0.00  0.00    +0.000 C 
ATOM     11  O   UNL     1       5.191   4.115  14.733  0.00  0.00    +0.000 OA
ENDROOT
BRANCH   9  12
ATOM     12  C   UNL     1       3.899   3.727  17.560  0.00  0.00    +0.000 C 
ATOM     13  C   UNL     1       2.439   3.324  17.445  0.00  0.00    +0.000 C 
ATOM     14  C   UNL     1       1.546   4.335  18.135  0.00  0.00    +0.000 C 
ATOM     15  C   UNL     1       1.970   4.587  19.566  0.00  0.00    +0.000 C 
ATOM     16  O   UNL     1       1.202   5.042  20.407  0.00  0.00    +0.000 OA
ATOM     17  N   UNL     1       3.278   4.291  19.886  0.00  0.00    +0.000 N 
ATOM     18  C   UNL     1       4.259   3.837  19.059  0.00  0.00    +0.000 C 
ATOM     19  O   UNL     1       5.415   3.644  19.480  0.00  0.00    +0.000 OA
ATOM     20  H   UNL     1       3.534   4.461  20.851  0.00  0.00    +0.000 HD
ENDBRANCH   9  12
BRANCH   1  21
ATOM     21  N   UNL     1       7.736   8.177  17.172  0.00  0.00    +0.000 N 
ATOM     22  H   UNL     1       8.346   7.830  16.436  0.00  0.00    +0.000 HD
BRANCH  21  26
ATOM     23  C   UNL     1       9.116  11.452  19.368  0.00  0.00    +0.000 A 
ATOM     24  C   UNL     1       8.563  11.653  18.096  0.00  0.00    +0.000 A 
ATOM     25  C   UNL     1       8.153  10.572  17.334  0.00  0.00    +0.000 A 
ATOM     26  C   UNL     1       8.306   9.275  17.827  0.00  0.00    +0.000 A 
ATOM     27  C   UNL     1       8.952   9.069  19.048  0.00  0.00    +0.000 A 
ATOM     28  C   UNL     1       9.371  10.152  19.812  0.00  0.00    +0.000 A 
BRANCH  23  29
ATOM     29  C   UNL     1       9.277  12.618  20.309  0.00  0.00    +0.000 C 
BRANCH  29  30
ATOM     30  C   UNL     1       9.351  12.071  21.737  0.00  0.00    +0.000 C 
BRANCH  30  31
ATOM     31  C   UNL     1       8.429  12.784  22.712  0.00  0.00    +0.000 C 
BRANCH  31  33
ATOM     32  C   UNL     1       8.407  12.794  25.231  0.00  0.00    +0.000 C 
ATOM     33  C   UNL     1       8.304  11.943  23.982  0.00  0.00    +0.000 C 
ENDBRANCH  31  33
ENDBRANCH  30  31
ENDBRANCH  29  30
ENDBRANCH  23  29
ENDBRANCH  21  26
ENDBRANCH   1  21
TORSDOF 7
ENDMDL
MODEL 6
REMARK VINA RESULT:      -8.1      1.153      1.806
REMARK  Name = 
REMARK  8 active torsions:
REMARK  status: ('A' for Active; 'I' for Inactive)
REMARK    1  A    between atoms: C_1  and  C_2
REMARK    2  A    between atoms: C_2  and  C_3
REMARK    3  A    between atoms: C_3  and  C_4
REMARK    4  A    between atoms: C_4  and  C_5
REMARK    5  A    between atoms: C_5  and  C_6
REMARK    6  A    between atoms: C_9  and  N_10
REMARK    7  A    between atoms: N_10  and  C_11
REMARK    8  A    between atoms: N_19  and  C_20
REMARK                            x       y       z     vdW  Elec       q    Type
REMARK                         _______ _______ _______ _____ _____    ______ ____
ROOT
ATOM      1  C   UNL     1       6.932   7.152  17.788  0.00  0.00    +0.000 A 
ATOM      2  C   UNL     1       7.695   6.345  18.634  0.00  0.00    +0.000 A 
ATOM      3  C   UNL     1       8.036   5.071  18.172  0.00  0.00    +0.000 A 
ATOM      4  C   UNL     1       7.511   4.601  16.959  0.00  0.00    +0.000 A 
ATOM      5  C   UNL     1       6.505   5.344  16.333  0.00  0.00    +0.000 A 
ATOM      6  C   UNL     1       6.042   6.498  16.928  0.00  0.00    +0.000 A 
ATOM      7  C   UNL     1       4.647   6.117  17.328  0.00  0.00    +0.000 C 
ATOM      8  O   UNL     1       3.944   6.756  18.094  0.00  0.00    +0.000 OA
ATOM      9  N   UNL     1       4.371   4.886  16.777  0.00  0.00    +0.000 N 
ATOM     10  C   UNL     1       5.327   4.642  15.849  0.00  0.00    +0.000 C 
ATOM     11  O   UNL     1       5.218   4.125  14.752  0.00  0.00    +0.000 OA
ENDROOT
BRANCH   9  12
ATOM     12  C   UNL     1       3.887   3.771  17.566  0.00  0.00    +0.000 C 
ATOM     13  C   UNL     1       2.420   3.394  17.454  0.00  0.00    +0.000 C 
ATOM     14  C   UNL     1       1.547   4.423  18.143  0.00  0.00    +0.000 C 
ATOM     15  C   UNL     1       1.977   4.670  19.573  0.00  0.00    +0.000 C 
ATOM     16  O   UNL     1       1.219   5.141  20.414  0.00  0.00    +0.000 OA
ATOM     17  N   UNL     1       3.280   4.351  19.892  0.00  0.00    +0.000 N 
ATOM     18  C   UNL     1       4.251   3.878  19.065  0.00  0.00    +0.000 C 
ATOM     19  O   UNL     1       5.404   3.664  19.484  0.00  0.00    +0.000 OA
ATOM     20  H   UNL     1       3.540   4.518  20.856  0.00  0.00    +0.000 HD
ENDBRANCH   9  12
BRANCH   1  21
ATOM     21  N   UNL     1       7.766   8.186  17.192  0.00  0.00    +0.000 N 
ATOM     22  H   UNL     1       8.383   7.827  16.467  0.00  0.00    +0.000 HD
BRANCH  21  26
ATOM     23  C   UNL     1       9.138  11.475  19.372  0.00  0.00    +0.000 A 
ATOM     24  C   UNL     1       8.624  11.663  18.081  0.00  0.00    +0.000 A 
ATOM     25  C   UNL     1       8.218  10.576  17.326  0.00  0.00    +0.000 A 
ATOM     26  C   UNL     1       8.335   9.285  17.845  0.00  0.00    +0.000 A 
ATOM     27  C   UNL     1       8.942   9.089  19.087  0.00  0.00    +0.000 A 
ATOM     28  C   UNL     1       9.357  10.179  19.845  0.00  0.00    +0.000 A 
BRANCH  23  29
ATOM     29  C   UNL     1       9.291  12.654  20.298  0.00  0.00    +0.000 C 
BRANCH  29  30
ATOM     30  C   UNL     1       8.969  13.925  19.508  0.00  0.00    +0.000 C 
BRANCH  30  31
ATOM     31  C   UNL     1       7.732  14.655  20.006  0.00  0.00    +0.000 C 
BRANCH  31  33
ATOM     32  C   UNL     1       6.442  14.605  17.842  0.00  0.00    +0.000 C 
ATOM     33  C   UNL     1       7.148  15.480  18.859  0.00  0.00    +0.000 C 
ENDBRANCH  31  33
ENDBRANCH  30  31
ENDBRANCH  29  30
ENDBRANCH  23  29
ENDBRANCH  21  26
ENDBRANCH   1  21
TORSDOF 7
ENDMDL
MODEL 7
REMARK VINA RESULT:      -8.1      2.116      3.996
REMARK  Name = 
REMARK  8 active torsions:
REMARK  status: ('A' for Active; 'I' for Inactive)
REMARK    1  A    between atoms: C_1  and  C_2
REMARK    2  A    between atoms: C_2  and  C_3
REMARK    3  A    between atoms: C_3  and  C_4
REMARK    4  A    between atoms: C_4  and  C_5
REMARK    5  A    between atoms: C_5  and  C_6
REMARK    6  A    between atoms: C_9  and  N_10
REMARK    7  A    between atoms: N_10  and  C_11
REMARK    8  A    between atoms: N_19  and  C_20
REMARK                            x       y       z     vdW  Elec       q    Type
REMARK                         _______ _______ _______ _____ _____    ______ ____
ROOT
ATOM      1  C   UNL     1       4.522   4.623  17.115  0.00  0.00    +0.000 A 
ATOM      2  C   UNL     1       3.862   5.729  17.651  0.00  0.00    +0.000 A 
ATOM      3  C   UNL     1       3.888   5.882  19.040  0.00  0.00    +0.000 A 
ATOM      4  C   UNL     1       4.451   4.882  19.845  0.00  0.00    +0.000 A 
ATOM      5  C   UNL     1       4.801   3.664  19.253  0.00  0.00    +0.000 A 
ATOM      6  C   UNL     1       4.566   3.470  17.908  0.00  0.00    +0.000 A 
ATOM      7  C   UNL     1       3.477   2.438  17.916  0.00  0.00    +0.000 C 
ATOM      8  O   UNL     1       2.797   2.137  16.949  0.00  0.00    +0.000 OA
ATOM      9  N   UNL     1       3.319   2.002  19.212  0.00  0.00    +0.000 N 
ATOM     10  C   UNL     1       4.396   2.433  19.912  0.00  0.00    +0.000 C 
ATOM     11  O   UNL     1       5.031   1.857  20.776  0.00  0.00    +0.000 OA
ENDROOT
BRANCH   9  12
ATOM     12  C   UNL     1       2.032   1.994  19.879  0.00  0.00    +0.000 C 
ATOM     13  C   UNL     1       0.844   2.605  19.156  0.00  0.00    +0.000 C 
ATOM     14  C   UNL     1       0.957   4.115  19.118  0.00  0.00    +0.000 C 
ATOM     15  C   UNL     1       1.166   4.706  20.495  0.00  0.00    +0.000 C 
ATOM     16  O   UNL     1       0.902   5.875  20.754  0.00  0.00    +0.000 OA
ATOM     17  N   UNL     1       1.688   3.867  21.457  0.00  0.00    +0.000 N 
ATOM     18  C   UNL     1       2.082   2.572  21.312  0.00  0.00    +0.000 C 
ATOM     19  O   UNL     1       2.571   1.940  22.265  0.00  0.00    +0.000 OA
ATOM     20  H   UNL     1       1.811   4.284  22.371  0.00  0.00    +0.000 HD
ENDBRANCH   9  12
BRANCH   1  21
ATOM     21  N   UNL     1       5.776   5.034  16.500  0.00  0.00    +0.000 N 
ATOM     22  H   UNL     1       6.251   4.272  16.022  0.00  0.00    +0.000 HD
BRANCH  21  26
ATOM     23  C   UNL     1       8.246   7.886  18.296  0.00  0.00    +0.000 A 
ATOM     24  C   UNL     1       7.533   8.217  17.135  0.00  0.00    +0.000 A 
ATOM     25  C   UNL     1       6.754   7.265  16.499  0.00  0.00    +0.000 A 
ATOM     26  C   UNL     1       6.692   5.966  17.004  0.00  0.00    +0.000 A 
ATOM     27  C   UNL     1       7.483   5.608  18.098  0.00  0.00    +0.000 A 
ATOM     28  C   UNL     1       8.270   6.560  18.735  0.00  0.00    +0.000 A 
BRANCH  23  29
ATOM     29  C   UNL     1       8.838   8.976  19.150  0.00  0.00    +0.000 C 
BRANCH  29  30
ATOM     30  C   UNL     1       8.995  10.228  18.282  0.00  0.00    +0.000 C 
BRANCH  30  31
ATOM     31  C   UNL     1       9.563  11.422  19.032  0.00  0.00    +0.000 C 
BRANCH  31  33
ATOM     32  C   UNL     1      12.071  11.605  19.193  0.00  0.00    +0.000 C 
ATOM     33  C   UNL     1      10.848  11.876  18.340  0.00  0.00    +0.000 C 
ENDBRANCH  31  33
ENDBRANCH  30  31
ENDBRANCH  29  30
ENDBRANCH  23  29
ENDBRANCH  21  26
ENDBRANCH   1  21
TORSDOF 7
ENDMDL
MODEL 8
REMARK VINA RESULT:      -8.1      1.521      2.087
REMARK  Name = 
REMARK  8 active torsions:
REMARK  status: ('A' for Active; 'I' for Inactive)
REMARK    1  A    between atoms: C_1  and  C_2
REMARK    2  A    between atoms: C_2  and  C_3
REMARK    3  A    between atoms: C_3  and  C_4
REMARK    4  A    between atoms: C_4  and  C_5
REMARK    5  A    between atoms: C_5  and  C_6
REMARK    6  A    between atoms: C_9  and  N_10
REMARK    7  A    between atoms: N_10  and  C_11
REMARK    8  A    between atoms: N_19  and  C_20
REMARK                            x       y       z     vdW  Elec       q    Type
REMARK                         _______ _______ _______ _____ _____    ______ ____
ROOT
ATOM      1  C   UNL     1       6.965   6.360  17.292  0.00  0.00    +0.000 A 
ATOM      2  C   UNL     1       7.243   5.478  16.246  0.00  0.00    +0.000 A 
ATOM      3  C   UNL     1       6.156   4.963  15.536  0.00  0.00    +0.000 A 
ATOM      4  C   UNL     1       4.847   5.236  15.959  0.00  0.00    +0.000 A 
ATOM      5  C   UNL     1       4.661   5.859  17.197  0.00  0.00    +0.000 A 
ATOM      6  C   UNL     1       5.757   6.168  17.973  0.00  0.00    +0.000 A 
ATOM      7  C   UNL     1       5.610   5.225  19.131  0.00  0.00    +0.000 C 
ATOM      8  O   UNL     1       6.482   4.986  19.949  0.00  0.00    +0.000 OA
ATOM      9  N   UNL     1       4.383   4.610  19.020  0.00  0.00    +0.000 N 
ATOM     10  C   UNL     1       3.668   5.309  18.105  0.00  0.00    +0.000 C 
ATOM     11  O   UNL     1       2.486   5.600  18.114  0.00  0.00    +0.000 OA
ENDROOT
BRANCH   9  12
ATOM     12  C   UNL     1       4.228   3.169  19.048  0.00  0.00    +0.000 C 
ATOM     13  C   UNL     1       3.814   2.467  17.766  0.00  0.00    +0.000 C 
ATOM     14  C   UNL     1       2.358   2.744  17.448  0.00  0.00    +0.000 C 
ATOM     15  C   UNL     1       1.449   2.416  18.612  0.00  0.00    +0.000 C 
ATOM     16  O   UNL     1       0.252   2.192  18.466  0.00  0.00    +0.000 OA
ATOM     17  N   UNL     1       2.027   2.393  19.864  0.00  0.00    +0.000 N 
ATOM     18  C   UNL     1       3.317   2.673  20.193  0.00  0.00    +0.000 C 
ATOM     19  O   UNL     1       3.697   2.647  21.378  0.00  0.00    +0.000 OA
ATOM     20  H   UNL     1       1.399   2.164  20.624  0.00  0.00    +0.000 HD
ENDBRANCH   9  12
BRANCH   1  21
ATOM     21  N   UNL     1       7.274   7.726  16.895  0.00  0.00    +0.000 N 
ATOM     22  H   UNL     1       7.590   7.796  15.930  0.00  0.00    +0.000 HD
BRANCH  21  26
ATOM     23  C   UNL     1       9.301  10.708  19.005  0.00  0.00    +0.000 A 
ATOM     24  C   UNL     1       9.329   9.386  19.472  0.00  0.00    +0.000 A 
ATOM     25  C   UNL     1       8.616   8.398  18.813  0.00  0.00    +0.000 A 
ATOM     26  C   UNL     1       7.853   8.721  17.691  0.00  0.00    +0.000 A 
ATOM     27  C   UNL     1       7.741  10.054  17.288  0.00  0.00    +0.000 A 
ATOM     28  C   UNL     1       8.450  11.049  17.951  0.00  0.00    +0.000 A 
BRANCH  23  29
ATOM     29  C   UNL     1      10.300  11.708  19.526  0.00  0.00    +0.000 C 
BRANCH  29  30
ATOM     30  C   UNL     1       9.527  12.875  20.147  0.00  0.00    +0.000 C 
BRANCH  30  31
ATOM     31  C   UNL     1       9.710  12.995  21.651  0.00  0.00    +0.000 C 
BRANCH  31  33
ATOM     32  C   UNL     1       8.049  11.634  22.969  0.00  0.00    +0.000 C 
ATOM     33  C   UNL     1       8.335  12.973  22.320  0.00  0.00    +0.000 C 
ENDBRANCH  31  33
ENDBRANCH  30  31
ENDBRANCH  29  30
ENDBRANCH  23  29
ENDBRANCH  21  26
ENDBRANCH   1  21
TORSDOF 7
ENDMDL
MODEL 9
REMARK VINA RESULT:      -7.9      1.705      2.497
REMARK  Name = 
REMARK  8 active torsions:
REMARK  status: ('A' for Active; 'I' for Inactive)
REMARK    1  A    between atoms: C_1  and  C_2
REMARK    2  A    between atoms: C_2  and  C_3
REMARK    3  A    between atoms: C_3  and  C_4
REMARK    4  A    between atoms: C_4  and  C_5
REMARK    5  A    between atoms: C_5  and  C_6
REMARK    6  A    between atoms: C_9  and  N_10
REMARK    7  A    between atoms: N_10  and  C_11
REMARK    8  A    between atoms: N_19  and  C_20
REMARK                            x       y       z     vdW  Elec       q    Type
REMARK                         _______ _______ _______ _____ _____    ______ ____
ROOT
ATOM      1  C   UNL     1       6.947   6.478  17.297  0.00  0.00    +0.000 A 
ATOM      2  C   UNL     1       7.213   5.630  16.221  0.00  0.00    +0.000 A 
ATOM      3  C   UNL     1       6.119   5.131  15.510  0.00  0.00    +0.000 A 
ATOM      4  C   UNL     1       4.815   5.385  15.960  0.00  0.00    +0.000 A 
ATOM      5  C   UNL     1       4.644   5.971  17.219  0.00  0.00    +0.000 A 
ATOM      6  C   UNL     1       5.750   6.261  17.989  0.00  0.00    +0.000 A 
ATOM      7  C   UNL     1       5.622   5.283  19.119  0.00  0.00    +0.000 C 
ATOM      8  O   UNL     1       6.508   5.023  19.917  0.00  0.00    +0.000 OA
ATOM      9  N   UNL     1       4.397   4.666  19.007  0.00  0.00    +0.000 N 
ATOM     10  C   UNL     1       3.666   5.390  18.124  0.00  0.00    +0.000 C 
ATOM     11  O   UNL     1       2.483   5.675  18.158  0.00  0.00    +0.000 OA
ENDROOT
BRANCH   9  12
ATOM     12  C   UNL     1       4.248   3.225  18.994  0.00  0.00    +0.000 C 
ATOM     13  C   UNL     1       3.805   2.561  17.701  0.00  0.00    +0.000 C 
ATOM     14  C   UNL     1       2.341   2.840  17.428  0.00  0.00    +0.000 C 
ATOM     15  C   UNL     1       1.461   2.473  18.603  0.00  0.00    +0.000 C 
ATOM     16  O   UNL     1       0.262   2.247  18.479  0.00  0.00    +0.000 OA
ATOM     17  N   UNL     1       2.071   2.414  19.838  0.00  0.00    +0.000 N 
ATOM     18  C   UNL     1       3.367   2.689  20.145  0.00  0.00    +0.000 C 
ATOM     19  O   UNL     1       3.776   2.628  21.319  0.00  0.00    +0.000 OA
ATOM     20  H   UNL     1       1.462   2.158  20.606  0.00  0.00    +0.000 HD
ENDBRANCH   9  12
BRANCH   1  21
ATOM     21  N   UNL     1       7.245   7.857  16.936  0.00  0.00    +0.000 N 
ATOM     22  H   UNL     1       7.497   7.964  15.956  0.00  0.00    +0.000 HD
BRANCH  21  26
ATOM     23  C   UNL     1       9.457  10.704  19.046  0.00  0.00    +0.000 A 
ATOM     24  C   UNL     1       9.406   9.382  19.510  0.00  0.00    +0.000 A 
ATOM     25  C   UNL     1       8.632   8.441  18.851  0.00  0.00    +0.000 A 
ATOM     26  C   UNL     1       7.886   8.813  17.732  0.00  0.00    +0.000 A 
ATOM     27  C   UNL     1       7.855  10.151  17.333  0.00  0.00    +0.000 A 
ATOM     28  C   UNL     1       8.625  11.099  17.996  0.00  0.00    +0.000 A 
BRANCH  23  29
ATOM     29  C   UNL     1      10.518  11.641  19.565  0.00  0.00    +0.000 C 
BRANCH  29  30
ATOM     30  C   UNL     1       9.885  12.526  20.643  0.00  0.00    +0.000 C 
BRANCH  30  31
ATOM     31  C   UNL     1      10.177  14.007  20.464  0.00  0.00    +0.000 C 
BRANCH  31  33
ATOM     32  C   UNL     1       9.546  14.926  18.205  0.00  0.00    +0.000 C 
ATOM     33  C   UNL     1      10.628  14.252  19.024  0.00  0.00    +0.000 C 
ENDBRANCH  31  33
ENDBRANCH  30  31
ENDBRANCH  29  30
ENDBRANCH  23  29
ENDBRANCH  21  26
ENDBRANCH   1  21
TORSDOF 7
ENDMDL
