MODEL 1
REMARK VINA RESULT:      -7.4      0.000      0.000
REMARK  Name = 
REMARK  6 active torsions:
REMARK  status: ('A' for Active; 'I' for Inactive)
REMARK    1  A    between atoms: C_1  and  C_2
REMARK    2  A    between atoms: C_6  and  C_7
REMARK    3  A    between atoms: C_6  and  O_8
REMARK    4  A    between atoms: C_11  and  C_12
REMARK    5  A    between atoms: C_12  and  C_13
REMARK    6  A    between atoms: C_12  and  C_14
REMARK                            x       y       z     vdW  Elec       q    Type
REMARK                         _______ _______ _______ _____ _____    ______ ____
ROOT
ATOM      1  C   UNL     1       6.350   3.616  13.175  0.00  0.00    +0.000 C 
ATOM      2  C   UNL     1       6.019   4.039  14.595  0.00  0.00    +0.000 C 
ATOM      3  C   UNL     1       6.818   5.097  14.912  0.00  0.00    +0.000 C 
ATOM      4  C   UNL     1       7.356   5.570  16.198  0.00  0.00    +0.000 C 
ATOM      5  C   UNL     1       6.281   6.230  17.007  0.00  0.00    +0.000 C 
ATOM      6  C   UNL     1       6.008   5.436  18.271  0.00  0.00    +0.000 C 
ATOM      7  C   UNL     1       6.936   5.831  19.414  0.00  0.00    +0.000 C 
ATOM      8  C   UNL     1       4.562   5.655  18.508  0.00  0.00    +0.000 C 
ATOM      9  C   UNL     1       3.959   5.671  19.690  0.00  0.00    +0.000 C 
ATOM     10  C   UNL     1       2.472   5.807  19.843  0.00  0.00    +0.000 C 
ATOM     11  C   UNL     1       2.080   4.665  20.784  0.00  0.00    +0.000 C 
ATOM     12  C   UNL     1       2.418   3.274  20.086  0.00  0.00    +0.000 C 
ATOM     13  C   UNL     1       2.562   3.360  18.551  0.00  0.00    +0.000 C 
ATOM     14  C   UNL     1       3.499   2.802  17.715  0.00  0.00    +0.000 C 
ATOM     15  C   UNL     1       3.787   3.123  16.182  0.00  0.00    +0.000 C 
ATOM     16  C   UNL     1       5.287   2.982  15.532  0.00  0.00    +0.000 C 
ATOM     17  C   UNL     1       1.607   4.363  18.015  0.00  0.00    +0.000 C 
ATOM     18  O   UNL     1       0.809   4.102  17.131  0.00  0.00    +0.000 OA
ATOM     19  O   UNL     1       1.719   5.580  18.603  0.00  0.00    +0.000 OA
ENDROOT
BRANCH  10  20
ATOM     20  C   UNL     1       2.284   7.325  20.157  0.00  0.00    +0.000 C 
ATOM     21  C   UNL     1       1.218   7.683  21.210  0.00  0.00    +0.000 C 
ATOM     22  C   UNL     1       2.134   8.233  18.940  0.00  0.00    +0.000 C 
ENDBRANCH  10  20
BRANCH   6  23
ATOM     23  O   UNL     1       6.177   4.035  18.110  0.00  0.00    +0.000 OA
ATOM     24  H   UNL     1       5.933   3.605  18.949  0.00  0.00    +0.000 HD
ENDBRANCH   6  23
TORSDOF 2
ENDMDL
MODEL 2
REMARK VINA RESULT:      -6.7      7.364     10.985
REMARK  Name = 
REMARK  6 active torsions:
REMARK  status: ('A' for Active; 'I' for Inactive)
REMARK    1  A    between atoms: C_1  and  C_2
REMARK    2  A    between atoms: C_6  and  C_7
REMARK    3  A    between atoms: C_6  and  O_8
REMARK    4  A    between atoms: C_11  and  C_12
REMARK    5  A    between atoms: C_12  and  C_13
REMARK    6  A    between atoms: C_12  and  C_14
REMARK                            x       y       z     vdW  Elec       q    Type
REMARK                         _______ _______ _______ _____ _____    ______ ____
ROOT
ATOM      1  C   UNL     1       1.438   9.576  18.453  0.00  0.00    +0.000 C 
ATOM      2  C   UNL     1       0.055  10.202  18.501  0.00  0.00    +0.000 C 
ATOM      3  C   UNL     1      -0.761   9.471  17.690  0.00  0.00    +0.000 C 
ATOM      4  C   UNL     1      -1.959   9.836  16.917  0.00  0.00    +0.000 C 
ATOM      5  C   UNL     1      -3.138  10.013  17.825  0.00  0.00    +0.000 C 
ATOM      6  C   UNL     1      -3.606  11.456  17.807  0.00  0.00    +0.000 C 
ATOM      7  C   UNL     1      -4.595  11.730  16.679  0.00  0.00    +0.000 C 
ATOM      8  C   UNL     1      -4.121  11.666  19.181  0.00  0.00    +0.000 C 
ATOM      9  C   UNL     1      -5.098  12.493  19.530  0.00  0.00    +0.000 C 
ATOM     10  C   UNL     1      -5.501  12.720  20.958  0.00  0.00    +0.000 C 
ATOM     11  C   UNL     1      -5.518  14.243  21.111  0.00  0.00    +0.000 C 
ATOM     12  C   UNL     1      -4.048  14.809  20.878  0.00  0.00    +0.000 C 
ATOM     13  C   UNL     1      -2.934  13.753  21.053  0.00  0.00    +0.000 C 
ATOM     14  C   UNL     1      -1.820  13.504  20.289  0.00  0.00    +0.000 C 
ATOM     15  C   UNL     1      -0.841  12.249  20.330  0.00  0.00    +0.000 C 
ATOM     16  C   UNL     1      -0.060  11.711  18.991  0.00  0.00    +0.000 C 
ATOM     17  C   UNL     1      -3.311  12.803  22.130  0.00  0.00    +0.000 C 
ATOM     18  O   UNL     1      -2.586  12.571  23.083  0.00  0.00    +0.000 OA
ATOM     19  O   UNL     1      -4.526  12.230  21.941  0.00  0.00    +0.000 OA
ENDROOT
BRANCH  10  20
ATOM     20  C   UNL     1      -6.746  11.792  21.129  0.00  0.00    +0.000 C 
ATOM     21  C   UNL     1      -7.560  11.492  19.856  0.00  0.00    +0.000 C 
ATOM     22  C   UNL     1      -7.687  12.161  22.271  0.00  0.00    +0.000 C 
ENDBRANCH  10  20
BRANCH   6  23
ATOM     23  O   UNL     1      -2.555  12.394  17.629  0.00  0.00    +0.000 OA
ATOM     24  H   UNL     1      -2.687  12.833  16.769  0.00  0.00    +0.000 HD
ENDBRANCH   6  23
TORSDOF 2
ENDMDL
MODEL 3
REMARK VINA RESULT:      -6.4      8.470     11.909
REMARK  Name = 
REMARK  6 active torsions:
REMARK  status: ('A' for Active; 'I' for Inactive)
REMARK    1  A    between atoms: C_1  and  C_2
REMARK    2  A    between atoms: C_6  and  C_7
REMARK    3  A    between atoms: C_6  and  O_8
REMARK    4  A    between atoms: C_11  and  C_12
REMARK    5  A    between atoms: C_12  and  C_13
REMARK    6  A    between atoms: C_12  and  C_14
REMARK                            x       y       z     vdW  Elec       q    Type
REMARK                         _______ _______ _______ _____ _____    ______ ____
ROOT
ATOM      1  C   UNL     1      -4.334  12.615  25.029  0.00  0.00    +0.000 C 
ATOM      2  C   UNL     1      -3.954  12.594  23.559  0.00  0.00    +0.000 C 
ATOM      3  C   UNL     1      -2.600  12.463  23.481  0.00  0.00    +0.000 C 
ATOM      4  C   UNL     1      -1.628  12.907  22.469  0.00  0.00    +0.000 C 
ATOM      5  C   UNL     1      -1.711  12.044  21.246  0.00  0.00    +0.000 C 
ATOM      6  C   UNL     1      -2.187  12.858  20.057  0.00  0.00    +0.000 C 
ATOM      7  C   UNL     1      -1.037  13.553  19.334  0.00  0.00    +0.000 C 
ATOM      8  C   UNL     1      -2.954  11.877  19.254  0.00  0.00    +0.000 C 
ATOM      9  C   UNL     1      -3.096  11.889  17.935  0.00  0.00    +0.000 C 
ATOM     10  C   UNL     1      -3.968  10.912  17.201  0.00  0.00    +0.000 C 
ATOM     11  C   UNL     1      -4.839  11.785  16.294  0.00  0.00    +0.000 C 
ATOM     12  C   UNL     1      -5.746  12.734  17.196  0.00  0.00    +0.000 C 
ATOM     13  C   UNL     1      -5.916  12.243  18.651  0.00  0.00    +0.000 C 
ATOM     14  C   UNL     1      -5.859  12.937  19.835  0.00  0.00    +0.000 C 
ATOM     15  C   UNL     1      -5.766  12.373  21.321  0.00  0.00    +0.000 C 
ATOM     16  C   UNL     1      -4.995  13.193  22.515  0.00  0.00    +0.000 C 
ATOM     17  C   UNL     1      -5.964  10.758  18.675  0.00  0.00    +0.000 C 
ATOM     18  O   UNL     1      -6.875  10.140  19.197  0.00  0.00    +0.000 OA
ATOM     19  O   UNL     1      -4.901  10.176  18.064  0.00  0.00    +0.000 OA
ENDROOT
BRANCH  10  20
ATOM     20  C   UNL     1      -2.953   9.837  16.698  0.00  0.00    +0.000 C 
ATOM     21  C   UNL     1      -1.544   9.876  17.320  0.00  0.00    +0.000 C 
ATOM     22  C   UNL     1      -2.847   9.694  15.183  0.00  0.00    +0.000 C 
ENDBRANCH  10  20
BRANCH   6  23
ATOM     23  O   UNL     1      -3.099  13.891  20.401  0.00  0.00    +0.000 OA
ATOM     24  H   UNL     1      -3.757  13.961  19.687  0.00  0.00    +0.000 HD
ENDBRANCH   6  23
TORSDOF 2
ENDMDL
MODEL 4
REMARK VINA RESULT:      -6.0      9.428     12.705
REMARK  Name = 
REMARK  6 active torsions:
REMARK  status: ('A' for Active; 'I' for Inactive)
REMARK    1  A    between atoms: C_1  and  C_2
REMARK    2  A    between atoms: C_6  and  C_7
REMARK    3  A    between atoms: C_6  and  O_8
REMARK    4  A    between atoms: C_11  and  C_12
REMARK    5  A    between atoms: C_12  and  C_13
REMARK    6  A    between atoms: C_12  and  C_14
REMARK                            x       y       z     vdW  Elec       q    Type
REMARK                         _______ _______ _______ _____ _____    ______ ____
ROOT
ATOM      1  C   UNL     1      -2.836   9.919  16.890  0.00  0.00    +0.000 C 
ATOM      2  C   UNL     1      -3.563  10.831  17.861  0.00  0.00    +0.000 C 
ATOM      3  C   UNL     1      -4.890  10.794  17.554  0.00  0.00    +0.000 C 
ATOM      4  C   UNL     1      -5.965  11.787  17.719  0.00  0.00    +0.000 C 
ATOM      5  C   UNL     1      -6.373  11.885  19.158  0.00  0.00    +0.000 C 
ATOM      6  C   UNL     1      -6.044  13.261  19.707  0.00  0.00    +0.000 C 
ATOM      7  C   UNL     1      -7.160  14.268  19.453  0.00  0.00    +0.000 C 
ATOM      8  C   UNL     1      -5.727  12.995  21.130  0.00  0.00    +0.000 C 
ATOM      9  C   UNL     1      -5.917  13.832  22.142  0.00  0.00    +0.000 C 
ATOM     10  C   UNL     1      -5.483  13.525  23.545  0.00  0.00    +0.000 C 
ATOM     11  C   UNL     1      -4.698  14.765  23.981  0.00  0.00    +0.000 C 
ATOM     12  C   UNL     1      -3.415  14.924  23.052  0.00  0.00    +0.000 C 
ATOM     13  C   UNL     1      -3.000  13.625  22.327  0.00  0.00    +0.000 C 
ATOM     14  C   UNL     1      -2.611  13.421  21.025  0.00  0.00    +0.000 C 
ATOM     15  C   UNL     1      -2.452  12.048  20.234  0.00  0.00    +0.000 C 
ATOM     16  C   UNL     1      -2.710  11.942  18.617  0.00  0.00    +0.000 C 
ATOM     17  C   UNL     1      -3.266  12.456  23.203  0.00  0.00    +0.000 C 
ATOM     18  O   UNL     1      -2.407  11.637  23.483  0.00  0.00    +0.000 OA
ATOM     19  O   UNL     1      -4.545  12.400  23.650  0.00  0.00    +0.000 OA
ENDROOT
BRANCH  10  20
ATOM     20  C   UNL     1      -6.797  13.018  24.221  0.00  0.00    +0.000 C 
ATOM     21  C   UNL     1      -7.378  11.694  23.689  0.00  0.00    +0.000 C 
ATOM     22  C   UNL     1      -7.908  14.055  24.355  0.00  0.00    +0.000 C 
ENDBRANCH  10  20
BRANCH   6  23
ATOM     23  O   UNL     1      -4.875  13.836  19.141  0.00  0.00    +0.000 OA
ATOM     24  H   UNL     1      -4.562  13.244  18.433  0.00  0.00    +0.000 HD
ENDBRANCH   6  23
TORSDOF 2
ENDMDL
MODEL 5
REMARK VINA RESULT:      -6.0      9.523     11.398
REMARK  Name = 
REMARK  6 active torsions:
REMARK  status: ('A' for Active; 'I' for Inactive)
REMARK    1  A    between atoms: C_1  and  C_2
REMARK    2  A    between atoms: C_6  and  C_7
REMARK    3  A    between atoms: C_6  and  O_8
REMARK    4  A    between atoms: C_11  and  C_12
REMARK    5  A    between atoms: C_12  and  C_13
REMARK    6  A    between atoms: C_12  and  C_14
REMARK                            x       y       z     vdW  Elec       q    Type
REMARK                         _______ _______ _______ _____ _____    ______ ____
ROOT
ATOM      1  C   UNL     1       8.858   9.036  18.678  0.00  0.00    +0.000 C 
ATOM      2  C   UNL     1       9.299  10.457  18.979  0.00  0.00    +0.000 C 
ATOM      3  C   UNL     1       9.869  10.965  17.850  0.00  0.00    +0.000 C 
ATOM      4  C   UNL     1      10.912  11.983  17.649  0.00  0.00    +0.000 C 
ATOM      5  C   UNL     1      10.365  13.355  17.904  0.00  0.00    +0.000 C 
ATOM      6  C   UNL     1      11.043  13.979  19.109  0.00  0.00    +0.000 C 
ATOM      7  C   UNL     1      12.333  14.702  18.737  0.00  0.00    +0.000 C 
ATOM      8  C   UNL     1       9.980  14.823  19.703  0.00  0.00    +0.000 C 
ATOM      9  C   UNL     1      10.164  15.949  20.381  0.00  0.00    +0.000 C 
ATOM     10  C   UNL     1       9.040  16.700  21.033  0.00  0.00    +0.000 C 
ATOM     11  C   UNL     1       9.522  16.939  22.466  0.00  0.00    +0.000 C 
ATOM     12  C   UNL     1       9.715  15.535  23.193  0.00  0.00    +0.000 C 
ATOM     13  C   UNL     1       8.944  14.373  22.530  0.00  0.00    +0.000 C 
ATOM     14  C   UNL     1       9.343  13.088  22.249  0.00  0.00    +0.000 C 
ATOM     15  C   UNL     1       8.634  12.000  21.328  0.00  0.00    +0.000 C 
ATOM     16  C   UNL     1       9.489  10.868  20.505  0.00  0.00    +0.000 C 
ATOM     17  C   UNL     1       7.654  14.872  21.990  0.00  0.00    +0.000 C 
ATOM     18  O   UNL     1       6.582  14.369  22.281  0.00  0.00    +0.000 OA
ATOM     19  O   UNL     1       7.795  15.930  21.152  0.00  0.00    +0.000 OA
ENDROOT
BRANCH  10  20
ATOM     20  C   UNL     1       8.718  17.827  20.000  0.00  0.00    +0.000 C 
ATOM     21  C   UNL     1       7.623  17.516  18.961  0.00  0.00    +0.000 C 
ATOM     22  C   UNL     1       9.928  18.447  19.308  0.00  0.00    +0.000 C 
ENDBRANCH  10  20
BRANCH   6  23
ATOM     23  O   UNL     1      11.408  13.038  20.108  0.00  0.00    +0.000 OA
ATOM     24  H   UNL     1      10.678  12.401  20.202  0.00  0.00    +0.000 HD
ENDBRANCH   6  23
TORSDOF 2
ENDMDL
MODEL 6
REMARK VINA RESULT:      -5.9      6.570     11.133
REMARK  Name = 
REMARK  6 active torsions:
REMARK  status: ('A' for Active; 'I' for Inactive)
REMARK    1  A    between atoms: C_1  and  C_2
REMARK    2  A    between atoms: C_6  and  C_7
REMARK    3  A    between atoms: C_6  and  O_8
REMARK    4  A    between atoms: C_11  and  C_12
REMARK    5  A    between atoms: C_12  and  C_13
REMARK    6  A    between atoms: C_12  and  C_14
REMARK                            x       y       z     vdW  Elec       q    Type
REMARK                         _______ _______ _______ _____ _____    ______ ____
ROOT
ATOM      1  C   UNL     1      -7.414  12.914  21.110  0.00  0.00    +0.000 C 
ATOM      2  C   UNL     1      -5.913  12.819  21.320  0.00  0.00    +0.000 C 
ATOM      3  C   UNL     1      -5.680  12.819  22.663  0.00  0.00    +0.000 C 
ATOM      4  C   UNL     1      -4.531  13.280  23.460  0.00  0.00    +0.000 C 
ATOM      5  C   UNL     1      -3.385  12.322  23.333  0.00  0.00    +0.000 C 
ATOM      6  C   UNL     1      -2.213  12.992  22.639  0.00  0.00    +0.000 C 
ATOM      7  C   UNL     1      -1.314  13.741  23.617  0.00  0.00    +0.000 C 
ATOM      8  C   UNL     1      -1.573  11.880  21.897  0.00  0.00    +0.000 C 
ATOM      9  C   UNL     1      -0.283  11.777  21.606  0.00  0.00    +0.000 C 
ATOM     10  C   UNL     1       0.275  10.664  20.767  0.00  0.00    +0.000 C 
ATOM     11  C   UNL     1       1.124  11.374  19.709  0.00  0.00    +0.000 C 
ATOM     12  C   UNL     1       0.182  12.293  18.813  0.00  0.00    +0.000 C 
ATOM     13  C   UNL     1      -1.311  11.899  18.864  0.00  0.00    +0.000 C 
ATOM     14  C   UNL     1      -2.433  12.684  18.979  0.00  0.00    +0.000 C 
ATOM     15  C   UNL     1      -3.929  12.247  19.301  0.00  0.00    +0.000 C 
ATOM     16  C   UNL     1      -4.967  13.229  20.109  0.00  0.00    +0.000 C 
ATOM     17  C   UNL     1      -1.435  10.424  18.981  0.00  0.00    +0.000 C 
ATOM     18  O   UNL     1      -2.103   9.758  18.207  0.00  0.00    +0.000 OA
ATOM     19  O   UNL     1      -0.739   9.906  20.024  0.00  0.00    +0.000 OA
ENDROOT
BRANCH  10  20
ATOM     20  C   UNL     1       0.829   9.661  21.829  0.00  0.00    +0.000 C 
ATOM     21  C   UNL     1       1.173   8.246  21.325  0.00  0.00    +0.000 C 
ATOM     22  C   UNL     1       0.029   9.569  23.124  0.00  0.00    +0.000 C 
ENDBRANCH  10  20
BRANCH   6  23
ATOM     23  O   UNL     1      -2.599  13.950  21.665  0.00  0.00    +0.000 OA
ATOM     24  H   UNL     1      -2.722  13.485  20.819  0.00  0.00    +0.000 HD
ENDBRANCH   6  23
TORSDOF 2
ENDMDL
MODEL 7
REMARK VINA RESULT:      -5.8      7.881     11.307
REMARK  Name = 
REMARK  6 active torsions:
REMARK  status: ('A' for Active; 'I' for Inactive)
REMARK    1  A    between atoms: C_1  and  C_2
REMARK    2  A    between atoms: C_6  and  C_7
REMARK    3  A    between atoms: C_6  and  O_8
REMARK    4  A    between atoms: C_11  and  C_12
REMARK    5  A    between atoms: C_12  and  C_13
REMARK    6  A    between atoms: C_12  and  C_14
REMARK                            x       y       z     vdW  Elec       q    Type
REMARK                         _______ _______ _______ _____ _____    ______ ____
ROOT
ATOM      1  C   UNL     1       0.489   9.319  23.289  0.00  0.00    +0.000 C 
ATOM      2  C   UNL     1      -0.366  10.082  22.293  0.00  0.00    +0.000 C 
ATOM      3  C   UNL     1      -0.171   9.525  21.065  0.00  0.00    +0.000 C 
ATOM      4  C   UNL     1      -0.247  10.091  19.708  0.00  0.00    +0.000 C 
ATOM      5  C   UNL     1      -1.675  10.304  19.306  0.00  0.00    +0.000 C 
ATOM      6  C   UNL     1      -1.957  11.784  19.126  0.00  0.00    +0.000 C 
ATOM      7  C   UNL     1      -1.622  12.270  17.720  0.00  0.00    +0.000 C 
ATOM      8  C   UNL     1      -3.377  11.914  19.531  0.00  0.00    +0.000 C 
ATOM      9  C   UNL     1      -4.243  12.803  19.064  0.00  0.00    +0.000 C 
ATOM     10  C   UNL     1      -5.642  12.932  19.593  0.00  0.00    +0.000 C 
ATOM     11  C   UNL     1      -5.802  14.426  19.886  0.00  0.00    +0.000 C 
ATOM     12  C   UNL     1      -4.764  14.851  21.017  0.00  0.00    +0.000 C 
ATOM     13  C   UNL     1      -4.240  13.670  21.863  0.00  0.00    +0.000 C 
ATOM     14  C   UNL     1      -2.965  13.377  22.286  0.00  0.00    +0.000 C 
ATOM     15  C   UNL     1      -2.408  12.027  22.918  0.00  0.00    +0.000 C 
ATOM     16  C   UNL     1      -0.856  11.540  22.699  0.00  0.00    +0.000 C 
ATOM     17  C   UNL     1      -5.319  12.665  22.043  0.00  0.00    +0.000 C 
ATOM     18  O   UNL     1      -5.667  12.265  23.141  0.00  0.00    +0.000 OA
ATOM     19  O   UNL     1      -5.864  12.247  20.873  0.00  0.00    +0.000 OA
ENDROOT
BRANCH  10  20
ATOM     20  C   UNL     1      -6.491  12.131  18.555  0.00  0.00    +0.000 C 
ATOM     21  C   UNL     1      -6.768  10.652  18.888  0.00  0.00    +0.000 C 
ATOM     22  C   UNL     1      -6.044  12.260  17.103  0.00  0.00    +0.000 C 
ENDBRANCH  10  20
BRANCH   6  23
ATOM     23  O   UNL     1      -1.215  12.617  20.004  0.00  0.00    +0.000 OA
ATOM     24  H   UNL     1      -1.037  12.112  20.818  0.00  0.00    +0.000 HD
ENDBRANCH   6  23
TORSDOF 2
ENDMDL
MODEL 8
REMARK VINA RESULT:      -5.7      6.766     10.464
REMARK  Name = 
REMARK  6 active torsions:
REMARK  status: ('A' for Active; 'I' for Inactive)
REMARK    1  A    between atoms: C_1  and  C_2
REMARK    2  A    between atoms: C_6  and  C_7
REMARK    3  A    between atoms: C_6  and  O_8
REMARK    4  A    between atoms: C_11  and  C_12
REMARK    5  A    between atoms: C_12  and  C_13
REMARK    6  A    between atoms: C_12  and  C_14
REMARK                            x       y       z     vdW  Elec       q    Type
REMARK                         _______ _______ _______ _____ _____    ______ ____
ROOT
ATOM      1  C   UNL     1       2.141   9.412  17.922  0.00  0.00    +0.000 C 
ATOM      2  C   UNL     1       0.863  10.163  18.250  0.00  0.00    +0.000 C 
ATOM      3  C   UNL     1      -0.185   9.423  17.792  0.00  0.00    +0.000 C 
ATOM      4  C   UNL     1      -1.527   9.806  17.322  0.00  0.00    +0.000 C 
ATOM      5  C   UNL     1      -2.398  10.193  18.479  0.00  0.00    +0.000 C 
ATOM      6  C   UNL     1      -2.770  11.661  18.392  0.00  0.00    +0.000 C 
ATOM      7  C   UNL     1      -4.013  11.894  17.541  0.00  0.00    +0.000 C 
ATOM      8  C   UNL     1      -2.873  12.074  19.811  0.00  0.00    +0.000 C 
ATOM      9  C   UNL     1      -3.667  13.022  20.292  0.00  0.00    +0.000 C 
ATOM     10  C   UNL     1      -3.647  13.447  21.731  0.00  0.00    +0.000 C 
ATOM     11  C   UNL     1      -3.535  14.973  21.676  0.00  0.00    +0.000 C 
ATOM     12  C   UNL     1      -2.156  15.370  20.986  0.00  0.00    +0.000 C 
ATOM     13  C   UNL     1      -1.099  14.244  21.000  0.00  0.00    +0.000 C 
ATOM     14  C   UNL     1      -0.254  13.807  20.008  0.00  0.00    +0.000 C 
ATOM     15  C   UNL     1       0.625  12.480  19.958  0.00  0.00    +0.000 C 
ATOM     16  C   UNL     1       0.974  11.723  18.545  0.00  0.00    +0.000 C 
ATOM     17  C   UNL     1      -1.219  13.462  22.257  0.00  0.00    +0.000 C 
ATOM     18  O   UNL     1      -0.274  13.274  23.005  0.00  0.00    +0.000 OA
ATOM     19  O   UNL     1      -2.470  12.985  22.477  0.00  0.00    +0.000 OA
ENDROOT
BRANCH  10  20
ATOM     20  C   UNL     1      -4.848  12.663  22.351  0.00  0.00    +0.000 C 
ATOM     21  C   UNL     1      -6.135  12.596  21.506  0.00  0.00    +0.000 C 
ATOM     22  C   UNL     1      -5.193  13.023  23.792  0.00  0.00    +0.000 C 
ENDBRANCH  10  20
BRANCH   6  23
ATOM     23  O   UNL     1      -1.756  12.472  17.815  0.00  0.00    +0.000 OA
ATOM     24  H   UNL     1      -0.950  11.932  17.733  0.00  0.00    +0.000 HD
ENDBRANCH   6  23
TORSDOF 2
ENDMDL
MODEL 9
REMARK VINA RESULT:      -5.7      9.009     11.393
REMARK  Name = 
REMARK  6 active torsions:
REMARK  status: ('A' for Active; 'I' for Inactive)
REMARK    1  A    between atoms: C_1  and  C_2
REMARK    2  A    between atoms: C_6  and  C_7
REMARK    3  A    between atoms: C_6  and  O_8
REMARK    4  A    between atoms: C_11  and  C_12
REMARK    5  A    between atoms: C_12  and  C_13
REMARK    6  A    between atoms: C_12  and  C_14
REMARK                            x       y       z     vdW  Elec       q    Type
REMARK                         _______ _______ _______ _____ _____    ______ ____
ROOT
ATOM      1  C   UNL     1       1.800  14.399  19.977  0.00  0.00    +0.000 C 
ATOM      2  C   UNL     1       3.297  14.503  20.212  0.00  0.00    +0.000 C 
ATOM      3  C   UNL     1       3.521  14.335  21.546  0.00  0.00    +0.000 C 
ATOM      4  C   UNL     1       4.581  14.840  22.434  0.00  0.00    +0.000 C 
ATOM      5  C   UNL     1       5.862  14.099  22.198  0.00  0.00    +0.000 C 
ATOM      6  C   UNL     1       6.920  15.036  21.645  0.00  0.00    +0.000 C 
ATOM      7  C   UNL     1       7.688  15.757  22.747  0.00  0.00    +0.000 C 
ATOM      8  C   UNL     1       7.727  14.160  20.763  0.00  0.00    +0.000 C 
ATOM      9  C   UNL     1       9.019  14.299  20.496  0.00  0.00    +0.000 C 
ATOM     10  C   UNL     1       9.747  13.425  19.517  0.00  0.00    +0.000 C 
ATOM     11  C   UNL     1      10.481  14.407  18.601  0.00  0.00    +0.000 C 
ATOM     12  C   UNL     1       9.411  15.297  17.826  0.00  0.00    +0.000 C 
ATOM     13  C   UNL     1       7.997  14.677  17.776  0.00  0.00    +0.000 C 
ATOM     14  C   UNL     1       6.767  15.256  17.975  0.00  0.00    +0.000 C 
ATOM     15  C   UNL     1       5.355  14.552  18.186  0.00  0.00    +0.000 C 
ATOM     16  C   UNL     1       4.174  15.230  19.102  0.00  0.00    +0.000 C 
ATOM     17  C   UNL     1       8.102  13.200  17.668  0.00  0.00    +0.000 C 
ATOM     18  O   UNL     1       7.549  12.565  16.786  0.00  0.00    +0.000 OA
ATOM     19  O   UNL     1       8.865  12.643  18.642  0.00  0.00    +0.000 OA
ENDROOT
BRANCH  10  20
ATOM     20  C   UNL     1      10.444  12.369  20.433  0.00  0.00    +0.000 C 
ATOM     21  C   UNL     1      11.902  12.013  20.086  0.00  0.00    +0.000 C 
ATOM     22  C   UNL     1       9.646  11.095  20.690  0.00  0.00    +0.000 C 
ENDBRANCH  10  20
BRANCH   6  23
ATOM     23  O   UNL     1       6.394  16.061  20.814  0.00  0.00    +0.000 OA
ATOM     24  H   UNL     1       5.866  15.638  20.114  0.00  0.00    +0.000 HD
ENDBRANCH   6  23
TORSDOF 2
ENDMDL
