MODEL 1
REMARK VINA RESULT:      -8.1      0.000      0.000
REMARK  Name = 
REMARK  9 active torsions:
REMARK  status: ('A' for Active; 'I' for Inactive)
REMARK    1  A    between atoms: C_2  and  C_3
REMARK    2  A    between atoms: C_3  and  C_4
REMARK    3  A    between atoms: C_4  and  C_5
REMARK    4  A    between atoms: N_7  and  C_8
REMARK    5  A    between atoms: N_7  and  C_15
REMARK    6  A    between atoms: C_15  and  C_16
REMARK    7  A    between atoms: C_15  and  C_24
REMARK    8  A    between atoms: N_18  and  C_19
REMARK    9  A    between atoms: N_30  and  C_31
REMARK                            x       y       z     vdW  Elec       q    Type
REMARK                         _______ _______ _______ _____ _____    ______ ____
ROOT
ATOM      1  C   UNL     1       2.821   6.657  17.918  0.00  0.00    +0.000 C 
ATOM      2  O   UNL     1       1.675   6.349  17.575  0.00  0.00    +0.000 OA
ATOM      3  N   UNL     1       3.928   5.833  17.657  0.00  0.00    +0.000 N 
ENDROOT
BRANCH   3   4
ATOM      4  C   UNL     1       5.261   6.186  18.053  0.00  0.00    +0.000 A 
ATOM      5  C   UNL     1       5.865   5.540  19.145  0.00  0.00    +0.000 A 
ATOM      6  C   UNL     1       7.211   5.754  19.449  0.00  0.00    +0.000 A 
ATOM      7  C   UNL     1       7.970   6.612  18.663  0.00  0.00    +0.000 A 
ATOM      8  C   UNL     1       7.357   7.297  17.623  0.00  0.00    +0.000 A 
ATOM      9  F   UNL     1       8.088   8.114  16.854  0.00  0.00    +0.000 F 
ATOM     10  C   UNL     1       6.007   7.125  17.336  0.00  0.00    +0.000 A 
ENDBRANCH   3   4
BRANCH   1  11
ATOM     11  C   UNL     1       3.045   7.956  18.697  0.00  0.00    +0.000 C 
BRANCH  11  12
ATOM     12  C   UNL     1       2.463   9.187  18.011  0.00  0.00    +0.000 C 
BRANCH  12  14
ATOM     13  O   UNL     1       0.903   9.351  19.805  0.00  0.00    +0.000 OA
ATOM     14  C   UNL     1       1.121   9.545  18.613  0.00  0.00    +0.000 C 
ATOM     15  N   UNL     1       0.220  10.014  17.679  0.00  0.00    +0.000 N 
ATOM     16  H   UNL     1       0.464   9.871  16.700  0.00  0.00    +0.000 HD
BRANCH  15  17
ATOM     17  C   UNL     1      -1.077  10.503  17.942  0.00  0.00    +0.000 A 
ATOM     18  C   UNL     1      -1.352  11.555  18.812  0.00  0.00    +0.000 A 
ATOM     19  C   UNL     1      -2.674  11.947  19.031  0.00  0.00    +0.000 A 
ATOM     20  C   UNL     1      -3.680  11.279  18.355  0.00  0.00    +0.000 A 
ATOM     21  N   UNL     1      -3.455  10.282  17.475  0.00  0.00    +0.000 NA
ATOM     22  C   UNL     1      -2.163   9.919  17.291  0.00  0.00    +0.000 A 
ENDBRANCH  15  17
ENDBRANCH  12  14
ENDBRANCH  11  12
ENDBRANCH   1  11
BRANCH   3  23
ATOM     23  C   UNL     1       3.661   4.459  17.129  0.00  0.00    +0.000 C 
BRANCH  23  24
ATOM     24  C   UNL     1       3.050   3.472  18.139  0.00  0.00    +0.000 A 
ATOM     25  C   UNL     1       2.029   2.565  17.830  0.00  0.00    +0.000 A 
ATOM     26  C   UNL     1       1.475   1.794  18.844  0.00  0.00    +0.000 A 
ATOM     27  N   UNL     1       1.881   1.833  20.129  0.00  0.00    +0.000 NA
ATOM     28  C   UNL     1       2.910   2.654  20.406  0.00  0.00    +0.000 A 
ATOM     29  C   UNL     1       3.528   3.457  19.460  0.00  0.00    +0.000 A 
ENDBRANCH  23  24
BRANCH  23  30
ATOM     30  C   UNL     1       4.858   3.840  16.301  0.00  0.00    +0.000 C 
ATOM     31  O   UNL     1       5.409   2.778  16.588  0.00  0.00    +0.000 OA
ATOM     32  N   UNL     1       5.149   4.475  15.105  0.00  0.00    +0.000 N 
ATOM     33  H   UNL     1       4.569   5.254  14.826  0.00  0.00    +0.000 HD
BRANCH  32  34
ATOM     34  C   UNL     1       6.101   3.930  14.151  0.00  0.00    +0.000 C 
ATOM     35  C   UNL     1       5.418   3.474  12.868  0.00  0.00    +0.000 C 
ATOM     36  C   UNL     1       6.538   3.394  11.840  0.00  0.00    +0.000 C 
ATOM     37  C   UNL     1       7.597   4.394  12.293  0.00  0.00    +0.000 C 
ATOM     38  C   UNL     1       7.129   4.942  13.640  0.00  0.00    +0.000 C 
ENDBRANCH  32  34
ENDBRANCH  23  30
ENDBRANCH   3  23
TORSDOF 9
ENDMDL
MODEL 2
REMARK VINA RESULT:      -7.9      4.108      9.596
REMARK  Name = 
REMARK  9 active torsions:
REMARK  status: ('A' for Active; 'I' for Inactive)
REMARK    1  A    between atoms: C_2  and  C_3
REMARK    2  A    between atoms: C_3  and  C_4
REMARK    3  A    between atoms: C_4  and  C_5
REMARK    4  A    between atoms: N_7  and  C_8
REMARK    5  A    between atoms: N_7  and  C_15
REMARK    6  A    between atoms: C_15  and  C_16
REMARK    7  A    between atoms: C_15  and  C_24
REMARK    8  A    between atoms: N_18  and  C_19
REMARK    9  A    between atoms: N_30  and  C_31
REMARK                            x       y       z     vdW  Elec       q    Type
REMARK                         _______ _______ _______ _____ _____    ______ ____
ROOT
ATOM      1  C   UNL     1       1.666   9.822  18.572  0.00  0.00    +0.000 C 
ATOM      2  O   UNL     1       1.987  10.210  17.445  0.00  0.00    +0.000 OA
ATOM      3  N   UNL     1       1.029  10.663  19.500  0.00  0.00    +0.000 N 
ENDROOT
BRANCH   3   4
ATOM      4  C   UNL     1       0.654  10.218  20.811  0.00  0.00    +0.000 A 
ATOM      5  C   UNL     1       1.550   9.453  21.577  0.00  0.00    +0.000 A 
ATOM      6  C   UNL     1       1.270   9.144  22.910  0.00  0.00    +0.000 A 
ATOM      7  C   UNL     1       0.095   9.600  23.494  0.00  0.00    +0.000 A 
ATOM      8  C   UNL     1      -0.817  10.302  22.719  0.00  0.00    +0.000 A 
ATOM      9  F   UNL     1      -1.945  10.756  23.281  0.00  0.00    +0.000 F 
ATOM     10  C   UNL     1      -0.570  10.580  21.379  0.00  0.00    +0.000 A 
ENDBRANCH   3   4
BRANCH   1  11
ATOM     11  C   UNL     1       2.014   8.393  19.000  0.00  0.00    +0.000 C 
BRANCH  11  12
ATOM     12  C   UNL     1       2.824   7.626  17.962  0.00  0.00    +0.000 C 
BRANCH  12  14
ATOM     13  O   UNL     1       3.509   5.371  17.611  0.00  0.00    +0.000 OA
ATOM     14  C   UNL     1       2.862   6.151  18.302  0.00  0.00    +0.000 C 
ATOM     15  N   UNL     1       2.061   5.825  19.376  0.00  0.00    +0.000 N 
ATOM     16  H   UNL     1       1.391   6.533  19.676  0.00  0.00    +0.000 HD
BRANCH  15  17
ATOM     17  C   UNL     1       1.949   4.555  19.981  0.00  0.00    +0.000 A 
ATOM     18  C   UNL     1       1.491   3.416  19.323  0.00  0.00    +0.000 A 
ATOM     19  C   UNL     1       1.387   2.209  20.016  0.00  0.00    +0.000 A 
ATOM     20  C   UNL     1       1.761   2.179  21.348  0.00  0.00    +0.000 A 
ATOM     21  N   UNL     1       2.247   3.248  22.012  0.00  0.00    +0.000 NA
ATOM     22  C   UNL     1       2.328   4.407  21.314  0.00  0.00    +0.000 A 
ENDBRANCH  15  17
ENDBRANCH  12  14
ENDBRANCH  11  12
ENDBRANCH   1  11
BRANCH   3  23
ATOM     23  C   UNL     1       0.930  12.117  19.164  0.00  0.00    +0.000 C 
BRANCH  23  24
ATOM     24  C   UNL     1       1.296  13.084  20.303  0.00  0.00    +0.000 A 
ATOM     25  C   UNL     1       0.357  13.721  21.124  0.00  0.00    +0.000 A 
ATOM     26  C   UNL     1       0.792  14.659  22.053  0.00  0.00    +0.000 A 
ATOM     27  N   UNL     1       2.085  14.984  22.248  0.00  0.00    +0.000 NA
ATOM     28  C   UNL     1       2.988  14.316  21.507  0.00  0.00    +0.000 A 
ATOM     29  C   UNL     1       2.650  13.362  20.560  0.00  0.00    +0.000 A 
ENDBRANCH  23  24
BRANCH  23  30
ATOM     30  C   UNL     1      -0.404  12.518  18.414  0.00  0.00    +0.000 C 
ATOM     31  O   UNL     1      -0.695  13.674  18.109  0.00  0.00    +0.000 OA
ATOM     32  N   UNL     1      -1.167  11.461  17.945  0.00  0.00    +0.000 N 
ATOM     33  H   UNL     1      -0.814  10.523  18.078  0.00  0.00    +0.000 HD
BRANCH  32  34
ATOM     34  C   UNL     1      -2.325  11.662  17.091  0.00  0.00    +0.000 C 
ATOM     35  C   UNL     1      -2.476  10.541  16.069  0.00  0.00    +0.000 C 
ATOM     36  C   UNL     1      -3.923  10.631  15.607  0.00  0.00    +0.000 C 
ATOM     37  C   UNL     1      -4.699  11.249  16.766  0.00  0.00    +0.000 C 
ATOM     38  C   UNL     1      -3.666  11.622  17.828  0.00  0.00    +0.000 C 
ENDBRANCH  32  34
ENDBRANCH  23  30
ENDBRANCH   3  23
TORSDOF 9
ENDMDL
MODEL 3
REMARK VINA RESULT:      -7.8      2.168      4.094
REMARK  Name = 
REMARK  9 active torsions:
REMARK  status: ('A' for Active; 'I' for Inactive)
REMARK    1  A    between atoms: C_2  and  C_3
REMARK    2  A    between atoms: C_3  and  C_4
REMARK    3  A    between atoms: C_4  and  C_5
REMARK    4  A    between atoms: N_7  and  C_8
REMARK    5  A    between atoms: N_7  and  C_15
REMARK    6  A    between atoms: C_15  and  C_16
REMARK    7  A    between atoms: C_15  and  C_24
REMARK    8  A    between atoms: N_18  and  C_19
REMARK    9  A    between atoms: N_30  and  C_31
REMARK                            x       y       z     vdW  Elec       q    Type
REMARK                         _______ _______ _______ _____ _____    ______ ____
ROOT
ATOM      1  C   UNL     1       3.294   7.342  17.798  0.00  0.00    +0.000 C 
ATOM      2  O   UNL     1       4.093   8.153  17.319  0.00  0.00    +0.000 OA
ATOM      3  N   UNL     1       3.622   5.989  17.986  0.00  0.00    +0.000 N 
ENDROOT
BRANCH   3   4
ATOM      4  C   UNL     1       2.697   5.044  18.542  0.00  0.00    +0.000 A 
ATOM      5  C   UNL     1       1.963   4.196  17.695  0.00  0.00    +0.000 A 
ATOM      6  C   UNL     1       1.179   3.165  18.217  0.00  0.00    +0.000 A 
ATOM      7  C   UNL     1       1.123   2.966  19.591  0.00  0.00    +0.000 A 
ATOM      8  C   UNL     1       1.799   3.842  20.430  0.00  0.00    +0.000 A 
ATOM      9  F   UNL     1       1.760   3.646  21.754  0.00  0.00    +0.000 F 
ATOM     10  C   UNL     1       2.549   4.898  19.924  0.00  0.00    +0.000 A 
ENDBRANCH   3   4
BRANCH   1  11
ATOM     11  C   UNL     1       1.880   7.808  18.156  0.00  0.00    +0.000 C 
BRANCH  11  12
ATOM     12  C   UNL     1       1.634   9.285  17.871  0.00  0.00    +0.000 C 
BRANCH  12  14
ATOM     13  O   UNL     1       0.278   9.704  19.786  0.00  0.00    +0.000 OA
ATOM     14  C   UNL     1       0.372   9.756  18.563  0.00  0.00    +0.000 C 
ATOM     15  N   UNL     1      -0.611  10.150  17.681  0.00  0.00    +0.000 N 
ATOM     16  H   UNL     1      -0.477   9.891  16.704  0.00  0.00    +0.000 HD
BRANCH  15  17
ATOM     17  C   UNL     1      -1.861  10.712  18.018  0.00  0.00    +0.000 A 
ATOM     18  C   UNL     1      -2.019  11.820  18.848  0.00  0.00    +0.000 A 
ATOM     19  C   UNL     1      -3.300  12.285  19.149  0.00  0.00    +0.000 A 
ATOM     20  C   UNL     1      -4.386  11.630  18.594  0.00  0.00    +0.000 A 
ATOM     21  N   UNL     1      -4.276  10.579  17.756  0.00  0.00    +0.000 NA
ATOM     22  C   UNL     1      -3.020  10.147  17.490  0.00  0.00    +0.000 A 
ENDBRANCH  15  17
ENDBRANCH  12  14
ENDBRANCH  11  12
ENDBRANCH   1  11
BRANCH   3  23
ATOM     23  C   UNL     1       4.906   5.498  17.397  0.00  0.00    +0.000 C 
BRANCH  23  24
ATOM     24  C   UNL     1       6.183   5.974  18.112  0.00  0.00    +0.000 A 
ATOM     25  C   UNL     1       6.993   7.021  17.655  0.00  0.00    +0.000 A 
ATOM     26  C   UNL     1       8.183   7.298  18.318  0.00  0.00    +0.000 A 
ATOM     27  N   UNL     1       8.609   6.637  19.412  0.00  0.00    +0.000 NA
ATOM     28  C   UNL     1       7.791   5.679  19.888  0.00  0.00    +0.000 A 
ATOM     29  C   UNL     1       6.585   5.336  19.298  0.00  0.00    +0.000 A 
ENDBRANCH  23  24
BRANCH  23  30
ATOM     30  C   UNL     1       4.988   5.632  15.823  0.00  0.00    +0.000 C 
ATOM     31  O   UNL     1       5.040   6.709  15.231  0.00  0.00    +0.000 OA
ATOM     32  N   UNL     1       5.184   4.447  15.132  0.00  0.00    +0.000 N 
ATOM     33  H   UNL     1       5.294   3.597  15.667  0.00  0.00    +0.000 HD
BRANCH  32  34
ATOM     34  C   UNL     1       5.451   4.420  13.704  0.00  0.00    +0.000 C 
ATOM     35  C   UNL     1       6.939   4.270  13.410  0.00  0.00    +0.000 C 
ATOM     36  C   UNL     1       7.002   3.786  11.969  0.00  0.00    +0.000 C 
ATOM     37  C   UNL     1       5.694   3.044  11.715  0.00  0.00    +0.000 C 
ATOM     38  C   UNL     1       4.845   3.220  12.973  0.00  0.00    +0.000 C 
ENDBRANCH  32  34
ENDBRANCH  23  30
ENDBRANCH   3  23
TORSDOF 9
ENDMDL
MODEL 4
REMARK VINA RESULT:      -7.7      4.317     11.325
REMARK  Name = 
REMARK  9 active torsions:
REMARK  status: ('A' for Active; 'I' for Inactive)
REMARK    1  A    between atoms: C_2  and  C_3
REMARK    2  A    between atoms: C_3  and  C_4
REMARK    3  A    between atoms: C_4  and  C_5
REMARK    4  A    between atoms: N_7  and  C_8
REMARK    5  A    between atoms: N_7  and  C_15
REMARK    6  A    between atoms: C_15  and  C_16
REMARK    7  A    between atoms: C_15  and  C_24
REMARK    8  A    between atoms: N_18  and  C_19
REMARK    9  A    between atoms: N_30  and  C_31
REMARK                            x       y       z     vdW  Elec       q    Type
REMARK                         _______ _______ _______ _____ _____    ______ ____
ROOT
ATOM      1  C   UNL     1       0.488  10.944  20.799  0.00  0.00    +0.000 C 
ATOM      2  O   UNL     1       1.346  11.330  21.598  0.00  0.00    +0.000 OA
ATOM      3  N   UNL     1      -0.168  11.824  19.921  0.00  0.00    +0.000 N 
ENDROOT
BRANCH   3   4
ATOM      4  C   UNL     1      -1.165  11.380  18.990  0.00  0.00    +0.000 A 
ATOM      5  C   UNL     1      -0.838  10.430  18.008  0.00  0.00    +0.000 A 
ATOM      6  C   UNL     1      -1.826   9.868  17.196  0.00  0.00    +0.000 A 
ATOM      7  C   UNL     1      -3.153  10.246  17.360  0.00  0.00    +0.000 A 
ATOM      8  C   UNL     1      -3.467  11.230  18.288  0.00  0.00    +0.000 A 
ATOM      9  F   UNL     1      -4.746  11.587  18.459  0.00  0.00    +0.000 F 
ATOM     10  C   UNL     1      -2.486  11.827  19.073  0.00  0.00    +0.000 A 
ENDBRANCH   3   4
BRANCH   1  11
ATOM     11  C   UNL     1       0.084   9.467  20.789  0.00  0.00    +0.000 C 
BRANCH  11  12
ATOM     12  C   UNL     1       1.197   8.527  21.236  0.00  0.00    +0.000 C 
BRANCH  12  14
ATOM     13  O   UNL     1       1.952   8.415  18.979  0.00  0.00    +0.000 OA
ATOM     14  C   UNL     1       1.808   7.822  20.044  0.00  0.00    +0.000 C 
ATOM     15  N   UNL     1       2.086   6.493  20.287  0.00  0.00    +0.000 N 
ATOM     16  H   UNL     1       1.672   6.088  21.126  0.00  0.00    +0.000 HD
BRANCH  15  17
ATOM     17  C   UNL     1       2.730   5.599  19.406  0.00  0.00    +0.000 A 
ATOM     18  C   UNL     1       2.077   4.885  18.405  0.00  0.00    +0.000 A 
ATOM     19  C   UNL     1       2.796   3.999  17.602  0.00  0.00    +0.000 A 
ATOM     20  C   UNL     1       4.156   3.867  17.819  0.00  0.00    +0.000 A 
ATOM     21  N   UNL     1       4.835   4.568  18.751  0.00  0.00    +0.000 NA
ATOM     22  C   UNL     1       4.107   5.414  19.520  0.00  0.00    +0.000 A 
ENDBRANCH  15  17
ENDBRANCH  12  14
ENDBRANCH  11  12
ENDBRANCH   1  11
BRANCH   3  23
ATOM     23  C   UNL     1       0.049  13.290  20.119  0.00  0.00    +0.000 C 
BRANCH  23  24
ATOM     24  C   UNL     1       1.216  13.897  19.322  0.00  0.00    +0.000 A 
ATOM     25  C   UNL     1       2.314  13.162  18.856  0.00  0.00    +0.000 A 
ATOM     26  C   UNL     1       3.366  13.829  18.240  0.00  0.00    +0.000 A 
ATOM     27  N   UNL     1       3.394  15.159  18.024  0.00  0.00    +0.000 NA
ATOM     28  C   UNL     1       2.305  15.850  18.409  0.00  0.00    +0.000 A 
ATOM     29  C   UNL     1       1.207  15.271  19.027  0.00  0.00    +0.000 A 
ENDBRANCH  23  24
BRANCH  23  30
ATOM     30  C   UNL     1       0.026  13.749  21.633  0.00  0.00    +0.000 C 
ATOM     31  O   UNL     1       1.015  14.164  22.236  0.00  0.00    +0.000 OA
ATOM     32  N   UNL     1      -1.229  13.831  22.213  0.00  0.00    +0.000 N 
ATOM     33  H   UNL     1      -2.035  13.632  21.635  0.00  0.00    +0.000 HD
BRANCH  32  34
ATOM     34  C   UNL     1      -1.435  14.399  23.535  0.00  0.00    +0.000 C 
ATOM     35  C   UNL     1      -1.638  15.908  23.477  0.00  0.00    +0.000 C 
ATOM     36  C   UNL     1      -2.295  16.261  24.804  0.00  0.00    +0.000 C 
ATOM     37  C   UNL     1      -3.046  15.010  25.249  0.00  0.00    +0.000 C 
ATOM     38  C   UNL     1      -2.707  13.918  24.236  0.00  0.00    +0.000 C 
ENDBRANCH  32  34
ENDBRANCH  23  30
ENDBRANCH   3  23
TORSDOF 9
ENDMDL
MODEL 5
REMARK VINA RESULT:      -7.7      2.696      4.537
REMARK  Name = 
REMARK  9 active torsions:
REMARK  status: ('A' for Active; 'I' for Inactive)
REMARK    1  A    between atoms: C_2  and  C_3
REMARK    2  A    between atoms: C_3  and  C_4
REMARK    3  A    between atoms: C_4  and  C_5
REMARK    4  A    between atoms: N_7  and  C_8
REMARK    5  A    between atoms: N_7  and  C_15
REMARK    6  A    between atoms: C_15  and  C_16
REMARK    7  A    between atoms: C_15  and  C_24
REMARK    8  A    between atoms: N_18  and  C_19
REMARK    9  A    between atoms: N_30  and  C_31
REMARK                            x       y       z     vdW  Elec       q    Type
REMARK                         _______ _______ _______ _____ _____    ______ ____
ROOT
ATOM      1  C   UNL     1       3.407   7.217  17.799  0.00  0.00    +0.000 C 
ATOM      2  O   UNL     1       4.213   8.056  17.385  0.00  0.00    +0.000 OA
ATOM      3  N   UNL     1       3.728   5.852  17.887  0.00  0.00    +0.000 N 
ENDROOT
BRANCH   3   4
ATOM      4  C   UNL     1       2.795   4.872  18.367  0.00  0.00    +0.000 A 
ATOM      5  C   UNL     1       2.394   3.815  17.533  0.00  0.00    +0.000 A 
ATOM      6  C   UNL     1       1.614   2.768  18.028  0.00  0.00    +0.000 A 
ATOM      7  C   UNL     1       1.231   2.762  19.363  0.00  0.00    +0.000 A 
ATOM      8  C   UNL     1       1.575   3.837  20.171  0.00  0.00    +0.000 A 
ATOM      9  F   UNL     1       1.220   3.830  21.462  0.00  0.00    +0.000 F 
ATOM     10  C   UNL     1       2.316   4.907  19.678  0.00  0.00    +0.000 A 
ENDBRANCH   3   4
BRANCH   1  11
ATOM     11  C   UNL     1       1.993   7.662  18.183  0.00  0.00    +0.000 C 
BRANCH  11  12
ATOM     12  C   UNL     1       1.629   9.049  17.667  0.00  0.00    +0.000 C 
BRANCH  12  14
ATOM     13  O   UNL     1       1.703  11.106  18.866  0.00  0.00    +0.000 OA
ATOM     14  C   UNL     1       1.260   9.963  18.815  0.00  0.00    +0.000 C 
ATOM     15  N   UNL     1       0.473   9.345  19.765  0.00  0.00    +0.000 N 
ATOM     16  H   UNL     1       0.408   8.329  19.710  0.00  0.00    +0.000 HD
BRANCH  15  17
ATOM     17  C   UNL     1      -0.098   9.954  20.902  0.00  0.00    +0.000 A 
ATOM     18  C   UNL     1       0.045   9.469  22.200  0.00  0.00    +0.000 A 
ATOM     19  C   UNL     1      -0.585  10.124  23.259  0.00  0.00    +0.000 A 
ATOM     20  C   UNL     1      -1.328  11.259  22.984  0.00  0.00    +0.000 A 
ATOM     21  N   UNL     1      -1.460  11.784  21.748  0.00  0.00    +0.000 NA
ATOM     22  C   UNL     1      -0.844  11.120  20.741  0.00  0.00    +0.000 A 
ENDBRANCH  15  17
ENDBRANCH  12  14
ENDBRANCH  11  12
ENDBRANCH   1  11
BRANCH   3  23
ATOM     23  C   UNL     1       5.012   5.399  17.270  0.00  0.00    +0.000 C 
BRANCH  23  24
ATOM     24  C   UNL     1       6.290   5.903  17.963  0.00  0.00    +0.000 A 
ATOM     25  C   UNL     1       6.814   5.352  19.139  0.00  0.00    +0.000 A 
ATOM     26  C   UNL     1       7.913   5.953  19.741  0.00  0.00    +0.000 A 
ATOM     27  N   UNL     1       8.546   7.034  19.246  0.00  0.00    +0.000 NA
ATOM     28  C   UNL     1       8.082   7.517  18.078  0.00  0.00    +0.000 A 
ATOM     29  C   UNL     1       6.996   6.981  17.404  0.00  0.00    +0.000 A 
ENDBRANCH  23  24
BRANCH  23  30
ATOM     30  C   UNL     1       5.060   5.546  15.696  0.00  0.00    +0.000 C 
ATOM     31  O   UNL     1       5.083   6.629  15.111  0.00  0.00    +0.000 OA
ATOM     32  N   UNL     1       5.261   4.370  14.991  0.00  0.00    +0.000 N 
ATOM     33  H   UNL     1       5.396   3.518  15.517  0.00  0.00    +0.000 HD
BRANCH  32  34
ATOM     34  C   UNL     1       5.500   4.358  13.558  0.00  0.00    +0.000 C 
ATOM     35  C   UNL     1       6.966   4.098  13.231  0.00  0.00    +0.000 C 
ATOM     36  C   UNL     1       6.964   3.648  11.777  0.00  0.00    +0.000 C 
ATOM     37  C   UNL     1       5.596   3.018  11.532  0.00  0.00    +0.000 C 
ATOM     38  C   UNL     1       4.787   3.229  12.810  0.00  0.00    +0.000 C 
ENDBRANCH  32  34
ENDBRANCH  23  30
ENDBRANCH   3  23
TORSDOF 9
ENDMDL
MODEL 6
REMARK VINA RESULT:      -7.6      2.731      4.560
REMARK  Name = 
REMARK  9 active torsions:
REMARK  status: ('A' for Active; 'I' for Inactive)
REMARK    1  A    between atoms: C_2  and  C_3
REMARK    2  A    between atoms: C_3  and  C_4
REMARK    3  A    between atoms: C_4  and  C_5
REMARK    4  A    between atoms: N_7  and  C_8
REMARK    5  A    between atoms: N_7  and  C_15
REMARK    6  A    between atoms: C_15  and  C_16
REMARK    7  A    between atoms: C_15  and  C_24
REMARK    8  A    between atoms: N_18  and  C_19
REMARK    9  A    between atoms: N_30  and  C_31
REMARK                            x       y       z     vdW  Elec       q    Type
REMARK                         _______ _______ _______ _____ _____    ______ ____
ROOT
ATOM      1  C   UNL     1       3.292   7.354  17.752  0.00  0.00    +0.000 C 
ATOM      2  O   UNL     1       4.095   8.147  17.251  0.00  0.00    +0.000 OA
ATOM      3  N   UNL     1       3.613   6.005  17.977  0.00  0.00    +0.000 N 
ENDROOT
BRANCH   3   4
ATOM      4  C   UNL     1       2.683   5.080  18.558  0.00  0.00    +0.000 A 
ATOM      5  C   UNL     1       1.924   4.232  17.733  0.00  0.00    +0.000 A 
ATOM      6  C   UNL     1       1.133   3.220  18.280  0.00  0.00    +0.000 A 
ATOM      7  C   UNL     1       1.095   3.039  19.657  0.00  0.00    +0.000 A 
ATOM      8  C   UNL     1       1.795   3.915  20.474  0.00  0.00    +0.000 A 
ATOM      9  F   UNL     1       1.773   3.737  21.801  0.00  0.00    +0.000 F 
ATOM     10  C   UNL     1       2.553   4.954  19.944  0.00  0.00    +0.000 A 
ENDBRANCH   3   4
BRANCH   1  11
ATOM     11  C   UNL     1       1.880   7.837  18.097  0.00  0.00    +0.000 C 
BRANCH  11  12
ATOM     12  C   UNL     1       1.565   9.230  17.565  0.00  0.00    +0.000 C 
BRANCH  12  14
ATOM     13  O   UNL     1       0.385  11.151  18.336  0.00  0.00    +0.000 OA
ATOM     14  C   UNL     1       0.851  10.051  18.617  0.00  0.00    +0.000 C 
ATOM     15  N   UNL     1       0.866   9.461  19.864  0.00  0.00    +0.000 N 
ATOM     16  H   UNL     1       1.511   8.682  19.990  0.00  0.00    +0.000 HD
BRANCH  15  17
ATOM     17  C   UNL     1       0.218   9.938  21.022  0.00  0.00    +0.000 A 
ATOM     18  C   UNL     1      -0.792  10.898  21.012  0.00  0.00    +0.000 A 
ATOM     19  C   UNL     1      -1.352  11.329  22.215  0.00  0.00    +0.000 A 
ATOM     20  C   UNL     1      -0.890  10.773  23.395  0.00  0.00    +0.000 A 
ATOM     21  N   UNL     1       0.057   9.814  23.447  0.00  0.00    +0.000 NA
ATOM     22  C   UNL     1       0.587   9.422  22.263  0.00  0.00    +0.000 A 
ENDBRANCH  15  17
ENDBRANCH  12  14
ENDBRANCH  11  12
ENDBRANCH   1  11
BRANCH   3  23
ATOM     23  C   UNL     1       4.894   5.491  17.402  0.00  0.00    +0.000 C 
BRANCH  23  24
ATOM     24  C   UNL     1       6.171   5.943  18.130  0.00  0.00    +0.000 A 
ATOM     25  C   UNL     1       7.001   6.981  17.688  0.00  0.00    +0.000 A 
ATOM     26  C   UNL     1       8.189   7.236  18.362  0.00  0.00    +0.000 A 
ATOM     27  N   UNL     1       8.595   6.562  19.457  0.00  0.00    +0.000 NA
ATOM     28  C   UNL     1       7.759   5.613  19.919  0.00  0.00    +0.000 A 
ATOM     29  C   UNL     1       6.553   5.292  19.316  0.00  0.00    +0.000 A 
ENDBRANCH  23  24
BRANCH  23  30
ATOM     30  C   UNL     1       4.996   5.624  15.829  0.00  0.00    +0.000 C 
ATOM     31  O   UNL     1       5.092   6.700  15.239  0.00  0.00    +0.000 OA
ATOM     32  N   UNL     1       5.155   4.434  15.137  0.00  0.00    +0.000 N 
ATOM     33  H   UNL     1       5.229   3.580  15.672  0.00  0.00    +0.000 HD
BRANCH  32  34
ATOM     34  C   UNL     1       5.435   4.399  13.712  0.00  0.00    +0.000 C 
ATOM     35  C   UNL     1       6.931   4.327  13.431  0.00  0.00    +0.000 C 
ATOM     36  C   UNL     1       7.031   3.826  11.997  0.00  0.00    +0.000 C 
ATOM     37  C   UNL     1       5.768   3.008  11.746  0.00  0.00    +0.000 C 
ATOM     38  C   UNL     1       4.901   3.157  12.995  0.00  0.00    +0.000 C 
ENDBRANCH  32  34
ENDBRANCH  23  30
ENDBRANCH   3  23
TORSDOF 9
ENDMDL
MODEL 7
REMARK VINA RESULT:      -7.6      1.173      1.500
REMARK  Name = 
REMARK  9 active torsions:
REMARK  status: ('A' for Active; 'I' for Inactive)
REMARK    1  A    between atoms: C_2  and  C_3
REMARK    2  A    between atoms: C_3  and  C_4
REMARK    3  A    between atoms: C_4  and  C_5
REMARK    4  A    between atoms: N_7  and  C_8
REMARK    5  A    between atoms: N_7  and  C_15
REMARK    6  A    between atoms: C_15  and  C_16
REMARK    7  A    between atoms: C_15  and  C_24
REMARK    8  A    between atoms: N_18  and  C_19
REMARK    9  A    between atoms: N_30  and  C_31
REMARK                            x       y       z     vdW  Elec       q    Type
REMARK                         _______ _______ _______ _____ _____    ______ ____
ROOT
ATOM      1  C   UNL     1       2.833   6.466  17.951  0.00  0.00    +0.000 C 
ATOM      2  O   UNL     1       1.702   6.123  17.595  0.00  0.00    +0.000 OA
ATOM      3  N   UNL     1       3.978   5.718  17.628  0.00  0.00    +0.000 N 
ENDROOT
BRANCH   3   4
ATOM      4  C   UNL     1       5.295   6.112  18.040  0.00  0.00    +0.000 A 
ATOM      5  C   UNL     1       5.921   5.459  19.116  0.00  0.00    +0.000 A 
ATOM      6  C   UNL     1       7.256   5.716  19.432  0.00  0.00    +0.000 A 
ATOM      7  C   UNL     1       7.984   6.624  18.672  0.00  0.00    +0.000 A 
ATOM      8  C   UNL     1       7.349   7.314  17.649  0.00  0.00    +0.000 A 
ATOM      9  F   UNL     1       8.049   8.179  16.905  0.00  0.00    +0.000 F 
ATOM     10  C   UNL     1       6.007   7.098  17.352  0.00  0.00    +0.000 A 
ENDBRANCH   3   4
BRANCH   1  11
ATOM     11  C   UNL     1       2.999   7.719  18.815  0.00  0.00    +0.000 C 
BRANCH  11  12
ATOM     12  C   UNL     1       2.161   7.697  20.088  0.00  0.00    +0.000 C 
BRANCH  12  14
ATOM     13  O   UNL     1       0.589   9.138  21.151  0.00  0.00    +0.000 OA
ATOM     14  C   UNL     1       1.247   8.903  20.143  0.00  0.00    +0.000 C 
ATOM     15  N   UNL     1       1.208   9.604  18.955  0.00  0.00    +0.000 N 
ATOM     16  H   UNL     1       1.604   9.138  18.140  0.00  0.00    +0.000 HD
BRANCH  15  17
ATOM     17  C   UNL     1       0.518  10.812  18.720  0.00  0.00    +0.000 A 
ATOM     18  C   UNL     1      -0.835  10.887  18.395  0.00  0.00    +0.000 A 
ATOM     19  C   UNL     1      -1.422  12.129  18.150  0.00  0.00    +0.000 A 
ATOM     20  C   UNL     1      -0.634  13.262  18.254  0.00  0.00    +0.000 A 
ATOM     21  N   UNL     1       0.668  13.238  18.604  0.00  0.00    +0.000 NA
ATOM     22  C   UNL     1       1.211  12.016  18.828  0.00  0.00    +0.000 A 
ENDBRANCH  15  17
ENDBRANCH  12  14
ENDBRANCH  11  12
ENDBRANCH   1  11
BRANCH   3  23
ATOM     23  C   UNL     1       3.776   4.372  17.010  0.00  0.00    +0.000 C 
BRANCH  23  24
ATOM     24  C   UNL     1       3.174   3.304  17.940  0.00  0.00    +0.000 A 
ATOM     25  C   UNL     1       2.006   2.585  17.655  0.00  0.00    +0.000 A 
ATOM     26  C   UNL     1       1.490   1.720  18.613  0.00  0.00    +0.000 A 
ATOM     27  N   UNL     1       2.062   1.494  19.812  0.00  0.00    +0.000 NA
ATOM     28  C   UNL     1       3.222   2.134  20.052  0.00  0.00    +0.000 A 
ATOM     29  C   UNL     1       3.815   3.010  19.156  0.00  0.00    +0.000 A 
ENDBRANCH  23  24
BRANCH  23  30
ATOM     30  C   UNL     1       5.017   3.847  16.182  0.00  0.00    +0.000 C 
ATOM     31  O   UNL     1       5.632   2.816  16.454  0.00  0.00    +0.000 OA
ATOM     32  N   UNL     1       5.278   4.523  15.002  0.00  0.00    +0.000 N 
ATOM     33  H   UNL     1       4.652   5.269  14.733  0.00  0.00    +0.000 HD
BRANCH  32  34
ATOM     34  C   UNL     1       6.271   4.059  14.048  0.00  0.00    +0.000 C 
ATOM     35  C   UNL     1       5.624   3.467  12.801  0.00  0.00    +0.000 C 
ATOM     36  C   UNL     1       6.724   3.481  11.750  0.00  0.00    +0.000 C 
ATOM     37  C   UNL     1       7.660   4.623  12.134  0.00  0.00    +0.000 C 
ATOM     38  C   UNL     1       7.154   5.167  13.469  0.00  0.00    +0.000 C 
ENDBRANCH  32  34
ENDBRANCH  23  30
ENDBRANCH   3  23
TORSDOF 9
ENDMDL
MODEL 8
REMARK VINA RESULT:      -7.6      0.748      1.179
REMARK  Name = 
REMARK  9 active torsions:
REMARK  status: ('A' for Active; 'I' for Inactive)
REMARK    1  A    between atoms: C_2  and  C_3
REMARK    2  A    between atoms: C_3  and  C_4
REMARK    3  A    between atoms: C_4  and  C_5
REMARK    4  A    between atoms: N_7  and  C_8
REMARK    5  A    between atoms: N_7  and  C_15
REMARK    6  A    between atoms: C_15  and  C_16
REMARK    7  A    between atoms: C_15  and  C_24
REMARK    8  A    between atoms: N_18  and  C_19
REMARK    9  A    between atoms: N_30  and  C_31
REMARK                            x       y       z     vdW  Elec       q    Type
REMARK                         _______ _______ _______ _____ _____    ______ ____
ROOT
ATOM      1  C   UNL     1       2.804   6.962  17.795  0.00  0.00    +0.000 C 
ATOM      2  O   UNL     1       1.644   6.724  17.445  0.00  0.00    +0.000 OA
ATOM      3  N   UNL     1       3.843   6.031  17.625  0.00  0.00    +0.000 N 
ENDROOT
BRANCH   3   4
ATOM      4  C   UNL     1       5.192   6.302  18.030  0.00  0.00    +0.000 A 
ATOM      5  C   UNL     1       5.752   5.614  19.120  0.00  0.00    +0.000 A 
ATOM      6  C   UNL     1       7.107   5.745  19.432  0.00  0.00    +0.000 A 
ATOM      7  C   UNL     1       7.919   6.562  18.656  0.00  0.00    +0.000 A 
ATOM      8  C   UNL     1       7.353   7.290  17.618  0.00  0.00    +0.000 A 
ATOM      9  F   UNL     1       8.135   8.068  16.859  0.00  0.00    +0.000 F 
ATOM     10  C   UNL     1       5.997   7.200  17.324  0.00  0.00    +0.000 A 
ENDBRANCH   3   4
BRANCH   1  11
ATOM     11  C   UNL     1       3.121   8.292  18.484  0.00  0.00    +0.000 C 
BRANCH  11  12
ATOM     12  C   UNL     1       2.366   9.478  17.896  0.00  0.00    +0.000 C 
BRANCH  12  14
ATOM     13  O   UNL     1       0.944   9.203  19.788  0.00  0.00    +0.000 OA
ATOM     14  C   UNL     1       1.205   9.864  18.787  0.00  0.00    +0.000 C 
ATOM     15  N   UNL     1       0.490  10.941  18.306  0.00  0.00    +0.000 N 
ATOM     16  H   UNL     1       0.672  11.213  17.341  0.00  0.00    +0.000 HD
BRANCH  15  17
ATOM     17  C   UNL     1      -0.589  11.583  18.950  0.00  0.00    +0.000 A 
ATOM     18  C   UNL     1      -0.446  12.461  20.022  0.00  0.00    +0.000 A 
ATOM     19  C   UNL     1      -1.578  13.023  20.614  0.00  0.00    +0.000 A 
ATOM     20  C   UNL     1      -2.822  12.698  20.100  0.00  0.00    +0.000 A 
ATOM     21  N   UNL     1      -3.002  11.884  19.039  0.00  0.00    +0.000 NA
ATOM     22  C   UNL     1      -1.884  11.348  18.492  0.00  0.00    +0.000 A 
ENDBRANCH  15  17
ENDBRANCH  12  14
ENDBRANCH  11  12
ENDBRANCH   1  11
BRANCH   3  23
ATOM     23  C   UNL     1       3.473   4.649  17.191  0.00  0.00    +0.000 C 
BRANCH  23  24
ATOM     24  C   UNL     1       2.830   3.768  18.276  0.00  0.00    +0.000 A 
ATOM     25  C   UNL     1       3.425   3.487  19.512  0.00  0.00    +0.000 A 
ATOM     26  C   UNL     1       2.807   2.591  20.376  0.00  0.00    +0.000 A 
ATOM     27  N   UNL     1       1.633   1.982  20.118  0.00  0.00    +0.000 NA
ATOM     28  C   UNL     1       1.031   2.311  18.960  0.00  0.00    +0.000 A 
ATOM     29  C   UNL     1       1.568   3.196  18.039  0.00  0.00    +0.000 A 
ENDBRANCH  23  24
BRANCH  23  30
ATOM     30  C   UNL     1       4.603   3.903  16.373  0.00  0.00    +0.000 C 
ATOM     31  O   UNL     1       4.919   2.729  16.561  0.00  0.00    +0.000 OA
ATOM     32  N   UNL     1       5.111   4.597  15.286  0.00  0.00    +0.000 N 
ATOM     33  H   UNL     1       4.712   5.500  15.069  0.00  0.00    +0.000 HD
BRANCH  32  34
ATOM     34  C   UNL     1       6.025   3.984  14.337  0.00  0.00    +0.000 C 
ATOM     35  C   UNL     1       5.308   3.539  13.068  0.00  0.00    +0.000 C 
ATOM     36  C   UNL     1       6.414   3.381  12.034  0.00  0.00    +0.000 C 
ATOM     37  C   UNL     1       7.528   4.334  12.459  0.00  0.00    +0.000 C 
ATOM     38  C   UNL     1       7.100   4.931  13.798  0.00  0.00    +0.000 C 
ENDBRANCH  32  34
ENDBRANCH  23  30
ENDBRANCH   3  23
TORSDOF 9
ENDMDL
MODEL 9
REMARK VINA RESULT:      -7.5      1.883      2.452
REMARK  Name = 
REMARK  9 active torsions:
REMARK  status: ('A' for Active; 'I' for Inactive)
REMARK    1  A    between atoms: C_2  and  C_3
REMARK    2  A    between atoms: C_3  and  C_4
REMARK    3  A    between atoms: C_4  and  C_5
REMARK    4  A    between atoms: N_7  and  C_8
REMARK    5  A    between atoms: N_7  and  C_15
REMARK    6  A    between atoms: C_15  and  C_16
REMARK    7  A    between atoms: C_15  and  C_24
REMARK    8  A    between atoms: N_18  and  C_19
REMARK    9  A    between atoms: N_30  and  C_31
REMARK                            x       y       z     vdW  Elec       q    Type
REMARK                         _______ _______ _______ _____ _____    ______ ____
ROOT
ATOM      1  C   UNL     1       2.950   6.794  17.752  0.00  0.00    +0.000 C 
ATOM      2  O   UNL     1       1.773   6.501  17.521  0.00  0.00    +0.000 OA
ATOM      3  N   UNL     1       4.011   5.925  17.445  0.00  0.00    +0.000 N 
ENDROOT
BRANCH   3   4
ATOM      4  C   UNL     1       5.380   6.260  17.711  0.00  0.00    +0.000 A 
ATOM      5  C   UNL     1       6.009   7.285  16.984  0.00  0.00    +0.000 A 
ATOM      6  C   UNL     1       7.285   7.733  17.333  0.00  0.00    +0.000 A 
ATOM      7  C   UNL     1       7.946   7.166  18.415  0.00  0.00    +0.000 A 
ATOM      8  C   UNL     1       7.350   6.111  19.094  0.00  0.00    +0.000 A 
ATOM      9  F   UNL     1       7.977   5.570  20.147  0.00  0.00    +0.000 F 
ATOM     10  C   UNL     1       6.098   5.628  18.730  0.00  0.00    +0.000 A 
ENDBRANCH   3   4
BRANCH   1  11
ATOM     11  C   UNL     1       3.270   8.123  18.442  0.00  0.00    +0.000 C 
BRANCH  11  12
ATOM     12  C   UNL     1       2.492   9.306  17.876  0.00  0.00    +0.000 C 
BRANCH  12  14
ATOM     13  O   UNL     1       0.160   9.619  18.251  0.00  0.00    +0.000 OA
ATOM     14  C   UNL     1       1.286   9.609  18.739  0.00  0.00    +0.000 C 
ATOM     15  N   UNL     1       1.619   9.924  20.040  0.00  0.00    +0.000 N 
ATOM     16  H   UNL     1       2.601  10.125  20.222  0.00  0.00    +0.000 HD
BRANCH  15  17
ATOM     17  C   UNL     1       0.717  10.172  21.097  0.00  0.00    +0.000 A 
ATOM     18  C   UNL     1       0.362   9.226  22.056  0.00  0.00    +0.000 A 
ATOM     19  C   UNL     1      -0.564   9.557  23.047  0.00  0.00    +0.000 A 
ATOM     20  C   UNL     1      -1.095  10.835  23.053  0.00  0.00    +0.000 A 
ATOM     21  N   UNL     1      -0.748  11.792  22.167  0.00  0.00    +0.000 NA
ATOM     22  C   UNL     1       0.146  11.438  21.213  0.00  0.00    +0.000 A 
ENDBRANCH  15  17
ENDBRANCH  12  14
ENDBRANCH  11  12
ENDBRANCH   1  11
BRANCH   3  23
ATOM     23  C   UNL     1       3.668   4.536  17.013  0.00  0.00    +0.000 C 
BRANCH  23  24
ATOM     24  C   UNL     1       3.064   3.636  18.105  0.00  0.00    +0.000 A 
ATOM     25  C   UNL     1       3.724   3.294  19.292  0.00  0.00    +0.000 A 
ATOM     26  C   UNL     1       3.131   2.387  20.162  0.00  0.00    +0.000 A 
ATOM     27  N   UNL     1       1.924   1.824  19.957  0.00  0.00    +0.000 NA
ATOM     28  C   UNL     1       1.263   2.211  18.850  0.00  0.00    +0.000 A 
ATOM     29  C   UNL     1       1.772   3.112  17.928  0.00  0.00    +0.000 A 
ENDBRANCH  23  24
BRANCH  23  30
ATOM     30  C   UNL     1       4.803   3.820  16.175  0.00  0.00    +0.000 C 
ATOM     31  O   UNL     1       5.211   2.683  16.411  0.00  0.00    +0.000 OA
ATOM     32  N   UNL     1       5.201   4.478  15.023  0.00  0.00    +0.000 N 
ATOM     33  H   UNL     1       4.729   5.337  14.779  0.00  0.00    +0.000 HD
BRANCH  32  34
ATOM     34  C   UNL     1       6.105   3.873  14.060  0.00  0.00    +0.000 C 
ATOM     35  C   UNL     1       5.357   3.325  12.850  0.00  0.00    +0.000 C 
ATOM     36  C   UNL     1       6.421   3.180  11.771  0.00  0.00    +0.000 C 
ATOM     37  C   UNL     1       7.495   4.214  12.095  0.00  0.00    +0.000 C 
ATOM     38  C   UNL     1       7.096   4.851  13.424  0.00  0.00    +0.000 C 
ENDBRANCH  32  34
ENDBRANCH  23  30
ENDBRANCH   3  23
TORSDOF 9
ENDMDL
