MODEL 1
REMARK VINA RESULT:      -6.7      0.000      0.000
REMARK  Name = 
REMARK  2 active torsions:
REMARK  status: ('A' for Active; 'I' for Inactive)
REMARK    1  A    between atoms: N_9  and  C_10
REMARK    2  A    between atoms: C_10  and  C_11
REMARK                            x       y       z     vdW  Elec       q    Type
REMARK                         _______ _______ _______ _____ _____    ______ ____
ROOT
ATOM      1 CL   UNL     1       2.403   6.434  19.265  0.00  0.00    +0.000 Cl
ATOM      2  C   UNL     1       2.513   4.865  19.913  0.00  0.00    +0.000 A 
ATOM      3  N   UNL     1       2.191   4.776  21.215  0.00  0.00    +0.000 NA
ATOM      4  C   UNL     1       2.245   3.565  21.792  0.00  0.00    +0.000 A 
ATOM      5  N   UNL     1       2.582   2.406  21.222  0.00  0.00    +0.000 NA
ATOM      6  C   UNL     1       2.897   2.526  19.921  0.00  0.00    +0.000 A 
ATOM      7  N   UNL     1       3.264   1.488  19.113  0.00  0.00    +0.000 NA
ATOM      8  C   UNL     1       3.465   2.032  17.935  0.00  0.00    +0.000 A 
ATOM      9  N   UNL     1       3.243   3.386  17.950  0.00  0.00    +0.000 N 
ATOM     10  C   UNL     1       2.873   3.727  19.228  0.00  0.00    +0.000 A 
ENDROOT
BRANCH   9  11
ATOM     11  C   UNL     1       3.328   4.238  16.772  0.00  0.00    +0.000 C 
BRANCH  11  12
ATOM     12  C   UNL     1       4.752   4.613  16.438  0.00  0.00    +0.000 A 
ATOM     13  C   UNL     1       5.455   3.918  15.442  0.00  0.00    +0.000 A 
ATOM     14  C   UNL     1       6.766   4.273  15.112  0.00  0.00    +0.000 A 
ATOM     15  C   UNL     1       7.397   5.319  15.781  0.00  0.00    +0.000 A 
ATOM     16  C   UNL     1       6.718   5.997  16.790  0.00  0.00    +0.000 A 
ATOM     17 BR   UNL     1       7.571   7.411  17.709  0.00  0.00    +0.000 Br
ATOM     18  C   UNL     1       5.410   5.644  17.127  0.00  0.00    +0.000 A 
ENDBRANCH  11  12
ENDBRANCH   9  11
TORSDOF 2
ENDMDL
MODEL 2
REMARK VINA RESULT:      -6.6      2.061      3.044
REMARK  Name = 
REMARK  2 active torsions:
REMARK  status: ('A' for Active; 'I' for Inactive)
REMARK    1  A    between atoms: N_9  and  C_10
REMARK    2  A    between atoms: C_10  and  C_11
REMARK                            x       y       z     vdW  Elec       q    Type
REMARK                         _______ _______ _______ _____ _____    ______ ____
ROOT
ATOM      1 CL   UNL     1       2.793   3.260  16.835  0.00  0.00    +0.000 Cl
ATOM      2  C   UNL     1       2.191   3.559  18.398  0.00  0.00    +0.000 A 
ATOM      3  N   UNL     1       1.687   2.478  19.018  0.00  0.00    +0.000 NA
ATOM      4  C   UNL     1       1.204   2.638  20.260  0.00  0.00    +0.000 A 
ATOM      5  N   UNL     1       1.162   3.761  20.980  0.00  0.00    +0.000 NA
ATOM      6  C   UNL     1       1.675   4.823  20.336  0.00  0.00    +0.000 A 
ATOM      7  N   UNL     1       1.758   6.082  20.860  0.00  0.00    +0.000 NA
ATOM      8  C   UNL     1       2.327   6.801  19.921  0.00  0.00    +0.000 A 
ATOM      9  N   UNL     1       2.615   6.055  18.806  0.00  0.00    +0.000 N 
ATOM     10  C   UNL     1       2.201   4.770  19.054  0.00  0.00    +0.000 A 
ENDROOT
BRANCH   9  11
ATOM     11  C   UNL     1       3.304   6.576  17.634  0.00  0.00    +0.000 C 
BRANCH  11  12
ATOM     12  C   UNL     1       4.659   5.940  17.436  0.00  0.00    +0.000 A 
ATOM     13  C   UNL     1       5.455   5.604  18.543  0.00  0.00    +0.000 A 
ATOM     14  C   UNL     1       6.700   4.994  18.370  0.00  0.00    +0.000 A 
ATOM     15  C   UNL     1       7.174   4.723  17.088  0.00  0.00    +0.000 A 
ATOM     16  C   UNL     1       6.405   5.077  15.983  0.00  0.00    +0.000 A 
ATOM     17 BR   UNL     1       7.046   4.722  14.240  0.00  0.00    +0.000 Br
ATOM     18  C   UNL     1       5.161   5.690  16.149  0.00  0.00    +0.000 A 
ENDBRANCH  11  12
ENDBRANCH   9  11
TORSDOF 2
ENDMDL
MODEL 3
REMARK VINA RESULT:      -6.6      3.304      4.973
REMARK  Name = 
REMARK  2 active torsions:
REMARK  status: ('A' for Active; 'I' for Inactive)
REMARK    1  A    between atoms: N_9  and  C_10
REMARK    2  A    between atoms: C_10  and  C_11
REMARK                            x       y       z     vdW  Elec       q    Type
REMARK                         _______ _______ _______ _____ _____    ______ ____
ROOT
ATOM      1 CL   UNL     1       1.230   4.329  17.497  0.00  0.00    +0.000 Cl
ATOM      2  C   UNL     1       2.635   3.720  18.239  0.00  0.00    +0.000 A 
ATOM      3  N   UNL     1       2.579   2.413  18.551  0.00  0.00    +0.000 NA
ATOM      4  C   UNL     1       3.657   1.862  19.131  0.00  0.00    +0.000 A 
ATOM      5  N   UNL     1       4.810   2.459  19.442  0.00  0.00    +0.000 NA
ATOM      6  C   UNL     1       4.837   3.762  19.117  0.00  0.00    +0.000 A 
ATOM      7  N   UNL     1       5.903   4.591  19.321  0.00  0.00    +0.000 NA
ATOM      8  C   UNL     1       5.520   5.756  18.853  0.00  0.00    +0.000 A 
ATOM      9  N   UNL     1       4.242   5.714  18.355  0.00  0.00    +0.000 N 
ATOM     10  C   UNL     1       3.781   4.431  18.514  0.00  0.00    +0.000 A 
ENDROOT
BRANCH   9  11
ATOM     11  C   UNL     1       3.581   6.843  17.715  0.00  0.00    +0.000 C 
BRANCH  11  12
ATOM     12  C   UNL     1       2.638   7.560  18.651  0.00  0.00    +0.000 A 
ATOM     13  C   UNL     1       2.315   7.003  19.899  0.00  0.00    +0.000 A 
ATOM     14  C   UNL     1       1.460   7.671  20.780  0.00  0.00    +0.000 A 
ATOM     15  C   UNL     1       0.906   8.898  20.422  0.00  0.00    +0.000 A 
ATOM     16  C   UNL     1       1.199   9.445  19.176  0.00  0.00    +0.000 A 
ATOM     17 BR   UNL     1       0.443  11.106  18.680  0.00  0.00    +0.000 Br
ATOM     18  C   UNL     1       2.048   8.782  18.290  0.00  0.00    +0.000 A 
ENDBRANCH  11  12
ENDBRANCH   9  11
TORSDOF 2
ENDMDL
MODEL 4
REMARK VINA RESULT:      -6.6      1.780      2.174
REMARK  Name = 
REMARK  2 active torsions:
REMARK  status: ('A' for Active; 'I' for Inactive)
REMARK    1  A    between atoms: N_9  and  C_10
REMARK    2  A    between atoms: C_10  and  C_11
REMARK                            x       y       z     vdW  Elec       q    Type
REMARK                         _______ _______ _______ _____ _____    ______ ____
ROOT
ATOM      1 CL   UNL     1       4.926   1.591  20.430  0.00  0.00    +0.000 Cl
ATOM      2  C   UNL     1       3.455   2.444  20.478  0.00  0.00    +0.000 A 
ATOM      3  N   UNL     1       2.915   2.556  21.704  0.00  0.00    +0.000 NA
ATOM      4  C   UNL     1       1.758   3.227  21.819  0.00  0.00    +0.000 A 
ATOM      5  N   UNL     1       1.058   3.817  20.848  0.00  0.00    +0.000 NA
ATOM      6  C   UNL     1       1.623   3.690  19.635  0.00  0.00    +0.000 A 
ATOM      7  N   UNL     1       1.110   4.213  18.482  0.00  0.00    +0.000 NA
ATOM      8  C   UNL     1       1.968   3.876  17.547  0.00  0.00    +0.000 A 
ATOM      9  N   UNL     1       3.018   3.151  18.052  0.00  0.00    +0.000 N 
ATOM     10  C   UNL     1       2.815   3.020  19.403  0.00  0.00    +0.000 A 
ENDROOT
BRANCH   9  11
ATOM     11  C   UNL     1       4.151   2.698  17.257  0.00  0.00    +0.000 C 
BRANCH  11  12
ATOM     12  C   UNL     1       5.116   3.816  16.946  0.00  0.00    +0.000 A 
ATOM     13  C   UNL     1       5.220   4.324  15.641  0.00  0.00    +0.000 A 
ATOM     14  C   UNL     1       6.095   5.374  15.350  0.00  0.00    +0.000 A 
ATOM     15  C   UNL     1       6.889   5.922  16.355  0.00  0.00    +0.000 A 
ATOM     16  C   UNL     1       6.813   5.407  17.646  0.00  0.00    +0.000 A 
ATOM     17 BR   UNL     1       7.895   6.140  19.013  0.00  0.00    +0.000 Br
ATOM     18  C   UNL     1       5.944   4.356  17.943  0.00  0.00    +0.000 A 
ENDBRANCH  11  12
ENDBRANCH   9  11
TORSDOF 2
ENDMDL
MODEL 5
REMARK VINA RESULT:      -6.5      1.672      2.467
REMARK  Name = 
REMARK  2 active torsions:
REMARK  status: ('A' for Active; 'I' for Inactive)
REMARK    1  A    between atoms: N_9  and  C_10
REMARK    2  A    between atoms: C_10  and  C_11
REMARK                            x       y       z     vdW  Elec       q    Type
REMARK                         _______ _______ _______ _____ _____    ______ ____
ROOT
ATOM      1 CL   UNL     1       2.444   2.273  17.483  0.00  0.00    +0.000 Cl
ATOM      2  C   UNL     1       2.192   2.922  19.035  0.00  0.00    +0.000 A 
ATOM      3  N   UNL     1       1.904   2.011  19.981  0.00  0.00    +0.000 NA
ATOM      4  C   UNL     1       1.704   2.451  21.234  0.00  0.00    +0.000 A 
ATOM      5  N   UNL     1       1.758   3.710  21.673  0.00  0.00    +0.000 NA
ATOM      6  C   UNL     1       2.049   4.597  20.707  0.00  0.00    +0.000 A 
ATOM      7  N   UNL     1       2.173   5.943  20.901  0.00  0.00    +0.000 NA
ATOM      8  C   UNL     1       2.473   6.429  19.719  0.00  0.00    +0.000 A 
ATOM      9  N   UNL     1       2.546   5.447  18.764  0.00  0.00    +0.000 N 
ATOM     10  C   UNL     1       2.276   4.251  19.382  0.00  0.00    +0.000 A 
ENDROOT
BRANCH   9  11
ATOM     11  C   UNL     1       2.923   5.686  17.377  0.00  0.00    +0.000 C 
BRANCH  11  12
ATOM     12  C   UNL     1       4.414   5.593  17.165  0.00  0.00    +0.000 A 
ATOM     13  C   UNL     1       4.989   4.413  16.666  0.00  0.00    +0.000 A 
ATOM     14  C   UNL     1       6.367   4.327  16.446  0.00  0.00    +0.000 A 
ATOM     15  C   UNL     1       7.191   5.413  16.734  0.00  0.00    +0.000 A 
ATOM     16  C   UNL     1       6.634   6.577  17.255  0.00  0.00    +0.000 A 
ATOM     17 BR   UNL     1       7.747   8.052  17.656  0.00  0.00    +0.000 Br
ATOM     18  C   UNL     1       5.260   6.669  17.480  0.00  0.00    +0.000 A 
ENDBRANCH  11  12
ENDBRANCH   9  11
TORSDOF 2
ENDMDL
MODEL 6
REMARK VINA RESULT:      -6.5      1.463      1.885
REMARK  Name = 
REMARK  2 active torsions:
REMARK  status: ('A' for Active; 'I' for Inactive)
REMARK    1  A    between atoms: N_9  and  C_10
REMARK    2  A    between atoms: C_10  and  C_11
REMARK                            x       y       z     vdW  Elec       q    Type
REMARK                         _______ _______ _______ _____ _____    ______ ____
ROOT
ATOM      1 CL   UNL     1       2.691   6.969  19.155  0.00  0.00    +0.000 Cl
ATOM      2  C   UNL     1       2.367   5.315  19.391  0.00  0.00    +0.000 A 
ATOM      3  N   UNL     1       1.481   5.054  20.368  0.00  0.00    +0.000 NA
ATOM      4  C   UNL     1       1.169   3.770  20.603  0.00  0.00    +0.000 A 
ATOM      5  N   UNL     1       1.635   2.690  19.972  0.00  0.00    +0.000 NA
ATOM      6  C   UNL     1       2.516   2.981  19.001  0.00  0.00    +0.000 A 
ATOM      7  N   UNL     1       3.127   2.055  18.204  0.00  0.00    +0.000 NA
ATOM      8  C   UNL     1       3.885   2.756  17.393  0.00  0.00    +0.000 A 
ATOM      9  N   UNL     1       3.791   4.103  17.637  0.00  0.00    +0.000 N 
ATOM     10  C   UNL     1       2.908   4.272  18.674  0.00  0.00    +0.000 A 
ENDROOT
BRANCH   9  11
ATOM     11  C   UNL     1       4.472   5.122  16.850  0.00  0.00    +0.000 C 
BRANCH  11  12
ATOM     12  C   UNL     1       5.733   5.614  17.518  0.00  0.00    +0.000 A 
ATOM     13  C   UNL     1       6.464   4.768  18.367  0.00  0.00    +0.000 A 
ATOM     14  C   UNL     1       7.645   5.208  18.972  0.00  0.00    +0.000 A 
ATOM     15  C   UNL     1       8.104   6.505  18.748  0.00  0.00    +0.000 A 
ATOM     16  C   UNL     1       7.371   7.360  17.931  0.00  0.00    +0.000 A 
ATOM     17 BR   UNL     1       7.983   9.124  17.631  0.00  0.00    +0.000 Br
ATOM     18  C   UNL     1       6.189   6.928  17.326  0.00  0.00    +0.000 A 
ENDBRANCH  11  12
ENDBRANCH   9  11
TORSDOF 2
ENDMDL
MODEL 7
REMARK VINA RESULT:      -6.4      3.602      6.043
REMARK  Name = 
REMARK  2 active torsions:
REMARK  status: ('A' for Active; 'I' for Inactive)
REMARK    1  A    between atoms: N_9  and  C_10
REMARK    2  A    between atoms: C_10  and  C_11
REMARK                            x       y       z     vdW  Elec       q    Type
REMARK                         _______ _______ _______ _____ _____    ______ ____
ROOT
ATOM      1 CL   UNL     1       4.747   2.787  17.061  0.00  0.00    +0.000 Cl
ATOM      2  C   UNL     1       5.751   3.878  16.226  0.00  0.00    +0.000 A 
ATOM      3  N   UNL     1       5.868   3.632  14.910  0.00  0.00    +0.000 NA
ATOM      4  C   UNL     1       6.637   4.460  14.184  0.00  0.00    +0.000 A 
ATOM      5  N   UNL     1       7.314   5.527  14.613  0.00  0.00    +0.000 NA
ATOM      6  C   UNL     1       7.176   5.749  15.931  0.00  0.00    +0.000 A 
ATOM      7  N   UNL     1       7.759   6.782  16.609  0.00  0.00    +0.000 NA
ATOM      8  C   UNL     1       7.358   6.639  17.851  0.00  0.00    +0.000 A 
ATOM      9  N   UNL     1       6.539   5.549  18.004  0.00  0.00    +0.000 N 
ATOM     10  C   UNL     1       6.406   4.958  16.772  0.00  0.00    +0.000 A 
ENDROOT
BRANCH   9  11
ATOM     11  C   UNL     1       5.896   5.184  19.259  0.00  0.00    +0.000 C 
BRANCH  11  12
ATOM     12  C   UNL     1       4.391   5.244  19.170  0.00  0.00    +0.000 A 
ATOM     13  C   UNL     1       3.763   6.229  18.390  0.00  0.00    +0.000 A 
ATOM     14  C   UNL     1       2.370   6.278  18.285  0.00  0.00    +0.000 A 
ATOM     15  C   UNL     1       1.584   5.353  18.968  0.00  0.00    +0.000 A 
ATOM     16  C   UNL     1       2.196   4.390  19.766  0.00  0.00    +0.000 A 
ATOM     17 BR   UNL     1       1.135   3.138  20.705  0.00  0.00    +0.000 Br
ATOM     18  C   UNL     1       3.586   4.338  19.879  0.00  0.00    +0.000 A 
ENDBRANCH  11  12
ENDBRANCH   9  11
TORSDOF 2
ENDMDL
MODEL 8
REMARK VINA RESULT:      -6.4      3.497      5.623
REMARK  Name = 
REMARK  2 active torsions:
REMARK  status: ('A' for Active; 'I' for Inactive)
REMARK    1  A    between atoms: N_9  and  C_10
REMARK    2  A    between atoms: C_10  and  C_11
REMARK                            x       y       z     vdW  Elec       q    Type
REMARK                         _______ _______ _______ _____ _____    ______ ____
ROOT
ATOM      1 CL   UNL     1       7.080   7.105  17.883  0.00  0.00    +0.000 Cl
ATOM      2  C   UNL     1       6.529   5.875  16.845  0.00  0.00    +0.000 A 
ATOM      3  N   UNL     1       7.317   5.648  15.780  0.00  0.00    +0.000 NA
ATOM      4  C   UNL     1       6.949   4.682  14.923  0.00  0.00    +0.000 A 
ATOM      5  N   UNL     1       5.874   3.894  14.997  0.00  0.00    +0.000 NA
ATOM      6  C   UNL     1       5.107   4.142  16.072  0.00  0.00    +0.000 A 
ATOM      7  N   UNL     1       3.960   3.466  16.380  0.00  0.00    +0.000 NA
ATOM      8  C   UNL     1       3.541   4.006  17.501  0.00  0.00    +0.000 A 
ATOM      9  N   UNL     1       4.372   5.010  17.930  0.00  0.00    +0.000 N 
ATOM     10  C   UNL     1       5.395   5.114  17.020  0.00  0.00    +0.000 A 
ENDROOT
BRANCH   9  11
ATOM     11  C   UNL     1       4.189   5.742  19.176  0.00  0.00    +0.000 C 
BRANCH  11  12
ATOM     12  C   UNL     1       3.218   6.888  19.029  0.00  0.00    +0.000 A 
ATOM     13  C   UNL     1       3.176   7.636  17.841  0.00  0.00    +0.000 A 
ATOM     14  C   UNL     1       2.265   8.685  17.689  0.00  0.00    +0.000 A 
ATOM     15  C   UNL     1       1.393   9.011  18.726  0.00  0.00    +0.000 A 
ATOM     16  C   UNL     1       1.446   8.293  19.917  0.00  0.00    +0.000 A 
ATOM     17 BR   UNL     1       0.271   8.735  21.331  0.00  0.00    +0.000 Br
ATOM     18  C   UNL     1       2.355   7.246  20.077  0.00  0.00    +0.000 A 
ENDBRANCH  11  12
ENDBRANCH   9  11
TORSDOF 2
ENDMDL
MODEL 9
REMARK VINA RESULT:      -6.4      3.600      5.064
REMARK  Name = 
REMARK  2 active torsions:
REMARK  status: ('A' for Active; 'I' for Inactive)
REMARK    1  A    between atoms: N_9  and  C_10
REMARK    2  A    between atoms: C_10  and  C_11
REMARK                            x       y       z     vdW  Elec       q    Type
REMARK                         _______ _______ _______ _____ _____    ______ ____
ROOT
ATOM      1 CL   UNL     1       5.900   4.803  19.308  0.00  0.00    +0.000 Cl
ATOM      2  C   UNL     1       4.539   3.825  19.017  0.00  0.00    +0.000 A 
ATOM      3  N   UNL     1       4.704   2.529  19.334  0.00  0.00    +0.000 NA
ATOM      4  C   UNL     1       3.666   1.700  19.141  0.00  0.00    +0.000 A 
ATOM      5  N   UNL     1       2.457   2.006  18.665  0.00  0.00    +0.000 NA
ATOM      6  C   UNL     1       2.320   3.307  18.360  0.00  0.00    +0.000 A 
ATOM      7  N   UNL     1       1.179   3.873  17.867  0.00  0.00    +0.000 NA
ATOM      8  C   UNL     1       1.467   5.145  17.726  0.00  0.00    +0.000 A 
ATOM      9  N   UNL     1       2.755   5.426  18.105  0.00  0.00    +0.000 N 
ATOM     10  C   UNL     1       3.326   4.249  18.521  0.00  0.00    +0.000 A 
ENDROOT
BRANCH   9  11
ATOM     11  C   UNL     1       3.327   6.765  18.115  0.00  0.00    +0.000 C 
BRANCH  11  12
ATOM     12  C   UNL     1       2.340   7.807  18.582  0.00  0.00    +0.000 A 
ATOM     13  C   UNL     1       1.743   8.683  17.662  0.00  0.00    +0.000 A 
ATOM     14  C   UNL     1       0.811   9.636  18.083  0.00  0.00    +0.000 A 
ATOM     15  C   UNL     1       0.472   9.735  19.431  0.00  0.00    +0.000 A 
ATOM     16  C   UNL     1       1.080   8.889  20.355  0.00  0.00    +0.000 A 
ATOM     17 BR   UNL     1       0.633   9.025  22.187  0.00  0.00    +0.000 Br
ATOM     18  C   UNL     1       2.014   7.938  19.941  0.00  0.00    +0.000 A 
ENDBRANCH  11  12
ENDBRANCH   9  11
TORSDOF 2
ENDMDL
