MODEL 1
REMARK VINA RESULT:      -7.8      0.000      0.000
REMARK  Name = 
REMARK  5 active torsions:
REMARK  status: ('A' for Active; 'I' for Inactive)
REMARK    1  A    between atoms: C_2  and  C_3
REMARK    2  A    between atoms: C_4  and  C_5
REMARK    3  A    between atoms: C_10  and  O_11
REMARK    4  A    between atoms: O_11  and  C_12
REMARK    5  A    between atoms: C_12  and  C_13
REMARK                            x       y       z     vdW  Elec       q    Type
REMARK                         _______ _______ _______ _____ _____    ______ ____
ROOT
ATOM      1  C   UNL     1       6.159   5.318  16.582  0.00  0.00    +0.000 A 
ATOM      2  C   UNL     1       7.304   6.057  16.939  0.00  0.00    +0.000 A 
ATOM      3  C   UNL     1       7.648   6.256  18.273  0.00  0.00    +0.000 A 
ATOM      4  C   UNL     1       6.874   5.684  19.269  0.00  0.00    +0.000 A 
ATOM      5  C   UNL     1       5.737   4.945  18.931  0.00  0.00    +0.000 A 
ATOM      6  C   UNL     1       5.331   4.793  17.592  0.00  0.00    +0.000 A 
ENDROOT
BRANCH   1   8
ATOM      7  C   UNL     1       6.275   4.014  14.529  0.00  0.00    +0.000 C 
ATOM      8  C   UNL     1       5.948   5.164  15.135  0.00  0.00    +0.000 C 
BRANCH   7  10
ATOM      9  O   UNL     1       5.825   3.108  12.396  0.00  0.00    +0.000 OA
ATOM     10  C   UNL     1       6.407   3.956  13.062  0.00  0.00    +0.000 C 
ENDBRANCH   7  10
ENDBRANCH   1   8
BRANCH   6  11
ATOM     11  O   UNL     1       4.147   4.176  17.231  0.00  0.00    +0.000 OA
BRANCH  11  12
ATOM     12  C   UNL     1       3.920   2.910  17.876  0.00  0.00    +0.000 C 
BRANCH  12  13
ATOM     13  C   UNL     1       2.979   2.981  19.059  0.00  0.00    +0.000 A 
ATOM     14  C   UNL     1       3.366   2.495  20.322  0.00  0.00    +0.000 A 
ATOM     15 CL   UNL     1       4.908   1.753  20.582  0.00  0.00    +0.000 Cl
ATOM     16  C   UNL     1       2.535   2.640  21.440  0.00  0.00    +0.000 A 
ATOM     17  C   UNL     1       1.305   3.280  21.328  0.00  0.00    +0.000 A 
ATOM     18  C   UNL     1       0.906   3.778  20.093  0.00  0.00    +0.000 A 
ATOM     19  C   UNL     1       1.730   3.630  18.971  0.00  0.00    +0.000 A 
ATOM     20 CL   UNL     1       1.139   4.335  17.502  0.00  0.00    +0.000 Cl
ENDBRANCH  12  13
ENDBRANCH  11  12
ENDBRANCH   6  11
TORSDOF 5
ENDMDL
MODEL 2
REMARK VINA RESULT:      -7.8      1.537      1.786
REMARK  Name = 
REMARK  5 active torsions:
REMARK  status: ('A' for Active; 'I' for Inactive)
REMARK    1  A    between atoms: C_2  and  C_3
REMARK    2  A    between atoms: C_4  and  C_5
REMARK    3  A    between atoms: C_10  and  O_11
REMARK    4  A    between atoms: O_11  and  C_12
REMARK    5  A    between atoms: C_12  and  C_13
REMARK                            x       y       z     vdW  Elec       q    Type
REMARK                         _______ _______ _______ _____ _____    ______ ____
ROOT
ATOM      1  C   UNL     1       6.014   5.043  16.435  0.00  0.00    +0.000 A 
ATOM      2  C   UNL     1       6.993   6.026  16.680  0.00  0.00    +0.000 A 
ATOM      3  C   UNL     1       7.433   6.300  17.972  0.00  0.00    +0.000 A 
ATOM      4  C   UNL     1       6.931   5.566  19.034  0.00  0.00    +0.000 A 
ATOM      5  C   UNL     1       5.963   4.584  18.806  0.00  0.00    +0.000 A 
ATOM      6  C   UNL     1       5.451   4.342  17.517  0.00  0.00    +0.000 A 
ENDROOT
BRANCH   1   8
ATOM      7  C   UNL     1       6.244   3.840  14.330  0.00  0.00    +0.000 C 
ATOM      8  C   UNL     1       5.679   4.843  15.017  0.00  0.00    +0.000 C 
BRANCH   7  10
ATOM      9  O   UNL     1       5.792   2.864  12.229  0.00  0.00    +0.000 OA
ATOM     10  C   UNL     1       6.204   3.832  12.856  0.00  0.00    +0.000 C 
ENDBRANCH   7  10
ENDBRANCH   1   8
BRANCH   6  11
ATOM     11  O   UNL     1       4.406   3.468  17.276  0.00  0.00    +0.000 OA
BRANCH  11  12
ATOM     12  C   UNL     1       3.131   4.109  17.091  0.00  0.00    +0.000 C 
BRANCH  12  13
ATOM     13  C   UNL     1       2.509   4.625  18.369  0.00  0.00    +0.000 A 
ATOM     14  C   UNL     1       1.884   3.748  19.276  0.00  0.00    +0.000 A 
ATOM     15 CL   UNL     1       1.753   2.051  18.963  0.00  0.00    +0.000 Cl
ATOM     16  C   UNL     1       1.387   4.207  20.502  0.00  0.00    +0.000 A 
ATOM     17  C   UNL     1       1.509   5.548  20.857  0.00  0.00    +0.000 A 
ATOM     18  C   UNL     1       2.132   6.431  19.982  0.00  0.00    +0.000 A 
ATOM     19  C   UNL     1       2.625   5.977  18.752  0.00  0.00    +0.000 A 
ATOM     20 CL   UNL     1       3.419   7.166  17.773  0.00  0.00    +0.000 Cl
ENDBRANCH  12  13
ENDBRANCH  11  12
ENDBRANCH   6  11
TORSDOF 5
ENDMDL
MODEL 3
REMARK VINA RESULT:      -7.7      1.606      2.203
REMARK  Name = 
REMARK  5 active torsions:
REMARK  status: ('A' for Active; 'I' for Inactive)
REMARK    1  A    between atoms: C_2  and  C_3
REMARK    2  A    between atoms: C_4  and  C_5
REMARK    3  A    between atoms: C_10  and  O_11
REMARK    4  A    between atoms: O_11  and  C_12
REMARK    5  A    between atoms: C_12  and  C_13
REMARK                            x       y       z     vdW  Elec       q    Type
REMARK                         _______ _______ _______ _____ _____    ______ ____
ROOT
ATOM      1  C   UNL     1       6.156   5.142  16.445  0.00  0.00    +0.000 A 
ATOM      2  C   UNL     1       7.119   6.138  16.699  0.00  0.00    +0.000 A 
ATOM      3  C   UNL     1       7.544   6.420  17.994  0.00  0.00    +0.000 A 
ATOM      4  C   UNL     1       7.041   5.680  19.052  0.00  0.00    +0.000 A 
ATOM      5  C   UNL     1       6.088   4.686  18.817  0.00  0.00    +0.000 A 
ATOM      6  C   UNL     1       5.591   4.435  17.523  0.00  0.00    +0.000 A 
ENDROOT
BRANCH   1   8
ATOM      7  C   UNL     1       6.205   3.802  14.412  0.00  0.00    +0.000 C 
ATOM      8  C   UNL     1       5.837   4.937  15.025  0.00  0.00    +0.000 C 
BRANCH   7  10
ATOM      9  O   UNL     1       7.081   4.274  12.272  0.00  0.00    +0.000 OA
ATOM     10  C   UNL     1       6.217   3.720  12.940  0.00  0.00    +0.000 C 
ENDBRANCH   7  10
ENDBRANCH   1   8
BRANCH   6  11
ATOM     11  O   UNL     1       4.560   3.548  17.273  0.00  0.00    +0.000 OA
BRANCH  11  12
ATOM     12  C   UNL     1       3.265   4.164  17.157  0.00  0.00    +0.000 C 
BRANCH  12  13
ATOM     13  C   UNL     1       2.696   4.656  18.470  0.00  0.00    +0.000 A 
ATOM     14  C   UNL     1       2.721   6.023  18.803  0.00  0.00    +0.000 A 
ATOM     15 CL   UNL     1       3.438   7.204  17.762  0.00  0.00    +0.000 Cl
ATOM     16  C   UNL     1       2.116   6.494  19.975  0.00  0.00    +0.000 A 
ATOM     17  C   UNL     1       1.464   5.616  20.836  0.00  0.00    +0.000 A 
ATOM     18  C   UNL     1       1.417   4.263  20.523  0.00  0.00    +0.000 A 
ATOM     19  C   UNL     1       2.026   3.786  19.355  0.00  0.00    +0.000 A 
ATOM     20 CL   UNL     1       1.857   2.088  19.056  0.00  0.00    +0.000 Cl
ENDBRANCH  12  13
ENDBRANCH  11  12
ENDBRANCH   6  11
TORSDOF 5
ENDMDL
MODEL 4
REMARK VINA RESULT:      -7.6      0.421      2.090
REMARK  Name = 
REMARK  5 active torsions:
REMARK  status: ('A' for Active; 'I' for Inactive)
REMARK    1  A    between atoms: C_2  and  C_3
REMARK    2  A    between atoms: C_4  and  C_5
REMARK    3  A    between atoms: C_10  and  O_11
REMARK    4  A    between atoms: O_11  and  C_12
REMARK    5  A    between atoms: C_12  and  C_13
REMARK                            x       y       z     vdW  Elec       q    Type
REMARK                         _______ _______ _______ _____ _____    ______ ____
ROOT
ATOM      1  C   UNL     1       6.224   5.269  16.579  0.00  0.00    +0.000 A 
ATOM      2  C   UNL     1       7.357   6.017  16.953  0.00  0.00    +0.000 A 
ATOM      3  C   UNL     1       7.678   6.222  18.292  0.00  0.00    +0.000 A 
ATOM      4  C   UNL     1       6.892   5.647  19.277  0.00  0.00    +0.000 A 
ATOM      5  C   UNL     1       5.766   4.899  18.923  0.00  0.00    +0.000 A 
ATOM      6  C   UNL     1       5.383   4.740  17.577  0.00  0.00    +0.000 A 
ENDROOT
BRANCH   1   8
ATOM      7  C   UNL     1       6.111   3.892  14.574  0.00  0.00    +0.000 C 
ATOM      8  C   UNL     1       6.038   5.110  15.130  0.00  0.00    +0.000 C 
BRANCH   7  10
ATOM      9  O   UNL     1       7.103   4.410  12.496  0.00  0.00    +0.000 OA
ATOM     10  C   UNL     1       6.282   3.746  13.117  0.00  0.00    +0.000 C 
ENDBRANCH   7  10
ENDBRANCH   1   8
BRANCH   6  11
ATOM     11  O   UNL     1       4.210   4.114  17.199  0.00  0.00    +0.000 OA
BRANCH  11  12
ATOM     12  C   UNL     1       3.937   2.892  17.908  0.00  0.00    +0.000 C 
BRANCH  12  13
ATOM     13  C   UNL     1       3.049   3.069  19.120  0.00  0.00    +0.000 A 
ATOM     14  C   UNL     1       1.790   3.689  19.012  0.00  0.00    +0.000 A 
ATOM     15 CL   UNL     1       1.209   4.321  17.509  0.00  0.00    +0.000 Cl
ATOM     16  C   UNL     1       0.927   3.773  20.111  0.00  0.00    +0.000 A 
ATOM     17  C   UNL     1       1.294   3.234  21.341  0.00  0.00    +0.000 A 
ATOM     18  C   UNL     1       2.528   2.607  21.470  0.00  0.00    +0.000 A 
ATOM     19  C   UNL     1       3.397   2.526  20.375  0.00  0.00    +0.000 A 
ATOM     20 CL   UNL     1       4.883   1.680  20.653  0.00  0.00    +0.000 Cl
ENDBRANCH  12  13
ENDBRANCH  11  12
ENDBRANCH   6  11
TORSDOF 5
ENDMDL
MODEL 5
REMARK VINA RESULT:      -7.5      1.739      3.952
REMARK  Name = 
REMARK  5 active torsions:
REMARK  status: ('A' for Active; 'I' for Inactive)
REMARK    1  A    between atoms: C_2  and  C_3
REMARK    2  A    between atoms: C_4  and  C_5
REMARK    3  A    between atoms: C_10  and  O_11
REMARK    4  A    between atoms: O_11  and  C_12
REMARK    5  A    between atoms: C_12  and  C_13
REMARK                            x       y       z     vdW  Elec       q    Type
REMARK                         _______ _______ _______ _____ _____    ______ ____
ROOT
ATOM      1  C   UNL     1       6.707   5.216  16.488  0.00  0.00    +0.000 A 
ATOM      2  C   UNL     1       7.392   5.233  15.257  0.00  0.00    +0.000 A 
ATOM      3  C   UNL     1       6.887   4.573  14.141  0.00  0.00    +0.000 A 
ATOM      4  C   UNL     1       5.668   3.921  14.228  0.00  0.00    +0.000 A 
ATOM      5  C   UNL     1       4.974   3.899  15.440  0.00  0.00    +0.000 A 
ATOM      6  C   UNL     1       5.502   4.498  16.600  0.00  0.00    +0.000 A 
ENDROOT
BRANCH   1   8
ATOM      7  C   UNL     1       7.377   7.327  17.502  0.00  0.00    +0.000 C 
ATOM      8  C   UNL     1       7.347   5.988  17.564  0.00  0.00    +0.000 C 
BRANCH   7  10
ATOM      9  O   UNL     1       8.410   9.308  18.263  0.00  0.00    +0.000 OA
ATOM     10  C   UNL     1       8.300   8.092  18.360  0.00  0.00    +0.000 C 
ENDBRANCH   7  10
ENDBRANCH   1   8
BRANCH   6  11
ATOM     11  O   UNL     1       4.904   4.387  17.842  0.00  0.00    +0.000 OA
BRANCH  11  12
ATOM     12  C   UNL     1       4.140   3.181  18.024  0.00  0.00    +0.000 C 
BRANCH  12  13
ATOM     13  C   UNL     1       3.167   3.237  19.182  0.00  0.00    +0.000 A 
ATOM     14  C   UNL     1       1.896   3.821  19.032  0.00  0.00    +0.000 A 
ATOM     15 CL   UNL     1       1.392   4.543  17.542  0.00  0.00    +0.000 Cl
ATOM     16  C   UNL     1       0.958   3.794  20.072  0.00  0.00    +0.000 A 
ATOM     17  C   UNL     1       1.263   3.177  21.282  0.00  0.00    +0.000 A 
ATOM     18  C   UNL     1       2.509   2.584  21.450  0.00  0.00    +0.000 A 
ATOM     19  C   UNL     1       3.452   2.614  20.415  0.00  0.00    +0.000 A 
ATOM     20 CL   UNL     1       4.948   1.801  20.733  0.00  0.00    +0.000 Cl
ENDBRANCH  12  13
ENDBRANCH  11  12
ENDBRANCH   6  11
TORSDOF 5
ENDMDL
MODEL 6
REMARK VINA RESULT:      -7.5      2.106      3.322
REMARK  Name = 
REMARK  5 active torsions:
REMARK  status: ('A' for Active; 'I' for Inactive)
REMARK    1  A    between atoms: C_2  and  C_3
REMARK    2  A    between atoms: C_4  and  C_5
REMARK    3  A    between atoms: C_10  and  O_11
REMARK    4  A    between atoms: O_11  and  C_12
REMARK    5  A    between atoms: C_12  and  C_13
REMARK                            x       y       z     vdW  Elec       q    Type
REMARK                         _______ _______ _______ _____ _____    ______ ____
ROOT
ATOM      1  C   UNL     1       4.778   5.914  17.399  0.00  0.00    +0.000 A 
ATOM      2  C   UNL     1       5.953   6.679  17.533  0.00  0.00    +0.000 A 
ATOM      3  C   UNL     1       7.187   6.187  17.117  0.00  0.00    +0.000 A 
ATOM      4  C   UNL     1       7.258   4.939  16.522  0.00  0.00    +0.000 A 
ATOM      5  C   UNL     1       6.101   4.169  16.378  0.00  0.00    +0.000 A 
ATOM      6  C   UNL     1       4.855   4.617  16.858  0.00  0.00    +0.000 A 
ENDROOT
BRANCH   1   8
ATOM      7  C   UNL     1       3.219   7.784  17.356  0.00  0.00    +0.000 C 
ATOM      8  C   UNL     1       3.549   6.582  17.850  0.00  0.00    +0.000 C 
BRANCH   7  10
ATOM      9  O   UNL     1       1.852   9.695  17.575  0.00  0.00    +0.000 OA
ATOM     10  C   UNL     1       2.210   8.618  18.034  0.00  0.00    +0.000 C 
ENDBRANCH   7  10
ENDBRANCH   1   8
BRANCH   6  11
ATOM     11  O   UNL     1       3.718   3.831  16.844  0.00  0.00    +0.000 OA
BRANCH  11  12
ATOM     12  C   UNL     1       3.755   2.720  17.759  0.00  0.00    +0.000 C 
BRANCH  12  13
ATOM     13  C   UNL     1       2.902   2.908  18.993  0.00  0.00    +0.000 A 
ATOM     14  C   UNL     1       3.364   2.507  20.261  0.00  0.00    +0.000 A 
ATOM     15 CL   UNL     1       4.901   1.742  20.473  0.00  0.00    +0.000 Cl
ATOM     16  C   UNL     1       2.617   2.761  21.418  0.00  0.00    +0.000 A 
ATOM     17  C   UNL     1       1.397   3.428  21.340  0.00  0.00    +0.000 A 
ATOM     18  C   UNL     1       0.926   3.843  20.100  0.00  0.00    +0.000 A 
ATOM     19  C   UNL     1       1.666   3.586  18.939  0.00  0.00    +0.000 A 
ATOM     20 CL   UNL     1       0.992   4.195  17.464  0.00  0.00    +0.000 Cl
ENDBRANCH  12  13
ENDBRANCH  11  12
ENDBRANCH   6  11
TORSDOF 5
ENDMDL
MODEL 7
REMARK VINA RESULT:      -7.4      1.540      1.875
REMARK  Name = 
REMARK  5 active torsions:
REMARK  status: ('A' for Active; 'I' for Inactive)
REMARK    1  A    between atoms: C_2  and  C_3
REMARK    2  A    between atoms: C_4  and  C_5
REMARK    3  A    between atoms: C_10  and  O_11
REMARK    4  A    between atoms: O_11  and  C_12
REMARK    5  A    between atoms: C_12  and  C_13
REMARK                            x       y       z     vdW  Elec       q    Type
REMARK                         _______ _______ _______ _____ _____    ______ ____
ROOT
ATOM      1  C   UNL     1       6.587   6.053  17.023  0.00  0.00    +0.000 A 
ATOM      2  C   UNL     1       7.148   7.300  16.686  0.00  0.00    +0.000 A 
ATOM      3  C   UNL     1       7.989   7.975  17.566  0.00  0.00    +0.000 A 
ATOM      4  C   UNL     1       8.314   7.394  18.780  0.00  0.00    +0.000 A 
ATOM      5  C   UNL     1       7.770   6.155  19.128  0.00  0.00    +0.000 A 
ATOM      6  C   UNL     1       6.859   5.489  18.284  0.00  0.00    +0.000 A 
ENDROOT
BRANCH   1   8
ATOM      7  C   UNL     1       6.233   4.450  15.224  0.00  0.00    +0.000 C 
ATOM      8  C   UNL     1       5.749   5.447  15.978  0.00  0.00    +0.000 C 
BRANCH   7  10
ATOM      9  O   UNL     1       6.190   3.614  13.018  0.00  0.00    +0.000 OA
ATOM     10  C   UNL     1       5.565   4.075  13.965  0.00  0.00    +0.000 C 
ENDBRANCH   7  10
ENDBRANCH   1   8
BRANCH   6  11
ATOM     11  O   UNL     1       6.207   4.327  18.651  0.00  0.00    +0.000 OA
BRANCH  11  12
ATOM     12  C   UNL     1       5.093   4.529  19.540  0.00  0.00    +0.000 C 
BRANCH  12  13
ATOM     13  C   UNL     1       3.804   3.894  19.067  0.00  0.00    +0.000 A 
ATOM     14  C   UNL     1       3.513   2.547  19.354  0.00  0.00    +0.000 A 
ATOM     15 CL   UNL     1       4.622   1.536  20.217  0.00  0.00    +0.000 Cl
ATOM     16  C   UNL     1       2.283   1.980  18.999  0.00  0.00    +0.000 A 
ATOM     17  C   UNL     1       1.312   2.743  18.357  0.00  0.00    +0.000 A 
ATOM     18  C   UNL     1       1.573   4.079  18.072  0.00  0.00    +0.000 A 
ATOM     19  C   UNL     1       2.803   4.649  18.421  0.00  0.00    +0.000 A 
ATOM     20 CL   UNL     1       2.987   6.332  18.053  0.00  0.00    +0.000 Cl
ENDBRANCH  12  13
ENDBRANCH  11  12
ENDBRANCH   6  11
TORSDOF 5
ENDMDL
MODEL 8
REMARK VINA RESULT:      -7.4      2.181      4.155
REMARK  Name = 
REMARK  5 active torsions:
REMARK  status: ('A' for Active; 'I' for Inactive)
REMARK    1  A    between atoms: C_2  and  C_3
REMARK    2  A    between atoms: C_4  and  C_5
REMARK    3  A    between atoms: C_10  and  O_11
REMARK    4  A    between atoms: O_11  and  C_12
REMARK    5  A    between atoms: C_12  and  C_13
REMARK                            x       y       z     vdW  Elec       q    Type
REMARK                         _______ _______ _______ _____ _____    ______ ____
ROOT
ATOM      1  C   UNL     1       6.813   5.692  17.035  0.00  0.00    +0.000 A 
ATOM      2  C   UNL     1       7.009   5.923  15.659  0.00  0.00    +0.000 A 
ATOM      3  C   UNL     1       6.545   5.024  14.703  0.00  0.00    +0.000 A 
ATOM      4  C   UNL     1       5.841   3.902  15.107  0.00  0.00    +0.000 A 
ATOM      5  C   UNL     1       5.635   3.660  16.467  0.00  0.00    +0.000 A 
ATOM      6  C   UNL     1       6.159   4.518  17.454  0.00  0.00    +0.000 A 
ENDROOT
BRANCH   1   8
ATOM      7  C   UNL     1       7.630   7.954  17.419  0.00  0.00    +0.000 C 
ATOM      8  C   UNL     1       7.328   6.747  17.919  0.00  0.00    +0.000 C 
BRANCH   7  10
ATOM      9  O   UNL     1       8.337  10.107  18.077  0.00  0.00    +0.000 OA
ATOM     10  C   UNL     1       8.463   8.894  18.190  0.00  0.00    +0.000 C 
ENDBRANCH   7  10
ENDBRANCH   1   8
BRANCH   6  11
ATOM     11  O   UNL     1       6.082   4.243  18.806  0.00  0.00    +0.000 OA
BRANCH  11  12
ATOM     12  C   UNL     1       4.962   4.856  19.471  0.00  0.00    +0.000 C 
BRANCH  12  13
ATOM     13  C   UNL     1       3.634   4.189  19.185  0.00  0.00    +0.000 A 
ATOM     14  C   UNL     1       2.654   4.833  18.408  0.00  0.00    +0.000 A 
ATOM     15 CL   UNL     1       2.889   6.427  17.776  0.00  0.00    +0.000 Cl
ATOM     16  C   UNL     1       1.460   4.184  18.064  0.00  0.00    +0.000 A 
ATOM     17  C   UNL     1       1.221   2.878  18.480  0.00  0.00    +0.000 A 
ATOM     18  C   UNL     1       2.180   2.218  19.241  0.00  0.00    +0.000 A 
ATOM     19  C   UNL     1       3.372   2.864  19.591  0.00  0.00    +0.000 A 
ATOM     20 CL   UNL     1       4.504   1.919  20.501  0.00  0.00    +0.000 Cl
ENDBRANCH  12  13
ENDBRANCH  11  12
ENDBRANCH   6  11
TORSDOF 5
ENDMDL
MODEL 9
REMARK VINA RESULT:      -7.3      2.316      3.873
REMARK  Name = 
REMARK  5 active torsions:
REMARK  status: ('A' for Active; 'I' for Inactive)
REMARK    1  A    between atoms: C_2  and  C_3
REMARK    2  A    between atoms: C_4  and  C_5
REMARK    3  A    between atoms: C_10  and  O_11
REMARK    4  A    between atoms: O_11  and  C_12
REMARK    5  A    between atoms: C_12  and  C_13
REMARK                            x       y       z     vdW  Elec       q    Type
REMARK                         _______ _______ _______ _____ _____    ______ ____
ROOT
ATOM      1  C   UNL     1       6.614   5.664  16.696  0.00  0.00    +0.000 A 
ATOM      2  C   UNL     1       7.441   5.229  15.641  0.00  0.00    +0.000 A 
ATOM      3  C   UNL     1       6.942   4.434  14.613  0.00  0.00    +0.000 A 
ATOM      4  C   UNL     1       5.599   4.097  14.602  0.00  0.00    +0.000 A 
ATOM      5  C   UNL     1       4.764   4.525  15.638  0.00  0.00    +0.000 A 
ATOM      6  C   UNL     1       5.264   5.267  16.725  0.00  0.00    +0.000 A 
ENDROOT
BRANCH   1   8
ATOM      7  C   UNL     1       7.402   7.840  17.454  0.00  0.00    +0.000 C 
ATOM      8  C   UNL     1       7.276   6.525  17.686  0.00  0.00    +0.000 C 
BRANCH   7  10
ATOM      9  O   UNL     1       8.415   9.865  18.119  0.00  0.00    +0.000 OA
ATOM     10  C   UNL     1       8.352   8.648  18.241  0.00  0.00    +0.000 C 
ENDBRANCH   7  10
ENDBRANCH   1   8
BRANCH   6  11
ATOM     11  O   UNL     1       4.495   5.598  17.826  0.00  0.00    +0.000 OA
BRANCH  11  12
ATOM     12  C   UNL     1       3.108   5.234  17.708  0.00  0.00    +0.000 C 
BRANCH  12  13
ATOM     13  C   UNL     1       2.573   4.453  18.888  0.00  0.00    +0.000 A 
ATOM     14  C   UNL     1       2.119   5.111  20.047  0.00  0.00    +0.000 A 
ATOM     15 CL   UNL     1       2.188   6.833  20.205  0.00  0.00    +0.000 Cl
ATOM     16  C   UNL     1       1.540   4.399  21.105  0.00  0.00    +0.000 A 
ATOM     17  C   UNL     1       1.392   3.017  21.029  0.00  0.00    +0.000 A 
ATOM     18  C   UNL     1       1.823   2.346  19.890  0.00  0.00    +0.000 A 
ATOM     19  C   UNL     1       2.408   3.053  18.832  0.00  0.00    +0.000 A 
ATOM     20 CL   UNL     1       2.861   2.108  17.452  0.00  0.00    +0.000 Cl
ENDBRANCH  12  13
ENDBRANCH  11  12
ENDBRANCH   6  11
TORSDOF 5
ENDMDL
