MODEL 1
REMARK VINA RESULT:      -8.3      0.000      0.000
REMARK  Name = 
REMARK  9 active torsions:
REMARK  status: ('A' for Active; 'I' for Inactive)
REMARK    1  A    between atoms: C_1  and  O_2
REMARK    2  A    between atoms: O_2  and  C_3
REMARK    3  A    between atoms: C_8  and  N_9
REMARK    4  A    between atoms: N_9  and  S_10
REMARK    5  A    between atoms: S_10  and  C_13
REMARK    6  A    between atoms: C_16  and  C_17
REMARK    7  A    between atoms: N_19  and  C_20
REMARK    8  A    between atoms: N_19  and  C_21
REMARK    9  A    between atoms: C_21  and  C_22
REMARK                            x       y       z     vdW  Elec       q    Type
REMARK                         _______ _______ _______ _____ _____    ______ ____
ROOT
ATOM      1  C   UNL     1       2.544   4.899  19.147  0.00  0.00    +0.000 A 
ATOM      2  C   UNL     1       2.152   5.352  17.885  0.00  0.00    +0.000 A 
ATOM      3  C   UNL     1       1.940   6.717  17.677  0.00  0.00    +0.000 A 
ATOM      4  C   UNL     1       2.079   7.635  18.736  0.00  0.00    +0.000 A 
ATOM      5  C   UNL     1       2.372   7.145  20.015  0.00  0.00    +0.000 A 
ATOM      6  C   UNL     1       2.631   5.788  20.219  0.00  0.00    +0.000 A 
ENDROOT
BRANCH   4   7
ATOM      7  C   UNL     1       1.755   9.068  18.477  0.00  0.00    +0.000 C 
ATOM      8  O   UNL     1       2.320   9.594  17.515  0.00  0.00    +0.000 OA
ATOM      9  N   UNL     1       0.809   9.752  19.248  0.00  0.00    +0.000 N 
ATOM     10  C   UNL     1       0.324   9.345  20.559  0.00  0.00    +0.000 C 
BRANCH   9  11
ATOM     11  C   UNL     1       0.221  10.967  18.679  0.00  0.00    +0.000 C 
BRANCH  11  12
ATOM     12  C   UNL     1      -1.237  10.830  18.307  0.00  0.00    +0.000 A 
ATOM     13  C   UNL     1      -1.633   9.877  17.357  0.00  0.00    +0.000 A 
ATOM     14  C   UNL     1      -2.967   9.769  16.964  0.00  0.00    +0.000 A 
ATOM     15  C   UNL     1      -3.925  10.619  17.513  0.00  0.00    +0.000 A 
ATOM     16  C   UNL     1      -3.552  11.549  18.481  0.00  0.00    +0.000 A 
ATOM     17  C   UNL     1      -2.218  11.650  18.883  0.00  0.00    +0.000 A 
ENDBRANCH  11  12
ENDBRANCH   9  11
ENDBRANCH   4   7
BRANCH   1  18
ATOM     18  S   UNL     1       2.967   3.206  19.428  0.00  0.00    +0.000 S 
ATOM     19  O   UNL     1       2.266   2.439  18.420  0.00  0.00    +0.000 OA
ATOM     20  O   UNL     1       2.793   2.924  20.839  0.00  0.00    +0.000 OA
BRANCH  18  21
ATOM     21  N   UNL     1       4.601   3.102  19.023  0.00  0.00    +0.000 N 
ATOM     22  H   UNL     1       5.158   3.036  19.876  0.00  0.00    +0.000 HD
BRANCH  21  28
ATOM     23  C   UNL     1       5.969   5.050  18.316  0.00  0.00    +0.000 A 
ATOM     24  C   UNL     1       6.285   5.961  17.299  0.00  0.00    +0.000 A 
ATOM     25  C   UNL     1       5.864   5.738  15.988  0.00  0.00    +0.000 A 
ATOM     26  C   UNL     1       5.127   4.602  15.679  0.00  0.00    +0.000 A 
ATOM     27  C   UNL     1       4.755   3.716  16.687  0.00  0.00    +0.000 A 
ATOM     28  C   UNL     1       5.134   3.960  18.011  0.00  0.00    +0.000 A 
BRANCH  23  30
ATOM     29  C   UNL     1       7.750   5.597  19.786  0.00  0.00    +0.000 C 
ATOM     30  O   UNL     1       6.390   5.200  19.610  0.00  0.00    +0.000 OA
ENDBRANCH  23  30
ENDBRANCH  21  28
ENDBRANCH  18  21
ENDBRANCH   1  18
TORSDOF 7
ENDMDL
MODEL 2
REMARK VINA RESULT:      -8.0      0.992      2.152
REMARK  Name = 
REMARK  9 active torsions:
REMARK  status: ('A' for Active; 'I' for Inactive)
REMARK    1  A    between atoms: C_1  and  O_2
REMARK    2  A    between atoms: O_2  and  C_3
REMARK    3  A    between atoms: C_8  and  N_9
REMARK    4  A    between atoms: N_9  and  S_10
REMARK    5  A    between atoms: S_10  and  C_13
REMARK    6  A    between atoms: C_16  and  C_17
REMARK    7  A    between atoms: N_19  and  C_20
REMARK    8  A    between atoms: N_19  and  C_21
REMARK    9  A    between atoms: C_21  and  C_22
REMARK                            x       y       z     vdW  Elec       q    Type
REMARK                         _______ _______ _______ _____ _____    ______ ____
ROOT
ATOM      1  C   UNL     1       2.748   5.097  19.010  0.00  0.00    +0.000 A 
ATOM      2  C   UNL     1       2.641   5.937  20.122  0.00  0.00    +0.000 A 
ATOM      3  C   UNL     1       2.244   7.264  19.948  0.00  0.00    +0.000 A 
ATOM      4  C   UNL     1       1.990   7.775  18.661  0.00  0.00    +0.000 A 
ATOM      5  C   UNL     1       2.204   6.944  17.554  0.00  0.00    +0.000 A 
ATOM      6  C   UNL     1       2.555   5.603  17.724  0.00  0.00    +0.000 A 
ENDROOT
BRANCH   4   7
ATOM      7  C   UNL     1       1.655   9.223  18.528  0.00  0.00    +0.000 C 
ATOM      8  O   UNL     1       2.219   9.836  17.618  0.00  0.00    +0.000 OA
ATOM      9  N   UNL     1       0.702   9.830  19.352  0.00  0.00    +0.000 N 
ATOM     10  C   UNL     1       0.215   9.306  20.620  0.00  0.00    +0.000 C 
BRANCH   9  11
ATOM     11  C   UNL     1       0.107  11.086  18.889  0.00  0.00    +0.000 C 
BRANCH  11  12
ATOM     12  C   UNL     1      -1.305  10.944  18.369  0.00  0.00    +0.000 A 
ATOM     13  C   UNL     1      -2.325  11.765  18.873  0.00  0.00    +0.000 A 
ATOM     14  C   UNL     1      -3.643  11.615  18.443  0.00  0.00    +0.000 A 
ATOM     15  C   UNL     1      -3.961  10.637  17.503  0.00  0.00    +0.000 A 
ATOM     16  C   UNL     1      -2.954   9.835  16.969  0.00  0.00    +0.000 A 
ATOM     17  C   UNL     1      -1.632   9.992  17.392  0.00  0.00    +0.000 A 
ENDBRANCH  11  12
ENDBRANCH   9  11
ENDBRANCH   4   7
BRANCH   1  18
ATOM     18  S   UNL     1       3.104   3.375  19.188  0.00  0.00    +0.000 S 
ATOM     19  O   UNL     1       2.060   2.669  18.478  0.00  0.00    +0.000 OA
ATOM     20  O   UNL     1       3.370   3.110  20.588  0.00  0.00    +0.000 OA
BRANCH  18  21
ATOM     21  N   UNL     1       4.509   3.134  18.285  0.00  0.00    +0.000 N 
ATOM     22  H   UNL     1       4.909   2.224  18.516  0.00  0.00    +0.000 HD
BRANCH  21  28
ATOM     23  C   UNL     1       5.894   4.659  16.899  0.00  0.00    +0.000 A 
ATOM     24  C   UNL     1       6.965   5.562  16.850  0.00  0.00    +0.000 A 
ATOM     25  C   UNL     1       7.519   6.072  18.024  0.00  0.00    +0.000 A 
ATOM     26  C   UNL     1       7.006   5.689  19.258  0.00  0.00    +0.000 A 
ATOM     27  C   UNL     1       5.980   4.750  19.326  0.00  0.00    +0.000 A 
ATOM     28  C   UNL     1       5.454   4.199  18.153  0.00  0.00    +0.000 A 
BRANCH  23  30
ATOM     29  C   UNL     1       6.130   3.976  14.638  0.00  0.00    +0.000 C 
ATOM     30  O   UNL     1       5.289   4.160  15.777  0.00  0.00    +0.000 OA
ENDBRANCH  23  30
ENDBRANCH  21  28
ENDBRANCH  18  21
ENDBRANCH   1  18
TORSDOF 7
ENDMDL
MODEL 3
REMARK VINA RESULT:      -8.0      0.250      1.292
REMARK  Name = 
REMARK  9 active torsions:
REMARK  status: ('A' for Active; 'I' for Inactive)
REMARK    1  A    between atoms: C_1  and  O_2
REMARK    2  A    between atoms: O_2  and  C_3
REMARK    3  A    between atoms: C_8  and  N_9
REMARK    4  A    between atoms: N_9  and  S_10
REMARK    5  A    between atoms: S_10  and  C_13
REMARK    6  A    between atoms: C_16  and  C_17
REMARK    7  A    between atoms: N_19  and  C_20
REMARK    8  A    between atoms: N_19  and  C_21
REMARK    9  A    between atoms: C_21  and  C_22
REMARK                            x       y       z     vdW  Elec       q    Type
REMARK                         _______ _______ _______ _____ _____    ______ ____
ROOT
ATOM      1  C   UNL     1       2.727   5.097  19.064  0.00  0.00    +0.000 A 
ATOM      2  C   UNL     1       2.887   6.022  20.100  0.00  0.00    +0.000 A 
ATOM      3  C   UNL     1       2.479   7.344  19.912  0.00  0.00    +0.000 A 
ATOM      4  C   UNL     1       1.947   7.763  18.678  0.00  0.00    +0.000 A 
ATOM      5  C   UNL     1       1.892   6.844  17.623  0.00  0.00    +0.000 A 
ATOM      6  C   UNL     1       2.253   5.509  17.819  0.00  0.00    +0.000 A 
ENDROOT
BRANCH   4   7
ATOM      7  C   UNL     1       1.611   9.207  18.506  0.00  0.00    +0.000 C 
ATOM      8  O   UNL     1       2.191   9.801  17.594  0.00  0.00    +0.000 OA
ATOM      9  N   UNL     1       0.640   9.829  19.298  0.00  0.00    +0.000 N 
ATOM     10  C   UNL     1       0.129   9.331  20.567  0.00  0.00    +0.000 C 
BRANCH   9  11
ATOM     11  C   UNL     1       0.051  11.072  18.795  0.00  0.00    +0.000 C 
BRANCH  11  12
ATOM     12  C   UNL     1      -1.366  10.923  18.291  0.00  0.00    +0.000 A 
ATOM     13  C   UNL     1      -2.386  11.730  18.816  0.00  0.00    +0.000 A 
ATOM     14  C   UNL     1      -3.709  11.573  18.400  0.00  0.00    +0.000 A 
ATOM     15  C   UNL     1      -4.030  10.602  17.454  0.00  0.00    +0.000 A 
ATOM     16  C   UNL     1      -3.022   9.814  16.900  0.00  0.00    +0.000 A 
ATOM     17  C   UNL     1      -1.697   9.978  17.309  0.00  0.00    +0.000 A 
ENDBRANCH  11  12
ENDBRANCH   9  11
ENDBRANCH   4   7
BRANCH   1  18
ATOM     18  S   UNL     1       3.089   3.382  19.297  0.00  0.00    +0.000 S 
ATOM     19  O   UNL     1       2.333   2.667  18.293  0.00  0.00    +0.000 OA
ATOM     20  O   UNL     1       2.943   3.077  20.706  0.00  0.00    +0.000 OA
BRANCH  18  21
ATOM     21  N   UNL     1       4.707   3.223  18.845  0.00  0.00    +0.000 N 
ATOM     22  H   UNL     1       5.289   3.170  19.682  0.00  0.00    +0.000 HD
BRANCH  21  28
ATOM     23  C   UNL     1       5.962   5.209  18.041  0.00  0.00    +0.000 A 
ATOM     24  C   UNL     1       6.264   6.057  16.967  0.00  0.00    +0.000 A 
ATOM     25  C   UNL     1       5.933   5.696  15.661  0.00  0.00    +0.000 A 
ATOM     26  C   UNL     1       5.300   4.484  15.415  0.00  0.00    +0.000 A 
ATOM     27  C   UNL     1       4.941   3.656  16.475  0.00  0.00    +0.000 A 
ATOM     28  C   UNL     1       5.228   4.036  17.790  0.00  0.00    +0.000 A 
BRANCH  23  30
ATOM     29  C   UNL     1       7.694   5.653  19.602  0.00  0.00    +0.000 C 
ATOM     30  O   UNL     1       6.300   5.498  19.336  0.00  0.00    +0.000 OA
ENDBRANCH  23  30
ENDBRANCH  21  28
ENDBRANCH  18  21
ENDBRANCH   1  18
TORSDOF 7
ENDMDL
MODEL 4
REMARK VINA RESULT:      -8.0      1.029      1.779
REMARK  Name = 
REMARK  9 active torsions:
REMARK  status: ('A' for Active; 'I' for Inactive)
REMARK    1  A    between atoms: C_1  and  O_2
REMARK    2  A    between atoms: O_2  and  C_3
REMARK    3  A    between atoms: C_8  and  N_9
REMARK    4  A    between atoms: N_9  and  S_10
REMARK    5  A    between atoms: S_10  and  C_13
REMARK    6  A    between atoms: C_16  and  C_17
REMARK    7  A    between atoms: N_19  and  C_20
REMARK    8  A    between atoms: N_19  and  C_21
REMARK    9  A    between atoms: C_21  and  C_22
REMARK                            x       y       z     vdW  Elec       q    Type
REMARK                         _______ _______ _______ _____ _____    ______ ____
ROOT
ATOM      1  C   UNL     1       2.701   5.177  18.912  0.00  0.00    +0.000 A 
ATOM      2  C   UNL     1       2.553   5.826  17.683  0.00  0.00    +0.000 A 
ATOM      3  C   UNL     1       2.264   7.192  17.656  0.00  0.00    +0.000 A 
ATOM      4  C   UNL     1       2.080   7.912  18.852  0.00  0.00    +0.000 A 
ATOM      5  C   UNL     1       2.131   7.218  20.068  0.00  0.00    +0.000 A 
ATOM      6  C   UNL     1       2.467   5.863  20.104  0.00  0.00    +0.000 A 
ENDROOT
BRANCH   4   7
ATOM      7  C   UNL     1       1.686   9.348  18.760  0.00  0.00    +0.000 C 
ATOM      8  O   UNL     1       2.261  10.022  17.902  0.00  0.00    +0.000 OA
ATOM      9  N   UNL     1       0.669   9.877  19.563  0.00  0.00    +0.000 N 
ATOM     10  C   UNL     1       0.151   9.280  20.785  0.00  0.00    +0.000 C 
BRANCH   9  11
ATOM     11  C   UNL     1       0.038  11.124  19.122  0.00  0.00    +0.000 C 
BRANCH  11  12
ATOM     12  C   UNL     1      -1.330  10.938  18.508  0.00  0.00    +0.000 A 
ATOM     13  C   UNL     1      -1.519   9.994  17.488  0.00  0.00    +0.000 A 
ATOM     14  C   UNL     1      -2.763   9.844  16.873  0.00  0.00    +0.000 A 
ATOM     15  C   UNL     1      -3.834  10.640  17.269  0.00  0.00    +0.000 A 
ATOM     16  C   UNL     1      -3.670  11.561  18.302  0.00  0.00    +0.000 A 
ATOM     17  C   UNL     1      -2.428  11.704  18.925  0.00  0.00    +0.000 A 
ENDBRANCH  11  12
ENDBRANCH   9  11
ENDBRANCH   4   7
BRANCH   1  18
ATOM     18  S   UNL     1       3.211   3.487  19.005  0.00  0.00    +0.000 S 
ATOM     19  O   UNL     1       2.181   2.715  18.343  0.00  0.00    +0.000 OA
ATOM     20  O   UNL     1       3.596   3.205  20.373  0.00  0.00    +0.000 OA
BRANCH  18  21
ATOM     21  N   UNL     1       4.564   3.394  18.001  0.00  0.00    +0.000 N 
ATOM     22  H   UNL     1       4.959   2.454  18.052  0.00  0.00    +0.000 HD
BRANCH  21  28
ATOM     23  C   UNL     1       5.959   5.071  16.815  0.00  0.00    +0.000 A 
ATOM     24  C   UNL     1       7.038   5.962  16.878  0.00  0.00    +0.000 A 
ATOM     25  C   UNL     1       7.599   6.314  18.106  0.00  0.00    +0.000 A 
ATOM     26  C   UNL     1       7.086   5.782  19.282  0.00  0.00    +0.000 A 
ATOM     27  C   UNL     1       6.052   4.851  19.234  0.00  0.00    +0.000 A 
ATOM     28  C   UNL     1       5.518   4.459  18.002  0.00  0.00    +0.000 A 
BRANCH  23  30
ATOM     29  C   UNL     1       6.147   4.001  14.705  0.00  0.00    +0.000 C 
ATOM     30  O   UNL     1       5.347   4.723  15.641  0.00  0.00    +0.000 OA
ENDBRANCH  23  30
ENDBRANCH  21  28
ENDBRANCH  18  21
ENDBRANCH   1  18
TORSDOF 7
ENDMDL
MODEL 5
REMARK VINA RESULT:      -7.9      2.721      8.962
REMARK  Name = 
REMARK  9 active torsions:
REMARK  status: ('A' for Active; 'I' for Inactive)
REMARK    1  A    between atoms: C_1  and  O_2
REMARK    2  A    between atoms: O_2  and  C_3
REMARK    3  A    between atoms: C_8  and  N_9
REMARK    4  A    between atoms: N_9  and  S_10
REMARK    5  A    between atoms: S_10  and  C_13
REMARK    6  A    between atoms: C_16  and  C_17
REMARK    7  A    between atoms: N_19  and  C_20
REMARK    8  A    between atoms: N_19  and  C_21
REMARK    9  A    between atoms: C_21  and  C_22
REMARK                            x       y       z     vdW  Elec       q    Type
REMARK                         _______ _______ _______ _____ _____    ______ ____
ROOT
ATOM      1  C   UNL     1       0.786   9.639  19.314  0.00  0.00    +0.000 A 
ATOM      2  C   UNL     1       1.331   9.620  18.027  0.00  0.00    +0.000 A 
ATOM      3  C   UNL     1       2.195   8.587  17.659  0.00  0.00    +0.000 A 
ATOM      4  C   UNL     1       2.554   7.588  18.583  0.00  0.00    +0.000 A 
ATOM      5  C   UNL     1       2.078   7.685  19.897  0.00  0.00    +0.000 A 
ATOM      6  C   UNL     1       1.176   8.689  20.258  0.00  0.00    +0.000 A 
ENDROOT
BRANCH   4   7
ATOM      7  C   UNL     1       3.550   6.559  18.162  0.00  0.00    +0.000 C 
ATOM      8  O   UNL     1       4.710   6.949  18.007  0.00  0.00    +0.000 OA
ATOM      9  N   UNL     1       3.192   5.214  18.017  0.00  0.00    +0.000 N 
ATOM     10  C   UNL     1       1.836   4.705  17.874  0.00  0.00    +0.000 C 
BRANCH   9  11
ATOM     11  C   UNL     1       4.267   4.220  18.050  0.00  0.00    +0.000 C 
BRANCH  11  12
ATOM     12  C   UNL     1       5.214   4.297  16.874  0.00  0.00    +0.000 A 
ATOM     13  C   UNL     1       6.587   4.481  17.090  0.00  0.00    +0.000 A 
ATOM     14  C   UNL     1       7.470   4.605  16.017  0.00  0.00    +0.000 A 
ATOM     15  C   UNL     1       6.989   4.550  14.711  0.00  0.00    +0.000 A 
ATOM     16  C   UNL     1       5.631   4.336  14.480  0.00  0.00    +0.000 A 
ATOM     17  C   UNL     1       4.748   4.201  15.555  0.00  0.00    +0.000 A 
ENDBRANCH  11  12
ENDBRANCH   9  11
ENDBRANCH   4   7
BRANCH   1  18
ATOM     18  S   UNL     1      -0.424  10.839  19.784  0.00  0.00    +0.000 S 
ATOM     19  O   UNL     1      -0.243  11.969  18.899  0.00  0.00    +0.000 OA
ATOM     20  O   UNL     1      -0.368  10.997  21.223  0.00  0.00    +0.000 OA
BRANCH  18  21
ATOM     21  N   UNL     1      -1.901  10.150  19.343  0.00  0.00    +0.000 N 
ATOM     22  H   UNL     1      -1.883   9.150  19.549  0.00  0.00    +0.000 HD
BRANCH  21  28
ATOM     23  C   UNL     1      -3.564  11.422  18.009  0.00  0.00    +0.000 A 
ATOM     24  C   UNL     1      -4.231  11.566  16.785  0.00  0.00    +0.000 A 
ATOM     25  C   UNL     1      -3.786  10.891  15.649  0.00  0.00    +0.000 A 
ATOM     26  C   UNL     1      -2.669  10.068  15.723  0.00  0.00    +0.000 A 
ATOM     27  C   UNL     1      -2.030   9.868  16.943  0.00  0.00    +0.000 A 
ATOM     28  C   UNL     1      -2.501  10.505  18.095  0.00  0.00    +0.000 A 
BRANCH  23  30
ATOM     29  C   UNL     1      -5.328  12.369  19.283  0.00  0.00    +0.000 C 
ATOM     30  O   UNL     1      -3.935  12.092  19.144  0.00  0.00    +0.000 OA
ENDBRANCH  23  30
ENDBRANCH  21  28
ENDBRANCH  18  21
ENDBRANCH   1  18
TORSDOF 7
ENDMDL
MODEL 6
REMARK VINA RESULT:      -7.9      1.051      1.986
REMARK  Name = 
REMARK  9 active torsions:
REMARK  status: ('A' for Active; 'I' for Inactive)
REMARK    1  A    between atoms: C_1  and  O_2
REMARK    2  A    between atoms: O_2  and  C_3
REMARK    3  A    between atoms: C_8  and  N_9
REMARK    4  A    between atoms: N_9  and  S_10
REMARK    5  A    between atoms: S_10  and  C_13
REMARK    6  A    between atoms: C_16  and  C_17
REMARK    7  A    between atoms: N_19  and  C_20
REMARK    8  A    between atoms: N_19  and  C_21
REMARK    9  A    between atoms: C_21  and  C_22
REMARK                            x       y       z     vdW  Elec       q    Type
REMARK                         _______ _______ _______ _____ _____    ______ ____
ROOT
ATOM      1  C   UNL     1       3.018   5.002  18.798  0.00  0.00    +0.000 A 
ATOM      2  C   UNL     1       2.975   5.630  17.550  0.00  0.00    +0.000 A 
ATOM      3  C   UNL     1       2.691   6.995  17.474  0.00  0.00    +0.000 A 
ATOM      4  C   UNL     1       2.408   7.735  18.638  0.00  0.00    +0.000 A 
ATOM      5  C   UNL     1       2.355   7.063  19.866  0.00  0.00    +0.000 A 
ATOM      6  C   UNL     1       2.685   5.709  19.954  0.00  0.00    +0.000 A 
ENDROOT
BRANCH   4   7
ATOM      7  C   UNL     1       2.025   9.169  18.488  0.00  0.00    +0.000 C 
ATOM      8  O   UNL     1       2.581   9.794  17.581  0.00  0.00    +0.000 OA
ATOM      9  N   UNL     1       1.039   9.749  19.294  0.00  0.00    +0.000 N 
ATOM     10  C   UNL     1       0.552   9.217  20.559  0.00  0.00    +0.000 C 
BRANCH   9  11
ATOM     11  C   UNL     1       0.407  10.979  18.812  0.00  0.00    +0.000 C 
BRANCH  11  12
ATOM     12  C   UNL     1      -1.024  10.801  18.360  0.00  0.00    +0.000 A 
ATOM     13  C   UNL     1      -2.036  11.606  18.902  0.00  0.00    +0.000 A 
ATOM     14  C   UNL     1      -3.370  11.423  18.535  0.00  0.00    +0.000 A 
ATOM     15  C   UNL     1      -3.710  10.427  17.623  0.00  0.00    +0.000 A 
ATOM     16  C   UNL     1      -2.711   9.640  17.052  0.00  0.00    +0.000 A 
ATOM     17  C   UNL     1      -1.375   9.830  17.411  0.00  0.00    +0.000 A 
ENDBRANCH  11  12
ENDBRANCH   9  11
ENDBRANCH   4   7
BRANCH   1  18
ATOM     18  S   UNL     1       3.515   3.313  18.963  0.00  0.00    +0.000 S 
ATOM     19  O   UNL     1       3.089   2.644  17.754  0.00  0.00    +0.000 OA
ATOM     20  O   UNL     1       3.094   2.844  20.268  0.00  0.00    +0.000 OA
BRANCH  18  21
ATOM     21  N   UNL     1       5.200   3.356  18.889  0.00  0.00    +0.000 N 
ATOM     22  H   UNL     1       5.587   3.044  19.781  0.00  0.00    +0.000 HD
BRANCH  21  28
ATOM     23  C   UNL     1       6.099   4.576  16.921  0.00  0.00    +0.000 A 
ATOM     24  C   UNL     1       6.917   5.611  16.450  0.00  0.00    +0.000 A 
ATOM     25  C   UNL     1       7.396   6.591  17.318  0.00  0.00    +0.000 A 
ATOM     26  C   UNL     1       7.059   6.551  18.665  0.00  0.00    +0.000 A 
ATOM     27  C   UNL     1       6.294   5.498  19.161  0.00  0.00    +0.000 A 
ATOM     28  C   UNL     1       5.852   4.486  18.303  0.00  0.00    +0.000 A 
BRANCH  23  30
ATOM     29  C   UNL     1       5.811   3.771  14.708  0.00  0.00    +0.000 C 
ATOM     30  O   UNL     1       5.571   3.612  16.105  0.00  0.00    +0.000 OA
ENDBRANCH  23  30
ENDBRANCH  21  28
ENDBRANCH  18  21
ENDBRANCH   1  18
TORSDOF 7
ENDMDL
MODEL 7
REMARK VINA RESULT:      -7.8      2.354      8.732
REMARK  Name = 
REMARK  9 active torsions:
REMARK  status: ('A' for Active; 'I' for Inactive)
REMARK    1  A    between atoms: C_1  and  O_2
REMARK    2  A    between atoms: O_2  and  C_3
REMARK    3  A    between atoms: C_8  and  N_9
REMARK    4  A    between atoms: N_9  and  S_10
REMARK    5  A    between atoms: S_10  and  C_13
REMARK    6  A    between atoms: C_16  and  C_17
REMARK    7  A    between atoms: N_19  and  C_20
REMARK    8  A    between atoms: N_19  and  C_21
REMARK    9  A    between atoms: C_21  and  C_22
REMARK                            x       y       z     vdW  Elec       q    Type
REMARK                         _______ _______ _______ _____ _____    ______ ____
ROOT
ATOM      1  C   UNL     1       1.413   8.961  19.537  0.00  0.00    +0.000 A 
ATOM      2  C   UNL     1       1.887   8.689  18.251  0.00  0.00    +0.000 A 
ATOM      3  C   UNL     1       2.352   7.409  17.943  0.00  0.00    +0.000 A 
ATOM      4  C   UNL     1       2.386   6.402  18.927  0.00  0.00    +0.000 A 
ATOM      5  C   UNL     1       2.004   6.727  20.235  0.00  0.00    +0.000 A 
ATOM      6  C   UNL     1       1.493   7.992  20.537  0.00  0.00    +0.000 A 
ENDROOT
BRANCH   4   7
ATOM      7  C   UNL     1       2.976   5.080  18.566  0.00  0.00    +0.000 C 
ATOM      8  O   UNL     1       2.192   4.226  18.144  0.00  0.00    +0.000 OA
ATOM      9  N   UNL     1       4.354   4.851  18.642  0.00  0.00    +0.000 N 
ATOM     10  C   UNL     1       5.310   5.650  19.394  0.00  0.00    +0.000 C 
BRANCH   9  11
ATOM     11  C   UNL     1       4.898   3.732  17.868  0.00  0.00    +0.000 C 
BRANCH  11  12
ATOM     12  C   UNL     1       5.585   4.145  16.587  0.00  0.00    +0.000 A 
ATOM     13  C   UNL     1       4.909   4.040  15.363  0.00  0.00    +0.000 A 
ATOM     14  C   UNL     1       5.544   4.368  14.164  0.00  0.00    +0.000 A 
ATOM     15  C   UNL     1       6.866   4.803  14.174  0.00  0.00    +0.000 A 
ATOM     16  C   UNL     1       7.541   4.944  15.385  0.00  0.00    +0.000 A 
ATOM     17  C   UNL     1       6.903   4.625  16.587  0.00  0.00    +0.000 A 
ENDBRANCH  11  12
ENDBRANCH   9  11
ENDBRANCH   4   7
BRANCH   1  18
ATOM     18  S   UNL     1       0.678  10.518  19.938  0.00  0.00    +0.000 S 
ATOM     19  O   UNL     1       1.765  11.394  20.320  0.00  0.00    +0.000 OA
ATOM     20  O   UNL     1      -0.438  10.275  20.829  0.00  0.00    +0.000 OA
BRANCH  18  21
ATOM     21  N   UNL     1       0.112  11.114  18.464  0.00  0.00    +0.000 N 
ATOM     22  H   UNL     1       0.528  12.029  18.286  0.00  0.00    +0.000 HD
BRANCH  21  28
ATOM     23  C   UNL     1      -2.231  11.919  18.626  0.00  0.00    +0.000 A 
ATOM     24  C   UNL     1      -3.591  11.633  18.441  0.00  0.00    +0.000 A 
ATOM     25  C   UNL     1      -3.990  10.516  17.708  0.00  0.00    +0.000 A 
ATOM     26  C   UNL     1      -3.035   9.675  17.148  0.00  0.00    +0.000 A 
ATOM     27  C   UNL     1      -1.682   9.912  17.370  0.00  0.00    +0.000 A 
ATOM     28  C   UNL     1      -1.277  11.004  18.146  0.00  0.00    +0.000 A 
BRANCH  23  30
ATOM     29  C   UNL     1      -2.322  13.214  20.613  0.00  0.00    +0.000 C 
ATOM     30  O   UNL     1      -1.787  13.022  19.304  0.00  0.00    +0.000 OA
ENDBRANCH  23  30
ENDBRANCH  21  28
ENDBRANCH  18  21
ENDBRANCH   1  18
TORSDOF 7
ENDMDL
MODEL 8
REMARK VINA RESULT:      -7.8      2.282      3.229
REMARK  Name = 
REMARK  9 active torsions:
REMARK  status: ('A' for Active; 'I' for Inactive)
REMARK    1  A    between atoms: C_1  and  O_2
REMARK    2  A    between atoms: O_2  and  C_3
REMARK    3  A    between atoms: C_8  and  N_9
REMARK    4  A    between atoms: N_9  and  S_10
REMARK    5  A    between atoms: S_10  and  C_13
REMARK    6  A    between atoms: C_16  and  C_17
REMARK    7  A    between atoms: N_19  and  C_20
REMARK    8  A    between atoms: N_19  and  C_21
REMARK    9  A    between atoms: C_21  and  C_22
REMARK                            x       y       z     vdW  Elec       q    Type
REMARK                         _______ _______ _______ _____ _____    ______ ____
ROOT
ATOM      1  C   UNL     1       2.326   7.465  19.173  0.00  0.00    +0.000 A 
ATOM      2  C   UNL     1       1.770   7.593  20.449  0.00  0.00    +0.000 A 
ATOM      3  C   UNL     1       0.923   8.667  20.728  0.00  0.00    +0.000 A 
ATOM      4  C   UNL     1       0.656   9.644  19.750  0.00  0.00    +0.000 A 
ATOM      5  C   UNL     1       1.307   9.551  18.512  0.00  0.00    +0.000 A 
ATOM      6  C   UNL     1       2.117   8.454  18.211  0.00  0.00    +0.000 A 
ENDROOT
BRANCH   4   7
ATOM      7  C   UNL     1      -0.184  10.817  20.132  0.00  0.00    +0.000 C 
ATOM      8  O   UNL     1       0.200  11.475  21.101  0.00  0.00    +0.000 OA
ATOM      9  N   UNL     1      -1.309  11.182  19.384  0.00  0.00    +0.000 N 
ATOM     10  C   UNL     1      -2.016  10.330  18.439  0.00  0.00    +0.000 C 
BRANCH   9  11
ATOM     11  C   UNL     1      -1.805  12.552  19.531  0.00  0.00    +0.000 C 
BRANCH  11  12
ATOM     12  C   UNL     1      -3.032  12.673  20.404  0.00  0.00    +0.000 A 
ATOM     13  C   UNL     1      -2.897  12.747  21.799  0.00  0.00    +0.000 A 
ATOM     14  C   UNL     1      -4.020  12.808  22.625  0.00  0.00    +0.000 A 
ATOM     15  C   UNL     1      -5.296  12.793  22.066  0.00  0.00    +0.000 A 
ATOM     16  C   UNL     1      -5.445  12.753  20.681  0.00  0.00    +0.000 A 
ATOM     17  C   UNL     1      -4.321  12.702  19.853  0.00  0.00    +0.000 A 
ENDBRANCH  11  12
ENDBRANCH   9  11
ENDBRANCH   4   7
BRANCH   1  18
ATOM     18  S   UNL     1       3.284   6.049  18.723  0.00  0.00    +0.000 S 
ATOM     19  O   UNL     1       2.521   5.346  17.714  0.00  0.00    +0.000 OA
ATOM     20  O   UNL     1       3.710   5.387  19.939  0.00  0.00    +0.000 OA
BRANCH  18  21
ATOM     21  N   UNL     1       4.626   6.681  17.918  0.00  0.00    +0.000 N 
ATOM     22  H   UNL     1       4.388   7.594  17.528  0.00  0.00    +0.000 HD
BRANCH  21  28
ATOM     23  C   UNL     1       6.464   5.055  17.546  0.00  0.00    +0.000 A 
ATOM     24  C   UNL     1       7.300   4.411  16.623  0.00  0.00    +0.000 A 
ATOM     25  C   UNL     1       7.022   4.460  15.258  0.00  0.00    +0.000 A 
ATOM     26  C   UNL     1       5.905   5.149  14.800  0.00  0.00    +0.000 A 
ATOM     27  C   UNL     1       5.097   5.841  15.698  0.00  0.00    +0.000 A 
ATOM     28  C   UNL     1       5.399   5.835  17.063  0.00  0.00    +0.000 A 
BRANCH  23  30
ATOM     29  C   UNL     1       7.827   5.684  19.385  0.00  0.00    +0.000 C 
ATOM     30  O   UNL     1       6.670   5.005  18.899  0.00  0.00    +0.000 OA
ENDBRANCH  23  30
ENDBRANCH  21  28
ENDBRANCH  18  21
ENDBRANCH   1  18
TORSDOF 7
ENDMDL
MODEL 9
REMARK VINA RESULT:      -7.7      2.081      3.099
REMARK  Name = 
REMARK  9 active torsions:
REMARK  status: ('A' for Active; 'I' for Inactive)
REMARK    1  A    between atoms: C_1  and  O_2
REMARK    2  A    between atoms: O_2  and  C_3
REMARK    3  A    between atoms: C_8  and  N_9
REMARK    4  A    between atoms: N_9  and  S_10
REMARK    5  A    between atoms: S_10  and  C_13
REMARK    6  A    between atoms: C_16  and  C_17
REMARK    7  A    between atoms: N_19  and  C_20
REMARK    8  A    between atoms: N_19  and  C_21
REMARK    9  A    between atoms: C_21  and  C_22
REMARK                            x       y       z     vdW  Elec       q    Type
REMARK                         _______ _______ _______ _____ _____    ______ ____
ROOT
ATOM      1  C   UNL     1       2.603   4.880  18.906  0.00  0.00    +0.000 A 
ATOM      2  C   UNL     1       2.113   4.886  20.215  0.00  0.00    +0.000 A 
ATOM      3  C   UNL     1       1.688   6.087  20.787  0.00  0.00    +0.000 A 
ATOM      4  C   UNL     1       1.785   7.296  20.072  0.00  0.00    +0.000 A 
ATOM      5  C   UNL     1       2.374   7.280  18.802  0.00  0.00    +0.000 A 
ATOM      6  C   UNL     1       2.758   6.076  18.206  0.00  0.00    +0.000 A 
ENDROOT
BRANCH   4   7
ATOM      7  C   UNL     1       1.399   8.560  20.765  0.00  0.00    +0.000 C 
ATOM      8  O   UNL     1       1.558   8.587  21.988  0.00  0.00    +0.000 OA
ATOM      9  N   UNL     1       0.942   9.673  20.050  0.00  0.00    +0.000 N 
ATOM     10  C   UNL     1       0.433   9.659  18.686  0.00  0.00    +0.000 C 
BRANCH   9  11
ATOM     11  C   UNL     1       1.015  10.978  20.711  0.00  0.00    +0.000 C 
BRANCH  11  12
ATOM     12  C   UNL     1      -0.302  11.457  21.277  0.00  0.00    +0.000 A 
ATOM     13  C   UNL     1      -1.146  12.267  20.503  0.00  0.00    +0.000 A 
ATOM     14  C   UNL     1      -2.341  12.760  21.026  0.00  0.00    +0.000 A 
ATOM     15  C   UNL     1      -2.708  12.452  22.334  0.00  0.00    +0.000 A 
ATOM     16  C   UNL     1      -1.896  11.622  23.104  0.00  0.00    +0.000 A 
ATOM     17  C   UNL     1      -0.703  11.119  22.578  0.00  0.00    +0.000 A 
ENDBRANCH  11  12
ENDBRANCH   9  11
ENDBRANCH   4   7
BRANCH   1  18
ATOM     18  S   UNL     1       3.016   3.370  18.085  0.00  0.00    +0.000 S 
ATOM     19  O   UNL     1       2.924   3.640  16.667  0.00  0.00    +0.000 OA
ATOM     20  O   UNL     1       2.253   2.299  18.696  0.00  0.00    +0.000 OA
BRANCH  18  21
ATOM     21  N   UNL     1       4.659   3.150  18.399  0.00  0.00    +0.000 N 
ATOM     22  H   UNL     1       4.772   2.669  19.293  0.00  0.00    +0.000 HD
BRANCH  21  28
ATOM     23  C   UNL     1       6.123   4.478  16.896  0.00  0.00    +0.000 A 
ATOM     24  C   UNL     1       7.159   5.415  16.787  0.00  0.00    +0.000 A 
ATOM     25  C   UNL     1       7.569   6.156  17.895  0.00  0.00    +0.000 A 
ATOM     26  C   UNL     1       6.945   5.971  19.123  0.00  0.00    +0.000 A 
ATOM     27  C   UNL     1       5.954   5.004  19.263  0.00  0.00    +0.000 A 
ATOM     28  C   UNL     1       5.573   4.225  18.166  0.00  0.00    +0.000 A 
BRANCH  23  30
ATOM     29  C   UNL     1       6.282   4.011  14.575  0.00  0.00    +0.000 C 
ATOM     30  O   UNL     1       5.657   3.754  15.832  0.00  0.00    +0.000 OA
ENDBRANCH  23  30
ENDBRANCH  21  28
ENDBRANCH  18  21
ENDBRANCH   1  18
TORSDOF 7
ENDMDL
