MODEL 1
REMARK VINA RESULT:      -8.0      0.000      0.000
REMARK  Name = 
REMARK  10 active torsions:
REMARK  status: ('A' for Active; 'I' for Inactive)
REMARK    1  A    between atoms: C_1  and  O_2
REMARK    2  A    between atoms: O_2  and  C_3
REMARK    3  A    between atoms: C_7  and  C_8
REMARK    4  A    between atoms: C_11  and  N_12
REMARK    5  A    between atoms: C_13  and  C_15
REMARK    6  A    between atoms: N_19  and  C_20
REMARK    7  A    between atoms: C_20  and  C_21
REMARK    8  A    between atoms: C_25  and  O_26
REMARK    9  A    between atoms: O_26  and  C_27
REMARK   10  A    between atoms: C_28  and  O_29
REMARK                            x       y       z     vdW  Elec       q    Type
REMARK                         _______ _______ _______ _____ _____    ______ ____
ROOT
ATOM      1  N   UNL     1       0.368  10.984  19.866  0.00  0.00    +0.000 N 
ATOM      2  C   UNL     1       0.806  12.071  20.603  0.00  0.00    +0.000 C 
ATOM      3  O   UNL     1       1.866  12.146  21.217  0.00  0.00    +0.000 OA
ATOM      4  H   UNL     1      -0.508  11.120  19.354  0.00  0.00    +0.000 HD
ENDROOT
BRANCH   1   8
ATOM      5  C   UNL     1       2.400   7.292  19.262  0.00  0.00    +0.000 A 
ATOM      6  C   UNL     1       1.750   7.566  20.474  0.00  0.00    +0.000 A 
ATOM      7  C   UNL     1       1.078   8.774  20.693  0.00  0.00    +0.000 A 
ATOM      8  C   UNL     1       1.017   9.747  19.699  0.00  0.00    +0.000 A 
ATOM      9  C   UNL     1       1.625   9.480  18.471  0.00  0.00    +0.000 A 
ATOM     10  C   UNL     1       2.315   8.275  18.261  0.00  0.00    +0.000 A 
BRANCH   5  15
ATOM     11  C   UNL     1       3.222   3.598  18.808  0.00  0.00    +0.000 A 
ATOM     12  C   UNL     1       4.615   3.632  18.786  0.00  0.00    +0.000 A 
ATOM     13  C   UNL     1       5.291   4.845  18.884  0.00  0.00    +0.000 A 
ATOM     14  C   UNL     1       4.573   6.036  19.012  0.00  0.00    +0.000 A 
ATOM     15  C   UNL     1       3.169   6.039  19.065  0.00  0.00    +0.000 A 
ATOM     16  C   UNL     1       2.513   4.794  18.950  0.00  0.00    +0.000 A 
BRANCH  11  18
ATOM     17  C   UNL     1       3.574   1.271  18.460  0.00  0.00    +0.000 C 
ATOM     18  O   UNL     1       2.675   2.348  18.697  0.00  0.00    +0.000 OA
ENDBRANCH  11  18
ENDBRANCH   5  15
ENDBRANCH   1   8
BRANCH   2  19
ATOM     19  C   UNL     1      -0.182  13.233  20.696  0.00  0.00    +0.000 C 
ATOM     20  C   UNL     1      -0.664  13.449  22.130  0.00  0.00    +0.000 C 
ATOM     21  C   UNL     1      -1.723  12.431  22.528  0.00  0.00    +0.000 C 
ATOM     22  C   UNL     1      -2.845  12.342  21.489  0.00  0.00    +0.000 C 
ATOM     23  N   UNL     1      -2.341  12.089  20.121  0.00  0.00    +0.000 NA
ATOM     24  C   UNL     1      -1.357  13.126  19.727  0.00  0.00    +0.000 C 
BRANCH  23  25
ATOM     25  C   UNL     1      -3.453  12.123  19.129  0.00  0.00    +0.000 C 
BRANCH  25  26
ATOM     26  C   UNL     1      -3.186  11.312  17.880  0.00  0.00    +0.000 A 
ATOM     27  C   UNL     1      -2.149  10.367  17.873  0.00  0.00    +0.000 A 
ATOM     28  C   UNL     1      -1.921   9.576  16.750  0.00  0.00    +0.000 A 
ATOM     29  C   UNL     1      -2.735   9.717  15.626  0.00  0.00    +0.000 A 
ATOM     30  C   UNL     1      -3.780  10.651  15.605  0.00  0.00    +0.000 A 
ATOM     31  C   UNL     1      -3.974  11.469  16.725  0.00  0.00    +0.000 A 
BRANCH  30  32
ATOM     32  O   UNL     1      -4.456  10.694  14.416  0.00  0.00    +0.000 OA
ATOM     33  C   UNL     1      -3.956   9.890  13.359  0.00  0.00    +0.000 C 
ENDBRANCH  30  32
BRANCH  31  34
ATOM     34  O   UNL     1      -4.881  12.492  16.733  0.00  0.00    +0.000 OA
ATOM     35  H   UNL     1      -5.571  12.270  16.091  0.00  0.00    +0.000 HD
ENDBRANCH  31  34
ENDBRANCH  25  26
ENDBRANCH  23  25
ENDBRANCH   2  19
TORSDOF 8
ENDMDL
MODEL 2
REMARK VINA RESULT:      -7.9      0.671      1.083
REMARK  Name = 
REMARK  10 active torsions:
REMARK  status: ('A' for Active; 'I' for Inactive)
REMARK    1  A    between atoms: C_1  and  O_2
REMARK    2  A    between atoms: O_2  and  C_3
REMARK    3  A    between atoms: C_7  and  C_8
REMARK    4  A    between atoms: C_11  and  N_12
REMARK    5  A    between atoms: C_13  and  C_15
REMARK    6  A    between atoms: N_19  and  C_20
REMARK    7  A    between atoms: C_20  and  C_21
REMARK    8  A    between atoms: C_25  and  O_26
REMARK    9  A    between atoms: O_26  and  C_27
REMARK   10  A    between atoms: C_28  and  O_29
REMARK                            x       y       z     vdW  Elec       q    Type
REMARK                         _______ _______ _______ _____ _____    ______ ____
ROOT
ATOM      1  N   UNL     1       0.804  11.067  19.357  0.00  0.00    +0.000 N 
ATOM      2  C   UNL     1       0.894  11.858  20.489  0.00  0.00    +0.000 C 
ATOM      3  O   UNL     1       1.556  11.611  21.492  0.00  0.00    +0.000 OA
ATOM      4  H   UNL     1       0.266  11.462  18.581  0.00  0.00    +0.000 HD
ENDROOT
BRANCH   1   8
ATOM      5  C   UNL     1       2.580   7.239  18.788  0.00  0.00    +0.000 A 
ATOM      6  C   UNL     1       2.604   8.203  17.769  0.00  0.00    +0.000 A 
ATOM      7  C   UNL     1       2.025   9.465  17.936  0.00  0.00    +0.000 A 
ATOM      8  C   UNL     1       1.414   9.818  19.136  0.00  0.00    +0.000 A 
ATOM      9  C   UNL     1       1.412   8.888  20.178  0.00  0.00    +0.000 A 
ATOM     10  C   UNL     1       1.976   7.614  20.001  0.00  0.00    +0.000 A 
BRANCH   5  15
ATOM     11  C   UNL     1       2.785   3.478  18.203  0.00  0.00    +0.000 A 
ATOM     12  C   UNL     1       4.161   3.269  18.266  0.00  0.00    +0.000 A 
ATOM     13  C   UNL     1       5.027   4.342  18.464  0.00  0.00    +0.000 A 
ATOM     14  C   UNL     1       4.517   5.634  18.607  0.00  0.00    +0.000 A 
ATOM     15  C   UNL     1       3.134   5.880  18.577  0.00  0.00    +0.000 A 
ATOM     16  C   UNL     1       2.283   4.773  18.361  0.00  0.00    +0.000 A 
BRANCH  11  18
ATOM     17  C   UNL     1       0.824   2.240  18.729  0.00  0.00    +0.000 C 
ATOM     18  O   UNL     1       2.040   2.348  17.998  0.00  0.00    +0.000 OA
ENDBRANCH  11  18
ENDBRANCH   5  15
ENDBRANCH   1   8
BRANCH   2  19
ATOM     19  C   UNL     1       0.014  13.108  20.478  0.00  0.00    +0.000 C 
ATOM     20  C   UNL     1      -0.419  13.504  21.889  0.00  0.00    +0.000 C 
ATOM     21  C   UNL     1      -1.556  12.628  22.396  0.00  0.00    +0.000 C 
ATOM     22  C   UNL     1      -2.702  12.540  21.384  0.00  0.00    +0.000 C 
ATOM     23  N   UNL     1      -2.249  12.111  20.042  0.00  0.00    +0.000 NA
ATOM     24  C   UNL     1      -1.186  13.013  19.537  0.00  0.00    +0.000 C 
BRANCH  23  25
ATOM     25  C   UNL     1      -3.372  12.149  19.064  0.00  0.00    +0.000 C 
BRANCH  25  26
ATOM     26  C   UNL     1      -3.136  11.310  17.826  0.00  0.00    +0.000 A 
ATOM     27  C   UNL     1      -2.094  10.372  17.810  0.00  0.00    +0.000 A 
ATOM     28  C   UNL     1      -1.893   9.558  16.699  0.00  0.00    +0.000 A 
ATOM     29  C   UNL     1      -2.741   9.668  15.596  0.00  0.00    +0.000 A 
ATOM     30  C   UNL     1      -3.791  10.594  15.585  0.00  0.00    +0.000 A 
ATOM     31  C   UNL     1      -3.958  11.436  16.691  0.00  0.00    +0.000 A 
BRANCH  30  32
ATOM     32  O   UNL     1      -4.503  10.606  14.416  0.00  0.00    +0.000 OA
ATOM     33  C   UNL     1      -3.914   9.963  13.295  0.00  0.00    +0.000 C 
ENDBRANCH  30  32
BRANCH  31  34
ATOM     34  O   UNL     1      -4.873  12.454  16.703  0.00  0.00    +0.000 OA
ATOM     35  H   UNL     1      -5.211  12.547  15.800  0.00  0.00    +0.000 HD
ENDBRANCH  31  34
ENDBRANCH  25  26
ENDBRANCH  23  25
ENDBRANCH   2  19
TORSDOF 8
ENDMDL
MODEL 3
REMARK VINA RESULT:      -7.9      6.090     10.210
REMARK  Name = 
REMARK  10 active torsions:
REMARK  status: ('A' for Active; 'I' for Inactive)
REMARK    1  A    between atoms: C_1  and  O_2
REMARK    2  A    between atoms: O_2  and  C_3
REMARK    3  A    between atoms: C_7  and  C_8
REMARK    4  A    between atoms: C_11  and  N_12
REMARK    5  A    between atoms: C_13  and  C_15
REMARK    6  A    between atoms: N_19  and  C_20
REMARK    7  A    between atoms: C_20  and  C_21
REMARK    8  A    between atoms: C_25  and  O_26
REMARK    9  A    between atoms: O_26  and  C_27
REMARK   10  A    between atoms: C_28  and  O_29
REMARK                            x       y       z     vdW  Elec       q    Type
REMARK                         _______ _______ _______ _____ _____    ______ ____
ROOT
ATOM      1  N   UNL     1       8.387   8.011  18.915  0.00  0.00    +0.000 N 
ATOM      2  C   UNL     1       7.788   7.139  18.023  0.00  0.00    +0.000 C 
ATOM      3  O   UNL     1       7.473   7.395  16.864  0.00  0.00    +0.000 OA
ATOM      4  H   UNL     1       8.650   7.608  19.818  0.00  0.00    +0.000 HD
ENDROOT
BRANCH   1   8
ATOM      5  C   UNL     1       9.290  12.109  18.196  0.00  0.00    +0.000 A 
ATOM      6  C   UNL     1       9.964  11.387  19.192  0.00  0.00    +0.000 A 
ATOM      7  C   UNL     1       9.680  10.040  19.445  0.00  0.00    +0.000 A 
ATOM      8  C   UNL     1       8.723   9.360  18.697  0.00  0.00    +0.000 A 
ATOM      9  C   UNL     1       8.067  10.048  17.675  0.00  0.00    +0.000 A 
ATOM     10  C   UNL     1       8.339  11.405  17.437  0.00  0.00    +0.000 A 
BRANCH   5  15
ATOM     11  C   UNL     1       8.777  15.884  18.068  0.00  0.00    +0.000 A 
ATOM     12  C   UNL     1       9.978  16.301  17.499  0.00  0.00    +0.000 A 
ATOM     13  C   UNL     1      10.968  15.372  17.187  0.00  0.00    +0.000 A 
ATOM     14  C   UNL     1      10.756  14.014  17.436  0.00  0.00    +0.000 A 
ATOM     15  C   UNL     1       9.547  13.553  17.983  0.00  0.00    +0.000 A 
ATOM     16  C   UNL     1       8.568  14.521  18.302  0.00  0.00    +0.000 A 
BRANCH  11  18
ATOM     17  C   UNL     1       6.587  16.499  18.765  0.00  0.00    +0.000 C 
ATOM     18  O   UNL     1       7.887  16.889  18.337  0.00  0.00    +0.000 OA
ENDBRANCH  11  18
ENDBRANCH   5  15
ENDBRANCH   1   8
BRANCH   2  19
ATOM     19  C   UNL     1       7.434   5.766  18.595  0.00  0.00    +0.000 C 
ATOM     20  C   UNL     1       7.885   4.637  17.670  0.00  0.00    +0.000 C 
ATOM     21  C   UNL     1       6.939   4.462  16.491  0.00  0.00    +0.000 C 
ATOM     22  C   UNL     1       5.479   4.365  16.943  0.00  0.00    +0.000 C 
ATOM     23  N   UNL     1       5.067   5.499  17.800  0.00  0.00    +0.000 NA
ATOM     24  C   UNL     1       5.963   5.615  18.976  0.00  0.00    +0.000 C 
BRANCH  23  25
ATOM     25  C   UNL     1       3.680   5.306  18.308  0.00  0.00    +0.000 C 
BRANCH  25  26
ATOM     26  C   UNL     1       2.968   6.597  18.652  0.00  0.00    +0.000 A 
ATOM     27  C   UNL     1       2.901   7.628  17.703  0.00  0.00    +0.000 A 
ATOM     28  C   UNL     1       2.207   8.802  17.983  0.00  0.00    +0.000 A 
ATOM     29  C   UNL     1       1.565   8.951  19.212  0.00  0.00    +0.000 A 
ATOM     30  C   UNL     1       1.612   7.937  20.178  0.00  0.00    +0.000 A 
ATOM     31  C   UNL     1       2.347   6.778  19.901  0.00  0.00    +0.000 A 
BRANCH  30  32
ATOM     32  O   UNL     1       0.968   8.256  21.343  0.00  0.00    +0.000 OA
ATOM     33  C   UNL     1       0.940   9.626  21.712  0.00  0.00    +0.000 C 
ENDBRANCH  30  32
BRANCH  31  34
ATOM     34  O   UNL     1       2.553   5.803  20.839  0.00  0.00    +0.000 OA
ATOM     35  H   UNL     1       1.801   5.195  20.791  0.00  0.00    +0.000 HD
ENDBRANCH  31  34
ENDBRANCH  25  26
ENDBRANCH  23  25
ENDBRANCH   2  19
TORSDOF 8
ENDMDL
MODEL 4
REMARK VINA RESULT:      -7.8      1.761      2.361
REMARK  Name = 
REMARK  10 active torsions:
REMARK  status: ('A' for Active; 'I' for Inactive)
REMARK    1  A    between atoms: C_1  and  O_2
REMARK    2  A    between atoms: O_2  and  C_3
REMARK    3  A    between atoms: C_7  and  C_8
REMARK    4  A    between atoms: C_11  and  N_12
REMARK    5  A    between atoms: C_13  and  C_15
REMARK    6  A    between atoms: N_19  and  C_20
REMARK    7  A    between atoms: C_20  and  C_21
REMARK    8  A    between atoms: C_25  and  O_26
REMARK    9  A    between atoms: O_26  and  C_27
REMARK   10  A    between atoms: C_28  and  O_29
REMARK                            x       y       z     vdW  Elec       q    Type
REMARK                         _______ _______ _______ _____ _____    ______ ____
ROOT
ATOM      1  N   UNL     1       0.142  11.786  20.205  0.00  0.00    +0.000 N 
ATOM      2  C   UNL     1       0.716  12.772  20.988  0.00  0.00    +0.000 C 
ATOM      3  O   UNL     1       1.878  12.793  21.385  0.00  0.00    +0.000 OA
ATOM      4  H   UNL     1      -0.818  11.965  19.901  0.00  0.00    +0.000 HD
ENDROOT
BRANCH   1   8
ATOM      5  C   UNL     1       2.034   8.282  18.697  0.00  0.00    +0.000 A 
ATOM      6  C   UNL     1       1.506   8.313  19.996  0.00  0.00    +0.000 A 
ATOM      7  C   UNL     1       0.882   9.455  20.511  0.00  0.00    +0.000 A 
ATOM      8  C   UNL     1       0.748  10.605  19.737  0.00  0.00    +0.000 A 
ATOM      9  C   UNL     1       1.232  10.584  18.428  0.00  0.00    +0.000 A 
ATOM     10  C   UNL     1       1.876   9.443  17.921  0.00  0.00    +0.000 A 
BRANCH   5  15
ATOM     11  C   UNL     1       4.662   6.117  16.984  0.00  0.00    +0.000 A 
ATOM     12  C   UNL     1       4.101   4.850  17.123  0.00  0.00    +0.000 A 
ATOM     13  C   UNL     1       2.893   4.685  17.796  0.00  0.00    +0.000 A 
ATOM     14  C   UNL     1       2.234   5.795  18.330  0.00  0.00    +0.000 A 
ATOM     15  C   UNL     1       2.756   7.092  18.186  0.00  0.00    +0.000 A 
ATOM     16  C   UNL     1       3.989   7.223  17.510  0.00  0.00    +0.000 A 
BRANCH  11  18
ATOM     17  C   UNL     1       7.024   6.377  17.085  0.00  0.00    +0.000 C 
ATOM     18  O   UNL     1       5.853   6.148  16.310  0.00  0.00    +0.000 OA
ENDBRANCH  11  18
ENDBRANCH   5  15
ENDBRANCH   1   8
BRANCH   2  19
ATOM     19  C   UNL     1      -0.236  13.878  21.441  0.00  0.00    +0.000 C 
ATOM     20  C   UNL     1      -0.592  13.745  22.920  0.00  0.00    +0.000 C 
ATOM     21  C   UNL     1      -1.636  12.662  23.153  0.00  0.00    +0.000 C 
ATOM     22  C   UNL     1      -2.842  12.825  22.224  0.00  0.00    +0.000 C 
ATOM     23  N   UNL     1      -2.459  12.906  20.797  0.00  0.00    +0.000 NA
ATOM     24  C   UNL     1      -1.490  14.006  20.578  0.00  0.00    +0.000 C 
BRANCH  23  25
ATOM     25  C   UNL     1      -3.648  13.178  19.941  0.00  0.00    +0.000 C 
BRANCH  25  26
ATOM     26  C   UNL     1      -3.910  12.112  18.898  0.00  0.00    +0.000 A 
ATOM     27  C   UNL     1      -5.116  11.396  18.923  0.00  0.00    +0.000 A 
ATOM     28  C   UNL     1      -5.395  10.448  17.943  0.00  0.00    +0.000 A 
ATOM     29  C   UNL     1      -4.474  10.215  16.922  0.00  0.00    +0.000 A 
ATOM     30  C   UNL     1      -3.263  10.917  16.870  0.00  0.00    +0.000 A 
ATOM     31  C   UNL     1      -2.974  11.838  17.884  0.00  0.00    +0.000 A 
BRANCH  30  32
ATOM     32  O   UNL     1      -2.453  10.542  15.832  0.00  0.00    +0.000 OA
ATOM     33  C   UNL     1      -3.085  10.215  14.604  0.00  0.00    +0.000 C 
ENDBRANCH  30  32
BRANCH  31  34
ATOM     34  O   UNL     1      -1.761  12.463  17.979  0.00  0.00    +0.000 OA
ATOM     35  H   UNL     1      -1.154  12.006  17.379  0.00  0.00    +0.000 HD
ENDBRANCH  31  34
ENDBRANCH  25  26
ENDBRANCH  23  25
ENDBRANCH   2  19
TORSDOF 8
ENDMDL
MODEL 5
REMARK VINA RESULT:      -7.7      1.335      1.603
REMARK  Name = 
REMARK  10 active torsions:
REMARK  status: ('A' for Active; 'I' for Inactive)
REMARK    1  A    between atoms: C_1  and  O_2
REMARK    2  A    between atoms: O_2  and  C_3
REMARK    3  A    between atoms: C_7  and  C_8
REMARK    4  A    between atoms: C_11  and  N_12
REMARK    5  A    between atoms: C_13  and  C_15
REMARK    6  A    between atoms: N_19  and  C_20
REMARK    7  A    between atoms: C_20  and  C_21
REMARK    8  A    between atoms: C_25  and  O_26
REMARK    9  A    between atoms: O_26  and  C_27
REMARK   10  A    between atoms: C_28  and  O_29
REMARK                            x       y       z     vdW  Elec       q    Type
REMARK                         _______ _______ _______ _____ _____    ______ ____
ROOT
ATOM      1  N   UNL     1       0.315  11.719  20.127  0.00  0.00    +0.000 N 
ATOM      2  C   UNL     1       0.894  12.707  20.906  0.00  0.00    +0.000 C 
ATOM      3  O   UNL     1       2.045  12.709  21.330  0.00  0.00    +0.000 OA
ATOM      4  H   UNL     1      -0.633  11.914  19.798  0.00  0.00    +0.000 HD
ENDROOT
BRANCH   1   8
ATOM      5  C   UNL     1       2.160   8.146  18.728  0.00  0.00    +0.000 A 
ATOM      6  C   UNL     1       1.613   8.217  20.018  0.00  0.00    +0.000 A 
ATOM      7  C   UNL     1       1.004   9.382  20.497  0.00  0.00    +0.000 A 
ATOM      8  C   UNL     1       0.904  10.516  19.696  0.00  0.00    +0.000 A 
ATOM      9  C   UNL     1       1.408  10.457  18.395  0.00  0.00    +0.000 A 
ATOM     10  C   UNL     1       2.037   9.293  17.924  0.00  0.00    +0.000 A 
BRANCH   5  15
ATOM     11  C   UNL     1       3.148   4.492  18.285  0.00  0.00    +0.000 A 
ATOM     12  C   UNL     1       4.252   4.610  17.444  0.00  0.00    +0.000 A 
ATOM     13  C   UNL     1       4.661   5.862  16.992  0.00  0.00    +0.000 A 
ATOM     14  C   UNL     1       3.967   7.008  17.387  0.00  0.00    +0.000 A 
ATOM     15  C   UNL     1       2.866   6.931  18.256  0.00  0.00    +0.000 A 
ATOM     16  C   UNL     1       2.468   5.645  18.686  0.00  0.00    +0.000 A 
BRANCH  11  18
ATOM     17  C   UNL     1       2.492   2.306  17.613  0.00  0.00    +0.000 C 
ATOM     18  O   UNL     1       2.841   3.210  18.656  0.00  0.00    +0.000 OA
ENDBRANCH  11  18
ENDBRANCH   5  15
ENDBRANCH   1   8
BRANCH   2  19
ATOM     19  C   UNL     1      -0.043  13.843  21.315  0.00  0.00    +0.000 C 
ATOM     20  C   UNL     1      -0.445  13.740  22.786  0.00  0.00    +0.000 C 
ATOM     21  C   UNL     1      -1.521  12.686  23.004  0.00  0.00    +0.000 C 
ATOM     22  C   UNL     1      -2.696  12.865  22.038  0.00  0.00    +0.000 C 
ATOM     23  N   UNL     1      -2.271  12.916  20.621  0.00  0.00    +0.000 NA
ATOM     24  C   UNL     1      -1.269  13.989  20.416  0.00  0.00    +0.000 C 
BRANCH  23  25
ATOM     25  C   UNL     1      -3.428  13.204  19.728  0.00  0.00    +0.000 C 
BRANCH  25  26
ATOM     26  C   UNL     1      -3.755  12.082  18.766  0.00  0.00    +0.000 A 
ATOM     27  C   UNL     1      -4.967  11.387  18.896  0.00  0.00    +0.000 A 
ATOM     28  C   UNL     1      -5.307  10.386  17.990  0.00  0.00    +0.000 A 
ATOM     29  C   UNL     1      -4.442  10.078  16.940  0.00  0.00    +0.000 A 
ATOM     30  C   UNL     1      -3.227  10.757  16.784  0.00  0.00    +0.000 A 
ATOM     31  C   UNL     1      -2.876  11.733  17.725  0.00  0.00    +0.000 A 
BRANCH  30  32
ATOM     32  O   UNL     1      -2.476  10.308  15.732  0.00  0.00    +0.000 OA
ATOM     33  C   UNL     1      -3.126  10.196  14.475  0.00  0.00    +0.000 C 
ENDBRANCH  30  32
BRANCH  31  34
ATOM     34  O   UNL     1      -1.653  12.345  17.720  0.00  0.00    +0.000 OA
ATOM     35  H   UNL     1      -1.272  12.232  18.603  0.00  0.00    +0.000 HD
ENDBRANCH  31  34
ENDBRANCH  25  26
ENDBRANCH  23  25
ENDBRANCH   2  19
TORSDOF 8
ENDMDL
MODEL 6
REMARK VINA RESULT:      -7.6      3.596     10.054
REMARK  Name = 
REMARK  10 active torsions:
REMARK  status: ('A' for Active; 'I' for Inactive)
REMARK    1  A    between atoms: C_1  and  O_2
REMARK    2  A    between atoms: O_2  and  C_3
REMARK    3  A    between atoms: C_7  and  C_8
REMARK    4  A    between atoms: C_11  and  N_12
REMARK    5  A    between atoms: C_13  and  C_15
REMARK    6  A    between atoms: N_19  and  C_20
REMARK    7  A    between atoms: C_20  and  C_21
REMARK    8  A    between atoms: C_25  and  O_26
REMARK    9  A    between atoms: O_26  and  C_27
REMARK   10  A    between atoms: C_28  and  O_29
REMARK                            x       y       z     vdW  Elec       q    Type
REMARK                         _______ _______ _______ _____ _____    ______ ____
ROOT
ATOM      1  N   UNL     1       2.757   5.676  18.256  0.00  0.00    +0.000 N 
ATOM      2  C   UNL     1       2.066   4.622  17.684  0.00  0.00    +0.000 C 
ATOM      3  O   UNL     1       0.870   4.607  17.411  0.00  0.00    +0.000 OA
ATOM      4  H   UNL     1       3.768   5.546  18.345  0.00  0.00    +0.000 HD
ENDROOT
BRANCH   1   8
ATOM      5  C   UNL     1       1.153   9.455  19.382  0.00  0.00    +0.000 A 
ATOM      6  C   UNL     1       1.298   8.426  20.323  0.00  0.00    +0.000 A 
ATOM      7  C   UNL     1       1.821   7.176  19.972  0.00  0.00    +0.000 A 
ATOM      8  C   UNL     1       2.236   6.916  18.669  0.00  0.00    +0.000 A 
ATOM      9  C   UNL     1       2.137   7.939  17.725  0.00  0.00    +0.000 A 
ATOM     10  C   UNL     1       1.593   9.186  18.074  0.00  0.00    +0.000 A 
BRANCH   5  15
ATOM     11  C   UNL     1       0.605  12.865  20.996  0.00  0.00    +0.000 A 
ATOM     12  C   UNL     1      -0.670  13.182  20.532  0.00  0.00    +0.000 A 
ATOM     13  C   UNL     1      -1.341  12.315  19.673  0.00  0.00    +0.000 A 
ATOM     14  C   UNL     1      -0.740  11.118  19.278  0.00  0.00    +0.000 A 
ATOM     15  C   UNL     1       0.532  10.752  19.748  0.00  0.00    +0.000 A 
ATOM     16  C   UNL     1       1.193  11.658  20.606  0.00  0.00    +0.000 A 
BRANCH  11  18
ATOM     17  C   UNL     1       1.890  14.855  21.210  0.00  0.00    +0.000 C 
ATOM     18  O   UNL     1       1.164  13.798  21.827  0.00  0.00    +0.000 OA
ENDBRANCH  11  18
ENDBRANCH   5  15
ENDBRANCH   1   8
BRANCH   2  19
ATOM     19  C   UNL     1       2.888   3.354  17.457  0.00  0.00    +0.000 C 
ATOM     20  C   UNL     1       2.402   2.202  18.336  0.00  0.00    +0.000 C 
ATOM     21  C   UNL     1       2.892   2.342  19.770  0.00  0.00    +0.000 C 
ATOM     22  C   UNL     1       4.402   2.592  19.833  0.00  0.00    +0.000 C 
ATOM     23  N   UNL     1       4.827   3.742  19.003  0.00  0.00    +0.000 NA
ATOM     24  C   UNL     1       4.395   3.559  17.597  0.00  0.00    +0.000 C 
BRANCH  23  25
ATOM     25  C   UNL     1       6.311   3.878  19.004  0.00  0.00    +0.000 C 
BRANCH  25  26
ATOM     26  C   UNL     1       6.810   5.145  18.343  0.00  0.00    +0.000 A 
ATOM     27  C   UNL     1       6.455   5.423  17.014  0.00  0.00    +0.000 A 
ATOM     28  C   UNL     1       6.864   6.606  16.406  0.00  0.00    +0.000 A 
ATOM     29  C   UNL     1       7.624   7.529  17.126  0.00  0.00    +0.000 A 
ATOM     30  C   UNL     1       7.991   7.280  18.454  0.00  0.00    +0.000 A 
ATOM     31  C   UNL     1       7.609   6.068  19.042  0.00  0.00    +0.000 A 
BRANCH  30  32
ATOM     32  O   UNL     1       8.770   8.262  19.004  0.00  0.00    +0.000 OA
ATOM     33  C   UNL     1       8.712   9.546  18.401  0.00  0.00    +0.000 C 
ENDBRANCH  30  32
BRANCH  31  34
ATOM     34  O   UNL     1       8.040   5.692  20.285  0.00  0.00    +0.000 OA
ATOM     35  H   UNL     1       7.256   5.451  20.801  0.00  0.00    +0.000 HD
ENDBRANCH  31  34
ENDBRANCH  25  26
ENDBRANCH  23  25
ENDBRANCH   2  19
TORSDOF 8
ENDMDL
MODEL 7
REMARK VINA RESULT:      -7.6      2.433      2.906
REMARK  Name = 
REMARK  10 active torsions:
REMARK  status: ('A' for Active; 'I' for Inactive)
REMARK    1  A    between atoms: C_1  and  O_2
REMARK    2  A    between atoms: O_2  and  C_3
REMARK    3  A    between atoms: C_7  and  C_8
REMARK    4  A    between atoms: C_11  and  N_12
REMARK    5  A    between atoms: C_13  and  C_15
REMARK    6  A    between atoms: N_19  and  C_20
REMARK    7  A    between atoms: C_20  and  C_21
REMARK    8  A    between atoms: C_25  and  O_26
REMARK    9  A    between atoms: O_26  and  C_27
REMARK   10  A    between atoms: C_28  and  O_29
REMARK                            x       y       z     vdW  Elec       q    Type
REMARK                         _______ _______ _______ _____ _____    ______ ____
ROOT
ATOM      1  N   UNL     1       0.497  10.925  20.636  0.00  0.00    +0.000 N 
ATOM      2  C   UNL     1      -0.707  11.536  20.332  0.00  0.00    +0.000 C 
ATOM      3  O   UNL     1      -1.492  11.188  19.454  0.00  0.00    +0.000 OA
ATOM      4  H   UNL     1       0.991  11.301  21.450  0.00  0.00    +0.000 HD
ENDROOT
BRANCH   1   8
ATOM      5  C   UNL     1       2.219   7.498  18.788  0.00  0.00    +0.000 A 
ATOM      6  C   UNL     1       1.981   8.669  18.053  0.00  0.00    +0.000 A 
ATOM      7  C   UNL     1       1.414   9.805  18.642  0.00  0.00    +0.000 A 
ATOM      8  C   UNL     1       1.080   9.818  19.994  0.00  0.00    +0.000 A 
ATOM      9  C   UNL     1       1.343   8.676  20.753  0.00  0.00    +0.000 A 
ATOM     10  C   UNL     1       1.893   7.531  20.155  0.00  0.00    +0.000 A 
BRANCH   5  15
ATOM     11  C   UNL     1       2.551   3.886  17.618  0.00  0.00    +0.000 A 
ATOM     12  C   UNL     1       3.796   3.918  16.992  0.00  0.00    +0.000 A 
ATOM     13  C   UNL     1       4.515   5.108  16.917  0.00  0.00    +0.000 A 
ATOM     14  C   UNL     1       3.992   6.276  17.476  0.00  0.00    +0.000 A 
ATOM     15  C   UNL     1       2.754   6.277  18.139  0.00  0.00    +0.000 A 
ATOM     16  C   UNL     1       2.043   5.057  18.186  0.00  0.00    +0.000 A 
BRANCH  11  18
ATOM     17  C   UNL     1       0.959   2.436  18.627  0.00  0.00    +0.000 C 
ATOM     18  O   UNL     1       1.940   2.661  17.621  0.00  0.00    +0.000 OA
ENDBRANCH  11  18
ENDBRANCH   5  15
ENDBRANCH   1   8
BRANCH   2  19
ATOM     19  C   UNL     1      -1.015  12.801  21.133  0.00  0.00    +0.000 C 
ATOM     20  C   UNL     1      -0.861  12.568  22.635  0.00  0.00    +0.000 C 
ATOM     21  C   UNL     1      -2.059  11.830  23.216  0.00  0.00    +0.000 C 
ATOM     22  C   UNL     1      -3.382  12.484  22.809  0.00  0.00    +0.000 C 
ATOM     23  N   UNL     1      -3.512  12.653  21.345  0.00  0.00    +0.000 NA
ATOM     24  C   UNL     1      -2.369  13.427  20.805  0.00  0.00    +0.000 C 
BRANCH  23  25
ATOM     25  C   UNL     1      -4.758  13.394  21.002  0.00  0.00    +0.000 C 
BRANCH  25  26
ATOM     26  C   UNL     1      -5.440  12.900  19.744  0.00  0.00    +0.000 A 
ATOM     27  C   UNL     1      -5.352  11.545  19.392  0.00  0.00    +0.000 A 
ATOM     28  C   UNL     1      -6.013  11.063  18.266  0.00  0.00    +0.000 A 
ATOM     29  C   UNL     1      -6.778  11.932  17.487  0.00  0.00    +0.000 A 
ATOM     30  C   UNL     1      -6.887  13.289  17.816  0.00  0.00    +0.000 A 
ATOM     31  C   UNL     1      -6.184  13.770  18.927  0.00  0.00    +0.000 A 
BRANCH  30  32
ATOM     32  O   UNL     1      -7.638  14.012  16.930  0.00  0.00    +0.000 OA
ATOM     33  C   UNL     1      -6.996  15.093  16.271  0.00  0.00    +0.000 C 
ENDBRANCH  30  32
BRANCH  31  34
ATOM     34  O   UNL     1      -6.130  15.102  19.236  0.00  0.00    +0.000 OA
ATOM     35  H   UNL     1      -6.464  15.589  18.468  0.00  0.00    +0.000 HD
ENDBRANCH  31  34
ENDBRANCH  25  26
ENDBRANCH  23  25
ENDBRANCH   2  19
TORSDOF 8
ENDMDL
MODEL 8
REMARK VINA RESULT:      -7.5      1.894      2.698
REMARK  Name = 
REMARK  10 active torsions:
REMARK  status: ('A' for Active; 'I' for Inactive)
REMARK    1  A    between atoms: C_1  and  O_2
REMARK    2  A    between atoms: O_2  and  C_3
REMARK    3  A    between atoms: C_7  and  C_8
REMARK    4  A    between atoms: C_11  and  N_12
REMARK    5  A    between atoms: C_13  and  C_15
REMARK    6  A    between atoms: N_19  and  C_20
REMARK    7  A    between atoms: C_20  and  C_21
REMARK    8  A    between atoms: C_25  and  O_26
REMARK    9  A    between atoms: O_26  and  C_27
REMARK   10  A    between atoms: C_28  and  O_29
REMARK                            x       y       z     vdW  Elec       q    Type
REMARK                         _______ _______ _______ _____ _____    ______ ____
ROOT
ATOM      1  N   UNL     1       0.650  10.813  20.574  0.00  0.00    +0.000 N 
ATOM      2  C   UNL     1      -0.541  11.443  20.259  0.00  0.00    +0.000 C 
ATOM      3  O   UNL     1      -1.319  11.111  19.370  0.00  0.00    +0.000 OA
ATOM      4  H   UNL     1       1.140  11.177  21.396  0.00  0.00    +0.000 HD
ENDROOT
BRANCH   1   8
ATOM      5  C   UNL     1       2.341   7.371  18.723  0.00  0.00    +0.000 A 
ATOM      6  C   UNL     1       2.174   8.565  18.007  0.00  0.00    +0.000 A 
ATOM      7  C   UNL     1       1.619   9.707  18.596  0.00  0.00    +0.000 A 
ATOM      8  C   UNL     1       1.226   9.701  19.932  0.00  0.00    +0.000 A 
ATOM      9  C   UNL     1       1.418   8.535  20.675  0.00  0.00    +0.000 A 
ATOM     10  C   UNL     1       1.957   7.385  20.075  0.00  0.00    +0.000 A 
BRANCH   5  15
ATOM     11  C   UNL     1       2.645   3.757  17.551  0.00  0.00    +0.000 A 
ATOM     12  C   UNL     1       3.884   3.782  16.916  0.00  0.00    +0.000 A 
ATOM     13  C   UNL     1       4.609   4.969  16.834  0.00  0.00    +0.000 A 
ATOM     14  C   UNL     1       4.097   6.140  17.398  0.00  0.00    +0.000 A 
ATOM     15  C   UNL     1       2.864   6.147  18.070  0.00  0.00    +0.000 A 
ATOM     16  C   UNL     1       2.147   4.931  18.123  0.00  0.00    +0.000 A 
BRANCH  11  18
ATOM     17  C   UNL     1       1.153   2.266  18.650  0.00  0.00    +0.000 C 
ATOM     18  O   UNL     1       2.027   2.536  17.559  0.00  0.00    +0.000 OA
ENDBRANCH  11  18
ENDBRANCH   5  15
ENDBRANCH   1   8
BRANCH   2  19
ATOM     19  C   UNL     1      -0.840  12.707  21.064  0.00  0.00    +0.000 C 
ATOM     20  C   UNL     1      -0.444  12.549  22.531  0.00  0.00    +0.000 C 
ATOM     21  C   UNL     1      -1.469  11.734  23.306  0.00  0.00    +0.000 C 
ATOM     22  C   UNL     1      -2.893  12.255  23.087  0.00  0.00    +0.000 C 
ATOM     23  N   UNL     1      -3.253  12.354  21.655  0.00  0.00    +0.000 NA
ATOM     24  C   UNL     1      -2.278  13.202  20.929  0.00  0.00    +0.000 C 
BRANCH  23  25
ATOM     25  C   UNL     1      -4.599  12.970  21.486  0.00  0.00    +0.000 C 
BRANCH  25  26
ATOM     26  C   UNL     1      -5.435  12.330  20.399  0.00  0.00    +0.000 A 
ATOM     27  C   UNL     1      -6.701  11.812  20.710  0.00  0.00    +0.000 A 
ATOM     28  C   UNL     1      -7.505  11.265  19.714  0.00  0.00    +0.000 A 
ATOM     29  C   UNL     1      -7.053  11.240  18.394  0.00  0.00    +0.000 A 
ATOM     30  C   UNL     1      -5.795  11.753  18.054  0.00  0.00    +0.000 A 
ATOM     31  C   UNL     1      -4.979  12.264  19.070  0.00  0.00    +0.000 A 
BRANCH  30  32
ATOM     32  O   UNL     1      -5.484  11.616  16.728  0.00  0.00    +0.000 OA
ATOM     33  C   UNL     1      -4.330  10.854  16.410  0.00  0.00    +0.000 C 
ENDBRANCH  30  32
BRANCH  31  34
ATOM     34  O   UNL     1      -3.688  12.658  18.842  0.00  0.00    +0.000 OA
ATOM     35  H   UNL     1      -3.199  11.879  18.540  0.00  0.00    +0.000 HD
ENDBRANCH  31  34
ENDBRANCH  25  26
ENDBRANCH  23  25
ENDBRANCH   2  19
TORSDOF 8
ENDMDL
MODEL 9
REMARK VINA RESULT:      -7.4      3.547      4.922
REMARK  Name = 
REMARK  10 active torsions:
REMARK  status: ('A' for Active; 'I' for Inactive)
REMARK    1  A    between atoms: C_1  and  O_2
REMARK    2  A    between atoms: O_2  and  C_3
REMARK    3  A    between atoms: C_7  and  C_8
REMARK    4  A    between atoms: C_11  and  N_12
REMARK    5  A    between atoms: C_13  and  C_15
REMARK    6  A    between atoms: N_19  and  C_20
REMARK    7  A    between atoms: C_20  and  C_21
REMARK    8  A    between atoms: C_25  and  O_26
REMARK    9  A    between atoms: O_26  and  C_27
REMARK   10  A    between atoms: C_28  and  O_29
REMARK                            x       y       z     vdW  Elec       q    Type
REMARK                         _______ _______ _______ _____ _____    ______ ____
ROOT
ATOM      1  N   UNL     1       0.469  10.825  21.139  0.00  0.00    +0.000 N 
ATOM      2  C   UNL     1      -0.397  10.821  22.219  0.00  0.00    +0.000 C 
ATOM      3  O   UNL     1      -0.815   9.827  22.805  0.00  0.00    +0.000 OA
ATOM      4  H   UNL     1       0.775  11.748  20.820  0.00  0.00    +0.000 HD
ENDROOT
BRANCH   1   8
ATOM      5  C   UNL     1       2.155   7.530  19.035  0.00  0.00    +0.000 A 
ATOM      6  C   UNL     1       1.909   7.454  20.414  0.00  0.00    +0.000 A 
ATOM      7  C   UNL     1       1.357   8.526  21.124  0.00  0.00    +0.000 A 
ATOM      8  C   UNL     1       1.014   9.710  20.476  0.00  0.00    +0.000 A 
ATOM      9  C   UNL     1       1.215   9.795  19.097  0.00  0.00    +0.000 A 
ATOM     10  C   UNL     1       1.788   8.724  18.391  0.00  0.00    +0.000 A 
BRANCH   5  15
ATOM     11  C   UNL     1       4.637   5.577  16.900  0.00  0.00    +0.000 A 
ATOM     12  C   UNL     1       4.014   4.333  16.833  0.00  0.00    +0.000 A 
ATOM     13  C   UNL     1       2.812   4.110  17.500  0.00  0.00    +0.000 A 
ATOM     14  C   UNL     1       2.222   5.139  18.237  0.00  0.00    +0.000 A 
ATOM     15  C   UNL     1       2.805   6.415  18.306  0.00  0.00    +0.000 A 
ATOM     16  C   UNL     1       4.031   6.605  17.629  0.00  0.00    +0.000 A 
BRANCH  11  18
ATOM     17  C   UNL     1       7.008   5.742  16.981  0.00  0.00    +0.000 C 
ATOM     18  O   UNL     1       5.815   5.670  16.209  0.00  0.00    +0.000 OA
ENDBRANCH  11  18
ENDBRANCH   5  15
ENDBRANCH   1   8
BRANCH   2  19
ATOM     19  C   UNL     1      -0.915  12.196  22.640  0.00  0.00    +0.000 C 
ATOM     20  C   UNL     1      -2.438  12.211  22.765  0.00  0.00    +0.000 C 
ATOM     21  C   UNL     1      -3.114  12.301  21.404  0.00  0.00    +0.000 C 
ATOM     22  C   UNL     1      -2.536  13.440  20.557  0.00  0.00    +0.000 C 
ATOM     23  N   UNL     1      -1.064  13.366  20.424  0.00  0.00    +0.000 NA
ATOM     24  C   UNL     1      -0.420  13.341  21.760  0.00  0.00    +0.000 C 
BRANCH  23  25
ATOM     25  C   UNL     1      -0.536  14.551  19.692  0.00  0.00    +0.000 C 
BRANCH  25  26
ATOM     26  C   UNL     1       0.904  14.406  19.249  0.00  0.00    +0.000 A 
ATOM     27  C   UNL     1       1.317  13.232  18.600  0.00  0.00    +0.000 A 
ATOM     28  C   UNL     1       2.625  13.102  18.141  0.00  0.00    +0.000 A 
ATOM     29  C   UNL     1       3.529  14.149  18.318  0.00  0.00    +0.000 A 
ATOM     30  C   UNL     1       3.144  15.334  18.959  0.00  0.00    +0.000 A 
ATOM     31  C   UNL     1       1.839  15.438  19.453  0.00  0.00    +0.000 A 
BRANCH  30  32
ATOM     32  O   UNL     1       4.158  16.244  19.090  0.00  0.00    +0.000 OA
ATOM     33  C   UNL     1       5.479  15.776  18.866  0.00  0.00    +0.000 C 
ENDBRANCH  30  32
BRANCH  31  34
ATOM     34  O   UNL     1       1.425  16.502  20.206  0.00  0.00    +0.000 OA
ATOM     35  H   UNL     1       2.136  17.160  20.189  0.00  0.00    +0.000 HD
ENDBRANCH  31  34
ENDBRANCH  25  26
ENDBRANCH  23  25
ENDBRANCH   2  19
TORSDOF 8
ENDMDL
