MODEL 1
REMARK VINA RESULT:      -8.0      0.000      0.000
REMARK  Name = 
REMARK  4 active torsions:
REMARK  status: ('A' for Active; 'I' for Inactive)
REMARK    1  A    between atoms: C_1  and  O_2
REMARK    2  A    between atoms: O_2  and  C_3
REMARK    3  A    between atoms: C_3  and  C_5
REMARK    4  A    between atoms: C_10  and  N_11
REMARK                            x       y       z     vdW  Elec       q    Type
REMARK                         _______ _______ _______ _____ _____    ______ ____
ROOT
ATOM      1  N   UNL     1       4.309   4.042  18.533  0.00  0.00    +0.000 N 
ATOM      2  C   UNL     1       4.021   3.666  17.245  0.00  0.00    +0.000 C 
ATOM      3  O   UNL     1       2.974   3.197  16.819  0.00  0.00    +0.000 OA
ATOM      4  C   UNL     1       5.229   3.918  16.407  0.00  0.00    +0.000 C 
ATOM      5  C   UNL     1       6.330   4.361  17.402  0.00  0.00    +0.000 C 
ATOM      6  C   UNL     1       5.536   4.656  18.663  0.00  0.00    +0.000 C 
ATOM      7  O   UNL     1       5.919   5.368  19.580  0.00  0.00    +0.000 OA
ATOM      8  C   UNL     1       6.946   5.588  16.700  0.00  0.00    +0.000 C 
ATOM      9  C   UNL     1       7.449   5.169  15.319  0.00  0.00    +0.000 C 
ATOM     10  C   UNL     1       6.372   4.936  14.546  0.00  0.00    +0.000 C 
ATOM     11  C   UNL     1       5.158   5.114  15.427  0.00  0.00    +0.000 C 
ATOM     12  C   UNL     1       5.678   6.316  16.233  0.00  0.00    +0.000 C 
ENDROOT
BRANCH   1  18
ATOM     13  C   UNL     1       3.457   2.700  20.412  0.00  0.00    +0.000 A 
ATOM     14  C   UNL     1       2.472   2.509  21.399  0.00  0.00    +0.000 A 
ATOM     15  C   UNL     1       1.426   3.420  21.544  0.00  0.00    +0.000 A 
ATOM     16  C   UNL     1       1.352   4.530  20.707  0.00  0.00    +0.000 A 
ATOM     17  C   UNL     1       2.333   4.745  19.735  0.00  0.00    +0.000 A 
ATOM     18  C   UNL     1       3.401   3.847  19.590  0.00  0.00    +0.000 A 
BRANCH  13  19
ATOM     19  C   UNL     1       4.511   1.663  20.212  0.00  0.00    +0.000 C 
ATOM     20  O   UNL     1       4.543   0.884  19.275  0.00  0.00    +0.000 OA
BRANCH  19  22
ATOM     21  C   UNL     1       5.741   0.411  21.766  0.00  0.00    +0.000 C 
ATOM     22  O   UNL     1       5.394   1.693  21.242  0.00  0.00    +0.000 OA
ENDBRANCH  19  22
ENDBRANCH  13  19
ENDBRANCH   1  18
TORSDOF 3
ENDMDL
MODEL 2
REMARK VINA RESULT:      -8.0      1.735      5.810
REMARK  Name = 
REMARK  4 active torsions:
REMARK  status: ('A' for Active; 'I' for Inactive)
REMARK    1  A    between atoms: C_1  and  O_2
REMARK    2  A    between atoms: O_2  and  C_3
REMARK    3  A    between atoms: C_3  and  C_5
REMARK    4  A    between atoms: C_10  and  N_11
REMARK                            x       y       z     vdW  Elec       q    Type
REMARK                         _______ _______ _______ _____ _____    ______ ____
ROOT
ATOM      1  N   UNL     1       4.402   4.122  17.473  0.00  0.00    +0.000 N 
ATOM      2  C   UNL     1       3.690   5.183  17.977  0.00  0.00    +0.000 C 
ATOM      3  O   UNL     1       3.632   6.322  17.533  0.00  0.00    +0.000 OA
ATOM      4  C   UNL     1       2.975   4.723  19.201  0.00  0.00    +0.000 C 
ATOM      5  C   UNL     1       3.472   3.277  19.445  0.00  0.00    +0.000 C 
ATOM      6  C   UNL     1       4.155   2.937  18.131  0.00  0.00    +0.000 C 
ATOM      7  O   UNL     1       4.371   1.803  17.729  0.00  0.00    +0.000 OA
ATOM      8  C   UNL     1       2.163   2.514  19.734  0.00  0.00    +0.000 C 
ATOM      9  C   UNL     1       1.460   3.168  20.922  0.00  0.00    +0.000 C 
ATOM     10  C   UNL     1       0.985   4.358  20.511  0.00  0.00    +0.000 C 
ATOM     11  C   UNL     1       1.442   4.538  19.083  0.00  0.00    +0.000 C 
ATOM     12  C   UNL     1       1.255   3.079  18.634  0.00  0.00    +0.000 C 
ENDROOT
BRANCH   1  18
ATOM     13  C   UNL     1       6.571   4.753  16.499  0.00  0.00    +0.000 A 
ATOM     14  C   UNL     1       7.357   4.949  15.347  0.00  0.00    +0.000 A 
ATOM     15  C   UNL     1       6.835   4.690  14.080  0.00  0.00    +0.000 A 
ATOM     16  C   UNL     1       5.527   4.233  13.948  0.00  0.00    +0.000 A 
ATOM     17  C   UNL     1       4.740   4.015  15.083  0.00  0.00    +0.000 A 
ATOM     18  C   UNL     1       5.257   4.254  16.364  0.00  0.00    +0.000 A 
BRANCH  13  19
ATOM     19  C   UNL     1       7.117   5.129  17.835  0.00  0.00    +0.000 C 
ATOM     20  O   UNL     1       7.752   4.381  18.558  0.00  0.00    +0.000 OA
BRANCH  19  22
ATOM     21  C   UNL     1       7.798   7.371  17.930  0.00  0.00    +0.000 C 
ATOM     22  O   UNL     1       6.766   6.406  18.138  0.00  0.00    +0.000 OA
ENDBRANCH  19  22
ENDBRANCH  13  19
ENDBRANCH   1  18
TORSDOF 3
ENDMDL
MODEL 3
REMARK VINA RESULT:      -7.8      1.404      2.999
REMARK  Name = 
REMARK  4 active torsions:
REMARK  status: ('A' for Active; 'I' for Inactive)
REMARK    1  A    between atoms: C_1  and  O_2
REMARK    2  A    between atoms: O_2  and  C_3
REMARK    3  A    between atoms: C_3  and  C_5
REMARK    4  A    between atoms: C_10  and  N_11
REMARK                            x       y       z     vdW  Elec       q    Type
REMARK                         _______ _______ _______ _____ _____    ______ ____
ROOT
ATOM      1  N   UNL     1       4.339   3.945  18.484  0.00  0.00    +0.000 N 
ATOM      2  C   UNL     1       4.080   3.562  17.191  0.00  0.00    +0.000 C 
ATOM      3  O   UNL     1       3.053   3.064  16.752  0.00  0.00    +0.000 OA
ATOM      4  C   UNL     1       5.291   3.848  16.370  0.00  0.00    +0.000 C 
ATOM      5  C   UNL     1       6.366   4.322  17.379  0.00  0.00    +0.000 C 
ATOM      6  C   UNL     1       5.547   4.594  18.630  0.00  0.00    +0.000 C 
ATOM      7  O   UNL     1       5.897   5.317  19.552  0.00  0.00    +0.000 OA
ATOM      8  C   UNL     1       6.955   5.567  16.685  0.00  0.00    +0.000 C 
ATOM      9  C   UNL     1       7.489   5.163  15.312  0.00  0.00    +0.000 C 
ATOM     10  C   UNL     1       6.430   4.899  14.524  0.00  0.00    +0.000 C 
ATOM     11  C   UNL     1       5.199   5.042  15.389  0.00  0.00    +0.000 C 
ATOM     12  C   UNL     1       5.674   6.258  16.202  0.00  0.00    +0.000 C 
ENDROOT
BRANCH   1  18
ATOM     13  C   UNL     1       2.442   4.685  19.866  0.00  0.00    +0.000 A 
ATOM     14  C   UNL     1       1.606   4.457  20.974  0.00  0.00    +0.000 A 
ATOM     15  C   UNL     1       1.764   3.315  21.760  0.00  0.00    +0.000 A 
ATOM     16  C   UNL     1       2.756   2.389  21.446  0.00  0.00    +0.000 A 
ATOM     17  C   UNL     1       3.582   2.591  20.337  0.00  0.00    +0.000 A 
ATOM     18  C   UNL     1       3.423   3.725  19.528  0.00  0.00    +0.000 A 
BRANCH  13  19
ATOM     19  C   UNL     1       2.320   5.959  19.100  0.00  0.00    +0.000 C 
ATOM     20  O   UNL     1       1.943   6.037  17.943  0.00  0.00    +0.000 OA
BRANCH  19  22
ATOM     21  C   UNL     1       1.758   8.043  20.016  0.00  0.00    +0.000 C 
ATOM     22  O   UNL     1       2.725   7.003  19.867  0.00  0.00    +0.000 OA
ENDBRANCH  19  22
ENDBRANCH  13  19
ENDBRANCH   1  18
TORSDOF 3
ENDMDL
MODEL 4
REMARK VINA RESULT:      -7.7      1.729      5.658
REMARK  Name = 
REMARK  4 active torsions:
REMARK  status: ('A' for Active; 'I' for Inactive)
REMARK    1  A    between atoms: C_1  and  O_2
REMARK    2  A    between atoms: O_2  and  C_3
REMARK    3  A    between atoms: C_3  and  C_5
REMARK    4  A    between atoms: C_10  and  N_11
REMARK                            x       y       z     vdW  Elec       q    Type
REMARK                         _______ _______ _______ _____ _____    ______ ____
ROOT
ATOM      1  N   UNL     1       3.957   4.070  17.170  0.00  0.00    +0.000 N 
ATOM      2  C   UNL     1       3.621   2.860  17.723  0.00  0.00    +0.000 C 
ATOM      3  O   UNL     1       4.175   1.782  17.556  0.00  0.00    +0.000 OA
ATOM      4  C   UNL     1       2.423   3.062  18.588  0.00  0.00    +0.000 C 
ATOM      5  C   UNL     1       2.001   4.534  18.362  0.00  0.00    +0.000 C 
ATOM      6  C   UNL     1       3.213   5.122  17.659  0.00  0.00    +0.000 C 
ATOM      7  O   UNL     1       3.485   6.312  17.613  0.00  0.00    +0.000 OA
ATOM      8  C   UNL     1       1.754   5.039  19.799  0.00  0.00    +0.000 C 
ATOM      9  C   UNL     1       0.697   4.155  20.460  0.00  0.00    +0.000 C 
ATOM     10  C   UNL     1       1.259   2.955  20.696  0.00  0.00    +0.000 C 
ATOM     11  C   UNL     1       2.654   3.007  20.118  0.00  0.00    +0.000 C 
ATOM     12  C   UNL     1       2.976   4.457  20.520  0.00  0.00    +0.000 C 
ENDROOT
BRANCH   1  18
ATOM     13  C   UNL     1       6.269   4.692  16.600  0.00  0.00    +0.000 A 
ATOM     14  C   UNL     1       7.248   4.887  15.608  0.00  0.00    +0.000 A 
ATOM     15  C   UNL     1       6.959   4.637  14.267  0.00  0.00    +0.000 A 
ATOM     16  C   UNL     1       5.693   4.188  13.902  0.00  0.00    +0.000 A 
ATOM     17  C   UNL     1       4.716   3.970  14.877  0.00  0.00    +0.000 A 
ATOM     18  C   UNL     1       4.997   4.201  16.231  0.00  0.00    +0.000 A 
BRANCH  13  19
ATOM     19  C   UNL     1       6.569   5.060  18.014  0.00  0.00    +0.000 C 
ATOM     20  O   UNL     1       6.553   4.279  18.950  0.00  0.00    +0.000 OA
BRANCH  19  22
ATOM     21  C   UNL     1       8.061   6.721  18.731  0.00  0.00    +0.000 C 
ATOM     22  O   UNL     1       6.821   6.391  18.105  0.00  0.00    +0.000 OA
ENDBRANCH  19  22
ENDBRANCH  13  19
ENDBRANCH   1  18
TORSDOF 3
ENDMDL
MODEL 5
REMARK VINA RESULT:      -7.5      1.672      6.131
REMARK  Name = 
REMARK  4 active torsions:
REMARK  status: ('A' for Active; 'I' for Inactive)
REMARK    1  A    between atoms: C_1  and  O_2
REMARK    2  A    between atoms: O_2  and  C_3
REMARK    3  A    between atoms: C_3  and  C_5
REMARK    4  A    between atoms: C_10  and  N_11
REMARK                            x       y       z     vdW  Elec       q    Type
REMARK                         _______ _______ _______ _____ _____    ______ ____
ROOT
ATOM      1  N   UNL     1       4.110   3.815  17.802  0.00  0.00    +0.000 N 
ATOM      2  C   UNL     1       4.615   3.787  19.078  0.00  0.00    +0.000 C 
ATOM      3  O   UNL     1       5.715   4.169  19.455  0.00  0.00    +0.000 OA
ATOM      4  C   UNL     1       3.583   3.189  19.973  0.00  0.00    +0.000 C 
ATOM      5  C   UNL     1       2.444   2.728  19.031  0.00  0.00    +0.000 C 
ATOM      6  C   UNL     1       2.788   3.430  17.728  0.00  0.00    +0.000 C 
ATOM      7  O   UNL     1       1.996   3.656  16.825  0.00  0.00    +0.000 OA
ATOM      8  C   UNL     1       1.181   3.242  19.751  0.00  0.00    +0.000 C 
ATOM      9  C   UNL     1       1.137   2.650  21.160  0.00  0.00    +0.000 C 
ATOM     10  C   UNL     1       2.110   3.240  21.880  0.00  0.00    +0.000 C 
ATOM     11  C   UNL     1       2.854   4.157  20.937  0.00  0.00    +0.000 C 
ATOM     12  C   UNL     1       1.632   4.654  20.146  0.00  0.00    +0.000 C 
ENDROOT
BRANCH   1  18
ATOM     13  C   UNL     1       5.090   5.615  16.441  0.00  0.00    +0.000 A 
ATOM     14  C   UNL     1       5.789   5.996  15.281  0.00  0.00    +0.000 A 
ATOM     15  C   UNL     1       6.235   5.034  14.374  0.00  0.00    +0.000 A 
ATOM     16  C   UNL     1       5.990   3.685  14.616  0.00  0.00    +0.000 A 
ATOM     17  C   UNL     1       5.315   3.290  15.774  0.00  0.00    +0.000 A 
ATOM     18  C   UNL     1       4.876   4.244  16.703  0.00  0.00    +0.000 A 
BRANCH  13  19
ATOM     19  C   UNL     1       4.537   6.665  17.346  0.00  0.00    +0.000 C 
ATOM     20  O   UNL     1       5.200   7.312  18.139  0.00  0.00    +0.000 OA
BRANCH  19  22
ATOM     21  C   UNL     1       2.544   7.654  18.086  0.00  0.00    +0.000 C 
ATOM     22  O   UNL     1       3.193   6.760  17.180  0.00  0.00    +0.000 OA
ENDBRANCH  19  22
ENDBRANCH  13  19
ENDBRANCH   1  18
TORSDOF 3
ENDMDL
MODEL 6
REMARK VINA RESULT:      -7.5      2.151      5.823
REMARK  Name = 
REMARK  4 active torsions:
REMARK  status: ('A' for Active; 'I' for Inactive)
REMARK    1  A    between atoms: C_1  and  O_2
REMARK    2  A    between atoms: O_2  and  C_3
REMARK    3  A    between atoms: C_3  and  C_5
REMARK    4  A    between atoms: C_10  and  N_11
REMARK                            x       y       z     vdW  Elec       q    Type
REMARK                         _______ _______ _______ _____ _____    ______ ____
ROOT
ATOM      1  N   UNL     1       4.326   4.975  18.522  0.00  0.00    +0.000 N 
ATOM      2  C   UNL     1       4.147   3.780  17.871  0.00  0.00    +0.000 C 
ATOM      3  O   UNL     1       4.984   3.130  17.259  0.00  0.00    +0.000 OA
ATOM      4  C   UNL     1       2.718   3.380  18.019  0.00  0.00    +0.000 C 
ATOM      5  C   UNL     1       2.032   4.574  18.726  0.00  0.00    +0.000 C 
ATOM      6  C   UNL     1       3.215   5.387  19.225  0.00  0.00    +0.000 C 
ATOM      7  O   UNL     1       3.169   6.203  20.135  0.00  0.00    +0.000 OA
ATOM      8  C   UNL     1       1.191   3.882  19.818  0.00  0.00    +0.000 C 
ATOM      9  C   UNL     1       0.240   2.886  19.155  0.00  0.00    +0.000 C 
ATOM     10  C   UNL     1       0.979   1.858  18.700  0.00  0.00    +0.000 C 
ATOM     11  C   UNL     1       2.423   2.202  18.980  0.00  0.00    +0.000 C 
ATOM     12  C   UNL     1       2.202   2.860  20.352  0.00  0.00    +0.000 C 
ENDROOT
BRANCH   1  18
ATOM     13  C   UNL     1       5.840   6.618  17.491  0.00  0.00    +0.000 A 
ATOM     14  C   UNL     1       7.113   7.219  17.455  0.00  0.00    +0.000 A 
ATOM     15  C   UNL     1       8.096   6.853  18.374  0.00  0.00    +0.000 A 
ATOM     16  C   UNL     1       7.820   5.888  19.339  0.00  0.00    +0.000 A 
ATOM     17  C   UNL     1       6.555   5.297  19.400  0.00  0.00    +0.000 A 
ATOM     18  C   UNL     1       5.551   5.667  18.494  0.00  0.00    +0.000 A 
BRANCH  13  19
ATOM     19  C   UNL     1       4.838   6.953  16.438  0.00  0.00    +0.000 C 
ATOM     20  O   UNL     1       3.702   7.337  16.662  0.00  0.00    +0.000 OA
BRANCH  19  22
ATOM     21  C   UNL     1       5.554   5.351  14.883  0.00  0.00    +0.000 C 
ATOM     22  O   UNL     1       5.364   6.729  15.207  0.00  0.00    +0.000 OA
ENDBRANCH  19  22
ENDBRANCH  13  19
ENDBRANCH   1  18
TORSDOF 3
ENDMDL
MODEL 7
REMARK VINA RESULT:      -7.4      1.950      5.801
REMARK  Name = 
REMARK  4 active torsions:
REMARK  status: ('A' for Active; 'I' for Inactive)
REMARK    1  A    between atoms: C_1  and  O_2
REMARK    2  A    between atoms: O_2  and  C_3
REMARK    3  A    between atoms: C_3  and  C_5
REMARK    4  A    between atoms: C_10  and  N_11
REMARK                            x       y       z     vdW  Elec       q    Type
REMARK                         _______ _______ _______ _____ _____    ______ ____
ROOT
ATOM      1  N   UNL     1       4.735   4.798  17.294  0.00  0.00    +0.000 N 
ATOM      2  C   UNL     1       4.167   5.990  17.669  0.00  0.00    +0.000 C 
ATOM      3  O   UNL     1       4.154   7.041  17.043  0.00  0.00    +0.000 OA
ATOM      4  C   UNL     1       3.548   5.807  19.013  0.00  0.00    +0.000 C 
ATOM      5  C   UNL     1       3.950   4.379  19.457  0.00  0.00    +0.000 C 
ATOM      6  C   UNL     1       4.464   3.764  18.165  0.00  0.00    +0.000 C 
ATOM      7  O   UNL     1       4.545   2.565  17.946  0.00  0.00    +0.000 OA
ATOM      8  C   UNL     1       2.622   3.803  19.987  0.00  0.00    +0.000 C 
ATOM      9  C   UNL     1       2.100   4.706  21.104  0.00  0.00    +0.000 C 
ATOM     10  C   UNL     1       1.682   5.854  20.538  0.00  0.00    +0.000 C 
ATOM     11  C   UNL     1       2.001   5.754  19.065  0.00  0.00    +0.000 C 
ATOM     12  C   UNL     1       1.653   4.266  18.892  0.00  0.00    +0.000 C 
ENDROOT
BRANCH   1  18
ATOM     13  C   UNL     1       6.756   5.247  15.965  0.00  0.00    +0.000 A 
ATOM     14  C   UNL     1       7.422   5.159  14.728  0.00  0.00    +0.000 A 
ATOM     15  C   UNL     1       6.814   4.536  13.638  0.00  0.00    +0.000 A 
ATOM     16  C   UNL     1       5.539   3.994  13.771  0.00  0.00    +0.000 A 
ATOM     17  C   UNL     1       4.873   4.055  14.998  0.00  0.00    +0.000 A 
ATOM     18  C   UNL     1       5.478   4.663  16.107  0.00  0.00    +0.000 A 
BRANCH  13  19
ATOM     19  C   UNL     1       7.384   6.004  17.087  0.00  0.00    +0.000 C 
ATOM     20  O   UNL     1       7.564   7.210  17.093  0.00  0.00    +0.000 OA
BRANCH  19  22
ATOM     21  C   UNL     1       7.670   5.686  19.393  0.00  0.00    +0.000 C 
ATOM     22  O   UNL     1       7.757   5.148  18.073  0.00  0.00    +0.000 OA
ENDBRANCH  19  22
ENDBRANCH  13  19
ENDBRANCH   1  18
TORSDOF 3
ENDMDL
MODEL 8
REMARK VINA RESULT:      -7.3      1.662      6.038
REMARK  Name = 
REMARK  4 active torsions:
REMARK  status: ('A' for Active; 'I' for Inactive)
REMARK    1  A    between atoms: C_1  and  O_2
REMARK    2  A    between atoms: O_2  and  C_3
REMARK    3  A    between atoms: C_3  and  C_5
REMARK    4  A    between atoms: C_10  and  N_11
REMARK                            x       y       z     vdW  Elec       q    Type
REMARK                         _______ _______ _______ _____ _____    ______ ____
ROOT
ATOM      1  N   UNL     1       4.168   3.774  17.687  0.00  0.00    +0.000 N 
ATOM      2  C   UNL     1       4.674   3.723  18.962  0.00  0.00    +0.000 C 
ATOM      3  O   UNL     1       5.792   4.049  19.335  0.00  0.00    +0.000 OA
ATOM      4  C   UNL     1       3.615   3.181  19.861  0.00  0.00    +0.000 C 
ATOM      5  C   UNL     1       2.451   2.777  18.922  0.00  0.00    +0.000 C 
ATOM      6  C   UNL     1       2.828   3.457  17.617  0.00  0.00    +0.000 C 
ATOM      7  O   UNL     1       2.046   3.721  16.715  0.00  0.00    +0.000 OA
ATOM      8  C   UNL     1       1.218   3.357  19.644  0.00  0.00    +0.000 C 
ATOM      9  C   UNL     1       1.148   2.772  21.054  0.00  0.00    +0.000 C 
ATOM     10  C   UNL     1       2.151   3.312  21.770  0.00  0.00    +0.000 C 
ATOM     11  C   UNL     1       2.938   4.187  20.824  0.00  0.00    +0.000 C 
ATOM     12  C   UNL     1       1.742   4.744  20.034  0.00  0.00    +0.000 C 
ENDROOT
BRANCH   1  18
ATOM     13  C   UNL     1       5.216   5.520  16.305  0.00  0.00    +0.000 A 
ATOM     14  C   UNL     1       5.932   5.859  15.142  0.00  0.00    +0.000 A 
ATOM     15  C   UNL     1       6.346   4.870  14.250  0.00  0.00    +0.000 A 
ATOM     16  C   UNL     1       6.052   3.534  14.509  0.00  0.00    +0.000 A 
ATOM     17  C   UNL     1       5.360   3.179  15.670  0.00  0.00    +0.000 A 
ATOM     18  C   UNL     1       4.952   4.160  16.585  0.00  0.00    +0.000 A 
BRANCH  13  19
ATOM     19  C   UNL     1       4.698   6.601  17.194  0.00  0.00    +0.000 C 
ATOM     20  O   UNL     1       3.537   6.707  17.549  0.00  0.00    +0.000 OA
BRANCH  19  22
ATOM     21  C   UNL     1       6.924   6.834  17.894  0.00  0.00    +0.000 C 
ATOM     22  O   UNL     1       5.700   7.461  17.510  0.00  0.00    +0.000 OA
ENDBRANCH  19  22
ENDBRANCH  13  19
ENDBRANCH   1  18
TORSDOF 3
ENDMDL
MODEL 9
REMARK VINA RESULT:      -7.2      2.195      5.782
REMARK  Name = 
REMARK  4 active torsions:
REMARK  status: ('A' for Active; 'I' for Inactive)
REMARK    1  A    between atoms: C_1  and  O_2
REMARK    2  A    between atoms: O_2  and  C_3
REMARK    3  A    between atoms: C_3  and  C_5
REMARK    4  A    between atoms: C_10  and  N_11
REMARK                            x       y       z     vdW  Elec       q    Type
REMARK                         _______ _______ _______ _____ _____    ______ ____
ROOT
ATOM      1  N   UNL     1       4.752   4.823  18.743  0.00  0.00    +0.000 N 
ATOM      2  C   UNL     1       3.688   5.127  19.554  0.00  0.00    +0.000 C 
ATOM      3  O   UNL     1       3.497   6.161  20.181  0.00  0.00    +0.000 OA
ATOM      4  C   UNL     1       2.763   3.958  19.565  0.00  0.00    +0.000 C 
ATOM      5  C   UNL     1       3.493   2.853  18.763  0.00  0.00    +0.000 C 
ATOM      6  C   UNL     1       4.608   3.625  18.077  0.00  0.00    +0.000 C 
ATOM      7  O   UNL     1       5.203   3.253  17.076  0.00  0.00    +0.000 OA
ATOM      8  C   UNL     1       2.383   2.319  17.835  0.00  0.00    +0.000 C 
ATOM      9  C   UNL     1       1.213   1.835  18.689  0.00  0.00    +0.000 C 
ATOM     10  C   UNL     1       0.616   2.919  19.217  0.00  0.00    +0.000 C 
ATOM     11  C   UNL     1       1.432   4.116  18.789  0.00  0.00    +0.000 C 
ATOM     12  C   UNL     1       1.749   3.634  17.363  0.00  0.00    +0.000 C 
ENDROOT
BRANCH   1  18
ATOM     13  C   UNL     1       5.886   6.663  17.566  0.00  0.00    +0.000 A 
ATOM     14  C   UNL     1       7.042   7.448  17.400  0.00  0.00    +0.000 A 
ATOM     15  C   UNL     1       8.159   7.246  18.210  0.00  0.00    +0.000 A 
ATOM     16  C   UNL     1       8.133   6.261  19.195  0.00  0.00    +0.000 A 
ATOM     17  C   UNL     1       6.985   5.487  19.386  0.00  0.00    +0.000 A 
ATOM     18  C   UNL     1       5.849   5.691  18.590  0.00  0.00    +0.000 A 
BRANCH  13  19
ATOM     19  C   UNL     1       4.740   6.830  16.625  0.00  0.00    +0.000 C 
ATOM     20  O   UNL     1       3.581   6.984  16.968  0.00  0.00    +0.000 OA
BRANCH  19  22
ATOM     21  C   UNL     1       5.501   5.423  14.910  0.00  0.00    +0.000 C 
ATOM     22  O   UNL     1       5.178   6.746  15.342  0.00  0.00    +0.000 OA
ENDBRANCH  19  22
ENDBRANCH  13  19
ENDBRANCH   1  18
TORSDOF 3
ENDMDL
