MODEL 1
REMARK VINA RESULT:      -9.1      0.000      0.000
REMARK  Name = 
REMARK  4 active torsions:
REMARK  status: ('A' for Active; 'I' for Inactive)
REMARK    1  A    between atoms: C_1  and  N_2
REMARK    2  A    between atoms: C_8  and  N_9
REMARK    3  A    between atoms: C_13  and  C_14
REMARK    4  A    between atoms: C_18  and  C_19
REMARK                            x       y       z     vdW  Elec       q    Type
REMARK                         _______ _______ _______ _____ _____    ______ ____
ROOT
ATOM      1  N   UNL     1       9.062   8.746  19.059  0.00  0.00    +0.000 N 
ATOM      2  C   UNL     1       8.128   8.305  18.197  0.00  0.00    +0.000 A 
ATOM      3  N   UNL     1       7.484   8.885  17.205  0.00  0.00    +0.000 NA
ATOM      4  N   UNL     1       6.567   7.975  16.732  0.00  0.00    +0.000 NA
ATOM      5  C   UNL     1       6.712   6.893  17.466  0.00  0.00    +0.000 A 
ATOM      6  O   UNL     1       7.707   7.017  18.401  0.00  0.00    +0.000 OA
ATOM      7  H   UNL     1       9.335   8.099  19.786  0.00  0.00    +0.000 HD
ENDROOT
BRANCH   1  15
ATOM      8  C   UNL     1      10.966  15.595  17.068  0.00  0.00    +0.000 C 
ATOM      9  N   UNL     1      10.232  14.772  18.028  0.00  0.00    +0.000 NA
ATOM     10  C   UNL     1      10.700  15.021  19.399  0.00  0.00    +0.000 C 
ATOM     11  C   UNL     1       9.818  14.275  20.411  0.00  0.00    +0.000 C 
ATOM     12  C   UNL     1       9.684  12.814  20.070  0.00  0.00    +0.000 A 
ATOM     13  C   UNL     1       9.290  11.883  21.035  0.00  0.00    +0.000 A 
ATOM     14  C   UNL     1       9.119  10.539  20.690  0.00  0.00    +0.000 A 
ATOM     15  C   UNL     1       9.310  10.099  19.373  0.00  0.00    +0.000 A 
ATOM     16  C   UNL     1       9.733  11.039  18.427  0.00  0.00    +0.000 A 
ATOM     17  C   UNL     1       9.902  12.393  18.752  0.00  0.00    +0.000 A 
ATOM     18  C   UNL     1      10.388  13.347  17.684  0.00  0.00    +0.000 C 
ENDBRANCH   1  15
BRANCH   5  19
ATOM     19  C   UNL     1       5.973   5.651  17.429  0.00  0.00    +0.000 A 
ATOM     20  C   UNL     1       6.157   4.700  16.437  0.00  0.00    +0.000 A 
ATOM     21  N   UNL     1       5.473   3.535  16.371  0.00  0.00    +0.000 NA
ATOM     22  C   UNL     1       4.558   3.309  17.346  0.00  0.00    +0.000 A 
ATOM     23  C   UNL     1       4.284   4.173  18.410  0.00  0.00    +0.000 A 
ATOM     24  C   UNL     1       5.029   5.364  18.426  0.00  0.00    +0.000 A 
BRANCH  23  25
ATOM     25  C   UNL     1       3.281   3.866  19.447  0.00  0.00    +0.000 A 
ATOM     26  C   UNL     1       2.030   4.503  19.492  0.00  0.00    +0.000 A 
ATOM     27  C   UNL     1       1.105   4.194  20.490  0.00  0.00    +0.000 A 
ATOM     28  C   UNL     1       1.446   3.237  21.426  0.00  0.00    +0.000 A 
ATOM     29  N   UNL     1       2.629   2.591  21.432  0.00  0.00    +0.000 NA
ATOM     30  C   UNL     1       3.509   2.924  20.454  0.00  0.00    +0.000 A 
ENDBRANCH  23  25
ENDBRANCH   5  19
TORSDOF 3
ENDMDL
MODEL 2
REMARK VINA RESULT:      -9.0      1.866      2.204
REMARK  Name = 
REMARK  4 active torsions:
REMARK  status: ('A' for Active; 'I' for Inactive)
REMARK    1  A    between atoms: C_1  and  N_2
REMARK    2  A    between atoms: C_8  and  N_9
REMARK    3  A    between atoms: C_13  and  C_14
REMARK    4  A    between atoms: C_18  and  C_19
REMARK                            x       y       z     vdW  Elec       q    Type
REMARK                         _______ _______ _______ _____ _____    ______ ____
ROOT
ATOM      1  N   UNL     1       8.062  10.459  17.702  0.00  0.00    +0.000 N 
ATOM      2  C   UNL     1       8.037   9.150  18.011  0.00  0.00    +0.000 A 
ATOM      3  N   UNL     1       8.698   8.429  18.893  0.00  0.00    +0.000 NA
ATOM      4  N   UNL     1       8.335   7.116  18.696  0.00  0.00    +0.000 NA
ATOM      5  C   UNL     1       7.472   7.121  17.704  0.00  0.00    +0.000 A 
ATOM      6  O   UNL     1       7.210   8.382  17.235  0.00  0.00    +0.000 OA
ATOM      7  H   UNL     1       7.495  10.739  16.913  0.00  0.00    +0.000 HD
ENDROOT
BRANCH   1  15
ATOM      8  C   UNL     1      10.958  17.249  17.771  0.00  0.00    +0.000 C 
ATOM      9  N   UNL     1      10.962  15.924  18.389  0.00  0.00    +0.000 NA
ATOM     10  C   UNL     1      12.306  15.331  18.355  0.00  0.00    +0.000 C 
ATOM     11  C   UNL     1      12.332  14.015  19.145  0.00  0.00    +0.000 C 
ATOM     12  C   UNL     1      11.241  13.073  18.708  0.00  0.00    +0.000 A 
ATOM     13  C   UNL     1      11.319  11.705  18.980  0.00  0.00    +0.000 A 
ATOM     14  C   UNL     1      10.274  10.852  18.613  0.00  0.00    +0.000 A 
ATOM     15  C   UNL     1       9.118  11.348  17.994  0.00  0.00    +0.000 A 
ATOM     16  C   UNL     1       9.070  12.715  17.702  0.00  0.00    +0.000 A 
ATOM     17  C   UNL     1      10.106  13.587  18.070  0.00  0.00    +0.000 A 
ATOM     18  C   UNL     1       9.997  15.050  17.697  0.00  0.00    +0.000 C 
ENDBRANCH   1  15
BRANCH   5  19
ATOM     19  C   UNL     1       6.809   6.010  17.057  0.00  0.00    +0.000 A 
ATOM     20  C   UNL     1       7.316   5.394  15.923  0.00  0.00    +0.000 A 
ATOM     21  N   UNL     1       6.714   4.362  15.291  0.00  0.00    +0.000 NA
ATOM     22  C   UNL     1       5.544   3.922  15.819  0.00  0.00    +0.000 A 
ATOM     23  C   UNL     1       4.931   4.441  16.963  0.00  0.00    +0.000 A 
ATOM     24  C   UNL     1       5.606   5.509  17.577  0.00  0.00    +0.000 A 
BRANCH  23  25
ATOM     25  C   UNL     1       3.661   3.912  17.494  0.00  0.00    +0.000 A 
ATOM     26  C   UNL     1       3.356   2.541  17.483  0.00  0.00    +0.000 A 
ATOM     27  C   UNL     1       2.142   2.073  17.989  0.00  0.00    +0.000 A 
ATOM     28  C   UNL     1       1.252   2.993  18.511  0.00  0.00    +0.000 A 
ATOM     29  N   UNL     1       1.491   4.318  18.550  0.00  0.00    +0.000 NA
ATOM     30  C   UNL     1       2.676   4.739  18.041  0.00  0.00    +0.000 A 
ENDBRANCH  23  25
ENDBRANCH   5  19
TORSDOF 3
ENDMDL
MODEL 3
REMARK VINA RESULT:      -9.0      1.966      9.993
REMARK  Name = 
REMARK  4 active torsions:
REMARK  status: ('A' for Active; 'I' for Inactive)
REMARK    1  A    between atoms: C_1  and  N_2
REMARK    2  A    between atoms: C_8  and  N_9
REMARK    3  A    between atoms: C_13  and  C_14
REMARK    4  A    between atoms: C_18  and  C_19
REMARK                            x       y       z     vdW  Elec       q    Type
REMARK                         _______ _______ _______ _____ _____    ______ ____
ROOT
ATOM      1  N   UNL     1       6.433   7.391  16.706  0.00  0.00    +0.000 N 
ATOM      2  C   UNL     1       7.404   7.780  17.553  0.00  0.00    +0.000 A 
ATOM      3  N   UNL     1       8.058   7.153  18.509  0.00  0.00    +0.000 NA
ATOM      4  N   UNL     1       8.875   8.080  19.114  0.00  0.00    +0.000 NA
ATOM      5  C   UNL     1       8.667   9.217  18.486  0.00  0.00    +0.000 A 
ATOM      6  O   UNL     1       7.765   9.098  17.461  0.00  0.00    +0.000 OA
ATOM      7  H   UNL     1       6.047   8.112  16.112  0.00  0.00    +0.000 HD
ENDROOT
BRANCH   1  15
ATOM      8  C   UNL     1       0.930   4.033  20.304  0.00  0.00    +0.000 C 
ATOM      9  N   UNL     1       1.664   4.145  19.044  0.00  0.00    +0.000 NA
ATOM     10  C   UNL     1       2.218   2.845  18.640  0.00  0.00    +0.000 C 
ATOM     11  C   UNL     1       2.846   2.940  17.243  0.00  0.00    +0.000 C 
ATOM     12  C   UNL     1       3.829   4.077  17.143  0.00  0.00    +0.000 A 
ATOM     13  C   UNL     1       4.798   4.105  16.137  0.00  0.00    +0.000 A 
ATOM     14  C   UNL     1       5.670   5.193  16.027  0.00  0.00    +0.000 A 
ATOM     15  C   UNL     1       5.576   6.287  16.898  0.00  0.00    +0.000 A 
ATOM     16  C   UNL     1       4.619   6.229  17.917  0.00  0.00    +0.000 A 
ATOM     17  C   UNL     1       3.731   5.149  18.038  0.00  0.00    +0.000 A 
ATOM     18  C   UNL     1       2.741   5.141  19.183  0.00  0.00    +0.000 C 
ENDBRANCH   1  15
BRANCH   5  19
ATOM     19  C   UNL     1       9.228  10.525  18.742  0.00  0.00    +0.000 A 
ATOM     20  C   UNL     1      10.026  11.190  17.823  0.00  0.00    +0.000 A 
ATOM     21  N   UNL     1      10.572  12.408  18.039  0.00  0.00    +0.000 NA
ATOM     22  C   UNL     1      10.309  12.991  19.235  0.00  0.00    +0.000 A 
ATOM     23  C   UNL     1       9.512  12.440  20.242  0.00  0.00    +0.000 A 
ATOM     24  C   UNL     1       8.969  11.176  19.958  0.00  0.00    +0.000 A 
BRANCH  23  25
ATOM     25  C   UNL     1       9.255  13.130  21.521  0.00  0.00    +0.000 A 
ATOM     26  C   UNL     1       9.703  14.437  21.771  0.00  0.00    +0.000 A 
ATOM     27  C   UNL     1       9.448  15.060  22.994  0.00  0.00    +0.000 A 
ATOM     28  C   UNL     1       8.735  14.361  23.948  0.00  0.00    +0.000 A 
ATOM     29  N   UNL     1       8.278  13.107  23.764  0.00  0.00    +0.000 NA
ATOM     30  C   UNL     1       8.553  12.528  22.568  0.00  0.00    +0.000 A 
ENDBRANCH  23  25
ENDBRANCH   5  19
TORSDOF 3
ENDMDL
MODEL 4
REMARK VINA RESULT:      -8.9      5.965      8.750
REMARK  Name = 
REMARK  4 active torsions:
REMARK  status: ('A' for Active; 'I' for Inactive)
REMARK    1  A    between atoms: C_1  and  N_2
REMARK    2  A    between atoms: C_8  and  N_9
REMARK    3  A    between atoms: C_13  and  C_14
REMARK    4  A    between atoms: C_18  and  C_19
REMARK                            x       y       z     vdW  Elec       q    Type
REMARK                         _______ _______ _______ _____ _____    ______ ____
ROOT
ATOM      1  N   UNL     1       1.527   8.914  17.696  0.00  0.00    +0.000 N 
ATOM      2  C   UNL     1       2.196   7.870  18.221  0.00  0.00    +0.000 A 
ATOM      3  N   UNL     1       2.068   7.206  19.351  0.00  0.00    +0.000 NA
ATOM      4  N   UNL     1       3.096   6.293  19.401  0.00  0.00    +0.000 NA
ATOM      5  C   UNL     1       3.787   6.458  18.294  0.00  0.00    +0.000 A 
ATOM      6  O   UNL     1       3.257   7.425  17.479  0.00  0.00    +0.000 OA
ATOM      7  H   UNL     1       1.891   9.283  16.829  0.00  0.00    +0.000 HD
ENDROOT
BRANCH   1  15
ATOM      8  C   UNL     1      -4.849  12.427  18.920  0.00  0.00    +0.000 C 
ATOM      9  N   UNL     1      -3.600  11.944  19.507  0.00  0.00    +0.000 NA
ATOM     10  C   UNL     1      -2.853  13.043  20.133  0.00  0.00    +0.000 C 
ATOM     11  C   UNL     1      -1.627  12.501  20.882  0.00  0.00    +0.000 C 
ATOM     12  C   UNL     1      -0.782  11.611  20.009  0.00  0.00    +0.000 A 
ATOM     13  C   UNL     1       0.552  11.347  20.328  0.00  0.00    +0.000 A 
ATOM     14  C   UNL     1       1.309  10.478  19.536  0.00  0.00    +0.000 A 
ATOM     15  C   UNL     1       0.744   9.833  18.426  0.00  0.00    +0.000 A 
ATOM     16  C   UNL     1      -0.584  10.132  18.104  0.00  0.00    +0.000 A 
ATOM     17  C   UNL     1      -1.360  10.995  18.892  0.00  0.00    +0.000 A 
ATOM     18  C   UNL     1      -2.782  11.294  18.467  0.00  0.00    +0.000 C 
ENDBRANCH   1  15
BRANCH   5  19
ATOM     19  C   UNL     1       4.994   5.793  17.855  0.00  0.00    +0.000 A 
ATOM     20  C   UNL     1       5.984   5.383  18.736  0.00  0.00    +0.000 A 
ATOM     21  N   UNL     1       7.127   4.770  18.355  0.00  0.00    +0.000 NA
ATOM     22  C   UNL     1       7.290   4.555  17.025  0.00  0.00    +0.000 A 
ATOM     23  C   UNL     1       6.368   4.903  16.034  0.00  0.00    +0.000 A 
ATOM     24  C   UNL     1       5.199   5.533  16.492  0.00  0.00    +0.000 A 
BRANCH  23  25
ATOM     25  C   UNL     1       6.600   4.635  14.602  0.00  0.00    +0.000 A 
ATOM     26  C   UNL     1       5.828   3.710  13.879  0.00  0.00    +0.000 A 
ATOM     27  C   UNL     1       6.076   3.475  12.526  0.00  0.00    +0.000 A 
ATOM     28  C   UNL     1       7.093   4.182  11.913  0.00  0.00    +0.000 A 
ATOM     29  N   UNL     1       7.863   5.082  12.555  0.00  0.00    +0.000 NA
ATOM     30  C   UNL     1       7.602   5.279  13.872  0.00  0.00    +0.000 A 
ENDBRANCH  23  25
ENDBRANCH   5  19
TORSDOF 3
ENDMDL
MODEL 5
REMARK VINA RESULT:      -8.9      5.895      7.316
REMARK  Name = 
REMARK  4 active torsions:
REMARK  status: ('A' for Active; 'I' for Inactive)
REMARK    1  A    between atoms: C_1  and  N_2
REMARK    2  A    between atoms: C_8  and  N_9
REMARK    3  A    between atoms: C_13  and  C_14
REMARK    4  A    between atoms: C_18  and  C_19
REMARK                            x       y       z     vdW  Elec       q    Type
REMARK                         _______ _______ _______ _____ _____    ______ ____
ROOT
ATOM      1  N   UNL     1       0.940  10.254  18.127  0.00  0.00    +0.000 N 
ATOM      2  C   UNL     1       1.275   9.224  18.926  0.00  0.00    +0.000 A 
ATOM      3  N   UNL     1       1.116   9.007  20.216  0.00  0.00    +0.000 NA
ATOM      4  N   UNL     1       1.746   7.819  20.506  0.00  0.00    +0.000 NA
ATOM      5  C   UNL     1       2.250   7.385  19.372  0.00  0.00    +0.000 A 
ATOM      6  O   UNL     1       1.966   8.212  18.316  0.00  0.00    +0.000 OA
ATOM      7  H   UNL     1       1.257  10.192  17.169  0.00  0.00    +0.000 HD
ENDROOT
BRANCH   1  15
ATOM      8  C   UNL     1       3.169  17.097  19.767  0.00  0.00    +0.000 C 
ATOM      9  N   UNL     1       2.055  16.259  19.327  0.00  0.00    +0.000 NA
ATOM     10  C   UNL     1       0.903  16.398  20.229  0.00  0.00    +0.000 C 
ATOM     11  C   UNL     1      -0.310  15.641  19.670  0.00  0.00    +0.000 C 
ATOM     12  C   UNL     1       0.026  14.213  19.330  0.00  0.00    +0.000 A 
ATOM     13  C   UNL     1      -0.976  13.248  19.203  0.00  0.00    +0.000 A 
ATOM     14  C   UNL     1      -0.653  11.938  18.836  0.00  0.00    +0.000 A 
ATOM     15  C   UNL     1       0.671  11.569  18.558  0.00  0.00    +0.000 A 
ATOM     16  C   UNL     1       1.665  12.541  18.719  0.00  0.00    +0.000 A 
ATOM     17  C   UNL     1       1.358  13.861  19.080  0.00  0.00    +0.000 A 
ATOM     18  C   UNL     1       2.488  14.851  19.261  0.00  0.00    +0.000 C 
ENDBRANCH   1  15
BRANCH   5  19
ATOM     19  C   UNL     1       3.049   6.208  19.111  0.00  0.00    +0.000 A 
ATOM     20  C   UNL     1       3.060   5.109  19.956  0.00  0.00    +0.000 A 
ATOM     21  N   UNL     1       3.804   4.001  19.745  0.00  0.00    +0.000 NA
ATOM     22  C   UNL     1       4.579   3.990  18.631  0.00  0.00    +0.000 A 
ATOM     23  C   UNL     1       4.652   5.020  17.690  0.00  0.00    +0.000 A 
ATOM     24  C   UNL     1       3.852   6.143  17.963  0.00  0.00    +0.000 A 
BRANCH  23  25
ATOM     25  C   UNL     1       5.508   4.945  16.492  0.00  0.00    +0.000 A 
ATOM     26  C   UNL     1       5.187   4.136  15.390  0.00  0.00    +0.000 A 
ATOM     27  C   UNL     1       6.021   4.083  14.272  0.00  0.00    +0.000 A 
ATOM     28  C   UNL     1       7.167   4.856  14.274  0.00  0.00    +0.000 A 
ATOM     29  N   UNL     1       7.525   5.652  15.300  0.00  0.00    +0.000 NA
ATOM     30  C   UNL     1       6.697   5.671  16.374  0.00  0.00    +0.000 A 
ENDBRANCH  23  25
ENDBRANCH   5  19
TORSDOF 3
ENDMDL
MODEL 6
REMARK VINA RESULT:      -8.9      5.812      7.906
REMARK  Name = 
REMARK  4 active torsions:
REMARK  status: ('A' for Active; 'I' for Inactive)
REMARK    1  A    between atoms: C_1  and  N_2
REMARK    2  A    between atoms: C_8  and  N_9
REMARK    3  A    between atoms: C_13  and  C_14
REMARK    4  A    between atoms: C_18  and  C_19
REMARK                            x       y       z     vdW  Elec       q    Type
REMARK                         _______ _______ _______ _____ _____    ______ ____
ROOT
ATOM      1  N   UNL     1       1.632   9.114  17.631  0.00  0.00    +0.000 N 
ATOM      2  C   UNL     1       2.255   8.048  18.168  0.00  0.00    +0.000 A 
ATOM      3  N   UNL     1       2.096   7.400  19.303  0.00  0.00    +0.000 NA
ATOM      4  N   UNL     1       3.086   6.446  19.366  0.00  0.00    +0.000 NA
ATOM      5  C   UNL     1       3.786   6.572  18.260  0.00  0.00    +0.000 A 
ATOM      6  O   UNL     1       3.300   7.553  17.434  0.00  0.00    +0.000 OA
ATOM      7  H   UNL     1       2.014   9.459  16.762  0.00  0.00    +0.000 HD
ENDROOT
BRANCH   1  15
ATOM      8  C   UNL     1       1.238  15.093  21.943  0.00  0.00    +0.000 C 
ATOM      9  N   UNL     1       0.557  14.275  20.941  0.00  0.00    +0.000 NA
ATOM     10  C   UNL     1      -0.744  13.807  21.439  0.00  0.00    +0.000 C 
ATOM     11  C   UNL     1      -1.518  13.086  20.326  0.00  0.00    +0.000 C 
ATOM     12  C   UNL     1      -0.693  12.007  19.675  0.00  0.00    +0.000 A 
ATOM     13  C   UNL     1      -1.298  10.978  18.949  0.00  0.00    +0.000 A 
ATOM     14  C   UNL     1      -0.516  10.013  18.307  0.00  0.00    +0.000 A 
ATOM     15  C   UNL     1       0.885  10.070  18.350  0.00  0.00    +0.000 A 
ATOM     16  C   UNL     1       1.473  11.090  19.105  0.00  0.00    +0.000 A 
ATOM     17  C   UNL     1       0.704  12.071  19.750  0.00  0.00    +0.000 A 
ATOM     18  C   UNL     1       1.408  13.129  20.573  0.00  0.00    +0.000 C 
ENDBRANCH   1  15
BRANCH   5  19
ATOM     19  C   UNL     1       4.967   5.855  17.832  0.00  0.00    +0.000 A 
ATOM     20  C   UNL     1       5.932   5.405  18.721  0.00  0.00    +0.000 A 
ATOM     21  N   UNL     1       7.050   4.742  18.351  0.00  0.00    +0.000 NA
ATOM     22  C   UNL     1       7.213   4.516  17.023  0.00  0.00    +0.000 A 
ATOM     23  C   UNL     1       6.315   4.901  16.024  0.00  0.00    +0.000 A 
ATOM     24  C   UNL     1       5.171   5.582  16.471  0.00  0.00    +0.000 A 
BRANCH  23  25
ATOM     25  C   UNL     1       6.545   4.618  14.594  0.00  0.00    +0.000 A 
ATOM     26  C   UNL     1       5.771   3.689  13.880  0.00  0.00    +0.000 A 
ATOM     27  C   UNL     1       6.018   3.441  12.529  0.00  0.00    +0.000 A 
ATOM     28  C   UNL     1       7.036   4.140  11.910  0.00  0.00    +0.000 A 
ATOM     29  N   UNL     1       7.809   5.043  12.543  0.00  0.00    +0.000 NA
ATOM     30  C   UNL     1       7.549   5.253  13.858  0.00  0.00    +0.000 A 
ENDBRANCH  23  25
ENDBRANCH   5  19
TORSDOF 3
ENDMDL
MODEL 7
REMARK VINA RESULT:      -8.8      5.599      6.749
REMARK  Name = 
REMARK  4 active torsions:
REMARK  status: ('A' for Active; 'I' for Inactive)
REMARK    1  A    between atoms: C_1  and  N_2
REMARK    2  A    between atoms: C_8  and  N_9
REMARK    3  A    between atoms: C_13  and  C_14
REMARK    4  A    between atoms: C_18  and  C_19
REMARK                            x       y       z     vdW  Elec       q    Type
REMARK                         _______ _______ _______ _____ _____    ______ ____
ROOT
ATOM      1  N   UNL     1       2.031  11.618  17.760  0.00  0.00    +0.000 N 
ATOM      2  C   UNL     1       1.775  10.486  18.441  0.00  0.00    +0.000 A 
ATOM      3  N   UNL     1       1.063  10.236  19.520  0.00  0.00    +0.000 NA
ATOM      4  N   UNL     1       1.239   8.906  19.822  0.00  0.00    +0.000 NA
ATOM      5  C   UNL     1       2.050   8.427  18.903  0.00  0.00    +0.000 A 
ATOM      6  O   UNL     1       2.410   9.367  17.973  0.00  0.00    +0.000 OA
ATOM      7  H   UNL     1       2.687  11.537  16.995  0.00  0.00    +0.000 HD
ENDROOT
BRANCH   1  15
ATOM      8  C   UNL     1       5.033  17.854  20.329  0.00  0.00    +0.000 C 
ATOM      9  N   UNL     1       3.880  17.249  19.664  0.00  0.00    +0.000 NA
ATOM     10  C   UNL     1       2.642  17.515  20.410  0.00  0.00    +0.000 C 
ATOM     11  C   UNL     1       1.423  17.015  19.623  0.00  0.00    +0.000 C 
ATOM     12  C   UNL     1       1.578  15.579  19.197  0.00  0.00    +0.000 A 
ATOM     13  C   UNL     1       0.468  14.808  18.845  0.00  0.00    +0.000 A 
ATOM     14  C   UNL     1       0.633  13.492  18.402  0.00  0.00    +0.000 A 
ATOM     15  C   UNL     1       1.910  12.926  18.274  0.00  0.00    +0.000 A 
ATOM     16  C   UNL     1       3.008  13.702  18.659  0.00  0.00    +0.000 A 
ATOM     17  C   UNL     1       2.862  15.027  19.098  0.00  0.00    +0.000 A 
ATOM     18  C   UNL     1       4.093  15.797  19.525  0.00  0.00    +0.000 C 
ENDBRANCH   1  15
BRANCH   5  19
ATOM     19  C   UNL     1       2.603   7.097  18.768  0.00  0.00    +0.000 A 
ATOM     20  C   UNL     1       2.209   6.038  19.572  0.00  0.00    +0.000 A 
ATOM     21  N   UNL     1       2.716   4.788  19.476  0.00  0.00    +0.000 NA
ATOM     22  C   UNL     1       3.665   4.586  18.527  0.00  0.00    +0.000 A 
ATOM     23  C   UNL     1       4.141   5.558  17.644  0.00  0.00    +0.000 A 
ATOM     24  C   UNL     1       3.574   6.835  17.790  0.00  0.00    +0.000 A 
BRANCH  23  25
ATOM     25  C   UNL     1       5.170   5.274  16.626  0.00  0.00    +0.000 A 
ATOM     26  C   UNL     1       5.011   4.267  15.660  0.00  0.00    +0.000 A 
ATOM     27  C   UNL     1       6.006   4.019  14.713  0.00  0.00    +0.000 A 
ATOM     28  C   UNL     1       7.148   4.796  14.744  0.00  0.00    +0.000 A 
ATOM     29  N   UNL     1       7.355   5.776  15.645  0.00  0.00    +0.000 NA
ATOM     30  C   UNL     1       6.372   5.984  16.557  0.00  0.00    +0.000 A 
ENDBRANCH  23  25
ENDBRANCH   5  19
TORSDOF 3
ENDMDL
MODEL 8
REMARK VINA RESULT:      -8.7      6.460      8.049
REMARK  Name = 
REMARK  4 active torsions:
REMARK  status: ('A' for Active; 'I' for Inactive)
REMARK    1  A    between atoms: C_1  and  N_2
REMARK    2  A    between atoms: C_8  and  N_9
REMARK    3  A    between atoms: C_13  and  C_14
REMARK    4  A    between atoms: C_18  and  C_19
REMARK                            x       y       z     vdW  Elec       q    Type
REMARK                         _______ _______ _______ _____ _____    ______ ____
ROOT
ATOM      1  N   UNL     1       1.122  10.280  18.123  0.00  0.00    +0.000 N 
ATOM      2  C   UNL     1       1.407   9.216  18.896  0.00  0.00    +0.000 A 
ATOM      3  N   UNL     1       1.203   8.960  20.172  0.00  0.00    +0.000 NA
ATOM      4  N   UNL     1       1.794   7.747  20.440  0.00  0.00    +0.000 NA
ATOM      5  C   UNL     1       2.321   7.338  19.307  0.00  0.00    +0.000 A 
ATOM      6  O   UNL     1       2.091   8.208  18.272  0.00  0.00    +0.000 OA
ATOM      7  H   UNL     1       1.467  10.243  17.173  0.00  0.00    +0.000 HD
ENDROOT
BRANCH   1  15
ATOM      8  C   UNL     1      -3.305  15.278  21.273  0.00  0.00    +0.000 C 
ATOM      9  N   UNL     1      -1.923  14.873  21.017  0.00  0.00    +0.000 NA
ATOM     10  C   UNL     1      -1.183  15.938  20.326  0.00  0.00    +0.000 C 
ATOM     11  C   UNL     1       0.303  15.568  20.206  0.00  0.00    +0.000 C 
ATOM     12  C   UNL     1       0.495  14.202  19.600  0.00  0.00    +0.000 A 
ATOM     13  C   UNL     1       1.715  13.833  19.029  0.00  0.00    +0.000 A 
ATOM     14  C   UNL     1       1.895  12.544  18.518  0.00  0.00    +0.000 A 
ATOM     15  C   UNL     1       0.872  11.587  18.591  0.00  0.00    +0.000 A 
ATOM     16  C   UNL     1      -0.352  11.983  19.140  0.00  0.00    +0.000 A 
ATOM     17  C   UNL     1      -0.548  13.269  19.664  0.00  0.00    +0.000 A 
ATOM     18  C   UNL     1      -1.908  13.635  20.217  0.00  0.00    +0.000 C 
ENDBRANCH   1  15
BRANCH   5  19
ATOM     19  C   UNL     1       3.099   6.151  19.030  0.00  0.00    +0.000 A 
ATOM     20  C   UNL     1       3.086   5.038  19.857  0.00  0.00    +0.000 A 
ATOM     21  N   UNL     1       3.810   3.920  19.630  0.00  0.00    +0.000 NA
ATOM     22  C   UNL     1       4.588   3.912  18.519  0.00  0.00    +0.000 A 
ATOM     23  C   UNL     1       4.684   4.956  17.595  0.00  0.00    +0.000 A 
ATOM     24  C   UNL     1       3.905   6.090  17.883  0.00  0.00    +0.000 A 
BRANCH  23  25
ATOM     25  C   UNL     1       5.544   4.884  16.399  0.00  0.00    +0.000 A 
ATOM     26  C   UNL     1       5.195   4.125  15.270  0.00  0.00    +0.000 A 
ATOM     27  C   UNL     1       6.033   4.073  14.155  0.00  0.00    +0.000 A 
ATOM     28  C   UNL     1       7.210   4.797  14.186  0.00  0.00    +0.000 A 
ATOM     29  N   UNL     1       7.595   5.544  15.239  0.00  0.00    +0.000 NA
ATOM     30  C   UNL     1       6.762   5.563  16.310  0.00  0.00    +0.000 A 
ENDBRANCH  23  25
ENDBRANCH   5  19
TORSDOF 3
ENDMDL
MODEL 9
REMARK VINA RESULT:      -8.7      5.986      8.475
REMARK  Name = 
REMARK  4 active torsions:
REMARK  status: ('A' for Active; 'I' for Inactive)
REMARK    1  A    between atoms: C_1  and  N_2
REMARK    2  A    between atoms: C_8  and  N_9
REMARK    3  A    between atoms: C_13  and  C_14
REMARK    4  A    between atoms: C_18  and  C_19
REMARK                            x       y       z     vdW  Elec       q    Type
REMARK                         _______ _______ _______ _____ _____    ______ ____
ROOT
ATOM      1  N   UNL     1       1.928   8.662  18.982  0.00  0.00    +0.000 N 
ATOM      2  C   UNL     1       2.495   7.448  19.104  0.00  0.00    +0.000 A 
ATOM      3  N   UNL     1       2.233   6.414  19.878  0.00  0.00    +0.000 NA
ATOM      4  N   UNL     1       3.208   5.473  19.639  0.00  0.00    +0.000 NA
ATOM      5  C   UNL     1       4.004   5.993  18.730  0.00  0.00    +0.000 A 
ATOM      6  O   UNL     1       3.598   7.237  18.320  0.00  0.00    +0.000 OA
ATOM      7  H   UNL     1       2.387   9.304  18.350  0.00  0.00    +0.000 HD
ENDROOT
BRANCH   1  15
ATOM      8  C   UNL     1      -3.165  13.639  20.926  0.00  0.00    +0.000 C 
ATOM      9  N   UNL     1      -2.535  12.361  21.251  0.00  0.00    +0.000 NA
ATOM     10  C   UNL     1      -1.969  12.382  22.607  0.00  0.00    +0.000 C 
ATOM     11  C   UNL     1      -1.453  10.990  22.996  0.00  0.00    +0.000 C 
ATOM     12  C   UNL     1      -0.520  10.425  21.957  0.00  0.00    +0.000 A 
ATOM     13  C   UNL     1       0.367   9.393  22.272  0.00  0.00    +0.000 A 
ATOM     14  C   UNL     1       1.191   8.843  21.284  0.00  0.00    +0.000 A 
ATOM     15  C   UNL     1       1.126   9.291  19.956  0.00  0.00    +0.000 A 
ATOM     16  C   UNL     1       0.253  10.345  19.666  0.00  0.00    +0.000 A 
ATOM     17  C   UNL     1      -0.586  10.903  20.643  0.00  0.00    +0.000 A 
ATOM     18  C   UNL     1      -1.484  12.059  20.261  0.00  0.00    +0.000 C 
ENDBRANCH   1  15
BRANCH   5  19
ATOM     19  C   UNL     1       5.213   5.453  18.150  0.00  0.00    +0.000 A 
ATOM     20  C   UNL     1       6.318   5.105  18.913  0.00  0.00    +0.000 A 
ATOM     21  N   UNL     1       7.465   4.608  18.398  0.00  0.00    +0.000 NA
ATOM     22  C   UNL     1       7.511   4.451  17.051  0.00  0.00    +0.000 A 
ATOM     23  C   UNL     1       6.469   4.747  16.169  0.00  0.00    +0.000 A 
ATOM     24  C   UNL     1       5.302   5.256  16.764  0.00  0.00    +0.000 A 
BRANCH  23  25
ATOM     25  C   UNL     1       6.577   4.546  14.712  0.00  0.00    +0.000 A 
ATOM     26  C   UNL     1       7.550   5.196  13.935  0.00  0.00    +0.000 A 
ATOM     27  C   UNL     1       7.623   4.988  12.557  0.00  0.00    +0.000 A 
ATOM     28  C   UNL     1       6.720   4.118  11.978  0.00  0.00    +0.000 A 
ATOM     29  N   UNL     1       5.767   3.465  12.671  0.00  0.00    +0.000 NA
ATOM     30  C   UNL     1       5.718   3.699  14.007  0.00  0.00    +0.000 A 
ENDBRANCH  23  25
ENDBRANCH   5  19
TORSDOF 3
ENDMDL
