MODEL 1
REMARK VINA RESULT:      -8.1      0.000      0.000
REMARK  Name = 
REMARK  11 active torsions:
REMARK  status: ('A' for Active; 'I' for Inactive)
REMARK    1  A    between atoms: C_1  and  C_2
REMARK    2  A    between atoms: C_2  and  O_3
REMARK    3  A    between atoms: O_3  and  C_4
REMARK    4  A    between atoms: C_4  and  C_6
REMARK    5  A    between atoms: N_12  and  C_13
REMARK    6  A    between atoms: C_14  and  S_15
REMARK    7  A    between atoms: S_15  and  N_18
REMARK    8  A    between atoms: C_24  and  O_25
REMARK    9  A    between atoms: O_25  and  C_26
REMARK   10  A    between atoms: C_28  and  O_29
REMARK   11  A    between atoms: O_29  and  C_30
REMARK                            x       y       z     vdW  Elec       q    Type
REMARK                         _______ _______ _______ _____ _____    ______ ____
ROOT
ATOM      1  S   UNL     1       3.273   5.328  18.779  0.00  0.00    +0.000 S 
ATOM      2  O   UNL     1       2.118   4.481  18.962  0.00  0.00    +0.000 OA
ATOM      3  O   UNL     1       4.204   5.541  19.864  0.00  0.00    +0.000 OA
ENDROOT
BRANCH   1   4
ATOM      4  N   UNL     1       2.763   6.828  18.256  0.00  0.00    +0.000 N 
ATOM      5  C   UNL     1       2.076   7.691  19.102  0.00  0.00    +0.000 C 
ATOM      6  O   UNL     1       1.738   7.303  20.205  0.00  0.00    +0.000 OA
ATOM      7  N   UNL     1       1.778   8.903  18.545  0.00  0.00    +0.000 N 
ATOM      8  C   UNL     1       1.093   9.893  19.240  0.00  0.00    +0.000 A 
ATOM      9  N   UNL     1       0.965   9.798  20.559  0.00  0.00    +0.000 NA
ATOM     10  C   UNL     1       0.246  10.729  21.190  0.00  0.00    +0.000 A 
ATOM     11  C   UNL     1      -0.359  11.770  20.543  0.00  0.00    +0.000 A 
ATOM     12  C   UNL     1      -0.150  11.795  19.186  0.00  0.00    +0.000 A 
ATOM     13  N   UNL     1       0.585  10.887  18.508  0.00  0.00    +0.000 NA
ATOM     14  H   UNL     1       3.059   7.058  17.315  0.00  0.00    +0.000 HD
ATOM     15  H   UNL     1       1.936   9.093  17.574  0.00  0.00    +0.000 HD
BRANCH  10  16
ATOM     16  O   UNL     1       0.089  10.635  22.558  0.00  0.00    +0.000 OA
ATOM     17  C   UNL     1      -1.128  11.238  23.005  0.00  0.00    +0.000 C 
ENDBRANCH  10  16
BRANCH  12  18
ATOM     18  O   UNL     1      -0.768  12.826  18.501  0.00  0.00    +0.000 OA
ATOM     19  C   UNL     1      -0.267  14.112  18.848  0.00  0.00    +0.000 C 
ENDBRANCH  12  18
ENDBRANCH   1   4
BRANCH   1  28
ATOM     20  C   UNL     1       5.060   5.195  16.521  0.00  0.00    +0.000 A 
ATOM     21  C   UNL     1       5.579   4.125  15.777  0.00  0.00    +0.000 A 
ATOM     22  N   UNL     1       6.544   4.148  14.708  0.00  0.00    +0.000 N 
ATOM     23  O   UNL     1       7.639   4.665  14.974  0.00  0.00    +0.000 OA
ATOM     24  O   UNL     1       6.197   3.694  13.609  0.00  0.00    +0.000 OA
ATOM     25  N   UNL     1       5.127   2.934  16.193  0.00  0.00    +0.000 NA
ATOM     26  N   UNL     1       4.286   3.254  17.206  0.00  0.00    +0.000 N 
ATOM     27  C   UNL     1       3.550   2.176  17.831  0.00  0.00    +0.000 C 
ATOM     28  C   UNL     1       4.252   4.600  17.491  0.00  0.00    +0.000 A 
BRANCH  20  29
ATOM     29  C   UNL     1       5.211   6.611  16.315  0.00  0.00    +0.000 C 
ATOM     30  O   UNL     1       5.035   7.159  15.237  0.00  0.00    +0.000 OA
BRANCH  29  31
ATOM     31  O   UNL     1       5.793   7.216  17.389  0.00  0.00    +0.000 OA
BRANCH  31  33
ATOM     32  C   UNL     1       7.773   6.498  18.542  0.00  0.00    +0.000 C 
ATOM     33  C   UNL     1       7.227   7.256  17.341  0.00  0.00    +0.000 C 
ENDBRANCH  31  33
ENDBRANCH  29  31
ENDBRANCH  20  29
ENDBRANCH   1  28
TORSDOF 7
ENDMDL
MODEL 2
REMARK VINA RESULT:      -7.5      2.512      4.344
REMARK  Name = 
REMARK  11 active torsions:
REMARK  status: ('A' for Active; 'I' for Inactive)
REMARK    1  A    between atoms: C_1  and  C_2
REMARK    2  A    between atoms: C_2  and  O_3
REMARK    3  A    between atoms: O_3  and  C_4
REMARK    4  A    between atoms: C_4  and  C_6
REMARK    5  A    between atoms: N_12  and  C_13
REMARK    6  A    between atoms: C_14  and  S_15
REMARK    7  A    between atoms: S_15  and  N_18
REMARK    8  A    between atoms: C_24  and  O_25
REMARK    9  A    between atoms: O_25  and  C_26
REMARK   10  A    between atoms: C_28  and  O_29
REMARK   11  A    between atoms: O_29  and  C_30
REMARK                            x       y       z     vdW  Elec       q    Type
REMARK                         _______ _______ _______ _____ _____    ______ ____
ROOT
ATOM      1  S   UNL     1       3.009   6.703  18.143  0.00  0.00    +0.000 S 
ATOM      2  O   UNL     1       3.982   7.554  17.500  0.00  0.00    +0.000 OA
ATOM      3  O   UNL     1       1.845   6.246  17.419  0.00  0.00    +0.000 OA
ENDROOT
BRANCH   1   4
ATOM      4  N   UNL     1       2.472   7.453  19.532  0.00  0.00    +0.000 N 
ATOM      5  C   UNL     1       1.566   8.505  19.479  0.00  0.00    +0.000 C 
ATOM      6  O   UNL     1       1.246   8.964  18.399  0.00  0.00    +0.000 OA
ATOM      7  N   UNL     1       1.178   8.975  20.703  0.00  0.00    +0.000 N 
ATOM      8  C   UNL     1       0.280  10.025  20.847  0.00  0.00    +0.000 A 
ATOM      9  N   UNL     1      -0.451  10.409  19.806  0.00  0.00    +0.000 NA
ATOM     10  C   UNL     1      -1.258  11.461  19.957  0.00  0.00    +0.000 A 
ATOM     11  C   UNL     1      -1.366  12.157  21.129  0.00  0.00    +0.000 A 
ATOM     12  C   UNL     1      -0.589  11.671  22.152  0.00  0.00    +0.000 A 
ATOM     13  N   UNL     1       0.225  10.598  22.051  0.00  0.00    +0.000 NA
ATOM     14  H   UNL     1       2.812   7.028  20.387  0.00  0.00    +0.000 HD
ATOM     15  H   UNL     1       1.612   8.663  21.551  0.00  0.00    +0.000 HD
BRANCH  10  16
ATOM     16  O   UNL     1      -2.010  11.883  18.880  0.00  0.00    +0.000 OA
ATOM     17  C   UNL     1      -3.370  12.145  19.239  0.00  0.00    +0.000 C 
ENDBRANCH  10  16
BRANCH  12  18
ATOM     18  O   UNL     1      -0.661  12.367  23.345  0.00  0.00    +0.000 OA
ATOM     19  C   UNL     1      -1.414  13.572  23.249  0.00  0.00    +0.000 C 
ENDBRANCH  12  18
ENDBRANCH   1   4
BRANCH   1  28
ATOM     20  C   UNL     1       3.349   3.982  19.033  0.00  0.00    +0.000 A 
ATOM     21  C   UNL     1       4.483   3.190  19.269  0.00  0.00    +0.000 A 
ATOM     22  N   UNL     1       4.557   1.798  19.633  0.00  0.00    +0.000 N 
ATOM     23  O   UNL     1       4.001   1.003  18.861  0.00  0.00    +0.000 OA
ATOM     24  O   UNL     1       5.126   1.511  20.695  0.00  0.00    +0.000 OA
ATOM     25  N   UNL     1       5.631   3.849  19.060  0.00  0.00    +0.000 NA
ATOM     26  N   UNL     1       5.220   5.090  18.706  0.00  0.00    +0.000 N 
ATOM     27  C   UNL     1       6.238   6.096  18.488  0.00  0.00    +0.000 C 
ATOM     28  C   UNL     1       3.852   5.214  18.612  0.00  0.00    +0.000 A 
BRANCH  20  29
ATOM     29  C   UNL     1       1.960   3.679  19.252  0.00  0.00    +0.000 C 
ATOM     30  O   UNL     1       1.264   3.080  18.445  0.00  0.00    +0.000 OA
BRANCH  29  31
ATOM     31  O   UNL     1       1.468   4.335  20.341  0.00  0.00    +0.000 OA
BRANCH  31  33
ATOM     32  C   UNL     1       1.615   2.478  21.856  0.00  0.00    +0.000 C 
ATOM     33  C   UNL     1       2.036   3.916  21.591  0.00  0.00    +0.000 C 
ENDBRANCH  31  33
ENDBRANCH  29  31
ENDBRANCH  20  29
ENDBRANCH   1  28
TORSDOF 7
ENDMDL
MODEL 3
REMARK VINA RESULT:      -7.2      2.671      9.870
REMARK  Name = 
REMARK  11 active torsions:
REMARK  status: ('A' for Active; 'I' for Inactive)
REMARK    1  A    between atoms: C_1  and  C_2
REMARK    2  A    between atoms: C_2  and  O_3
REMARK    3  A    between atoms: O_3  and  C_4
REMARK    4  A    between atoms: C_4  and  C_6
REMARK    5  A    between atoms: N_12  and  C_13
REMARK    6  A    between atoms: C_14  and  S_15
REMARK    7  A    between atoms: S_15  and  N_18
REMARK    8  A    between atoms: C_24  and  O_25
REMARK    9  A    between atoms: O_25  and  C_26
REMARK   10  A    between atoms: C_28  and  O_29
REMARK   11  A    between atoms: O_29  and  C_30
REMARK                            x       y       z     vdW  Elec       q    Type
REMARK                         _______ _______ _______ _____ _____    ______ ____
ROOT
ATOM      1  S   UNL     1       0.496  10.198  19.694  0.00  0.00    +0.000 S 
ATOM      2  O   UNL     1      -0.414   9.976  18.595  0.00  0.00    +0.000 OA
ATOM      3  O   UNL     1       1.571  11.155  19.573  0.00  0.00    +0.000 OA
ENDROOT
BRANCH   1   4
ATOM      4  N   UNL     1       1.172   8.740  20.138  0.00  0.00    +0.000 N 
ATOM      5  C   UNL     1       1.999   8.035  19.270  0.00  0.00    +0.000 C 
ATOM      6  O   UNL     1       2.141   8.430  18.128  0.00  0.00    +0.000 OA
ATOM      7  N   UNL     1       2.521   6.888  19.800  0.00  0.00    +0.000 N 
ATOM      8  C   UNL     1       3.368   6.054  19.080  0.00  0.00    +0.000 A 
ATOM      9  N   UNL     1       3.926   6.498  17.959  0.00  0.00    +0.000 NA
ATOM     10  C   UNL     1       4.683   5.653  17.255  0.00  0.00    +0.000 A 
ATOM     11  C   UNL     1       4.908   4.359  17.635  0.00  0.00    +0.000 A 
ATOM     12  C   UNL     1       4.308   4.001  18.818  0.00  0.00    +0.000 A 
ATOM     13  N   UNL     1       3.551   4.827  19.572  0.00  0.00    +0.000 NA
ATOM     14  H   UNL     1       0.977   8.469  21.094  0.00  0.00    +0.000 HD
ATOM     15  H   UNL     1       2.226   6.534  20.690  0.00  0.00    +0.000 HD
BRANCH  10  16
ATOM     16  O   UNL     1       5.255   6.093  16.079  0.00  0.00    +0.000 OA
ATOM     17  C   UNL     1       5.502   5.022  15.163  0.00  0.00    +0.000 C 
ENDBRANCH  10  16
BRANCH  12  18
ATOM     18  O   UNL     1       4.501   2.691  19.217  0.00  0.00    +0.000 OA
ATOM     19  C   UNL     1       3.525   1.794  18.698  0.00  0.00    +0.000 C 
ENDBRANCH  12  18
ENDBRANCH   1   4
BRANCH   1  28
ATOM     20  C   UNL     1      -1.501  11.735  21.095  0.00  0.00    +0.000 A 
ATOM     21  C   UNL     1      -1.886  11.796  22.443  0.00  0.00    +0.000 A 
ATOM     22  N   UNL     1      -2.964  12.537  23.045  0.00  0.00    +0.000 N 
ATOM     23  O   UNL     1      -4.098  12.311  22.596  0.00  0.00    +0.000 OA
ATOM     24  O   UNL     1      -2.676  13.361  23.924  0.00  0.00    +0.000 OA
ATOM     25  N   UNL     1      -1.155  10.994  23.230  0.00  0.00    +0.000 NA
ATOM     26  N   UNL     1      -0.274  10.429  22.370  0.00  0.00    +0.000 N 
ATOM     27  C   UNL     1       0.737   9.555  22.926  0.00  0.00    +0.000 C 
ATOM     28  C   UNL     1      -0.473  10.791  21.057  0.00  0.00    +0.000 A 
BRANCH  20  29
ATOM     29  C   UNL     1      -1.958  12.516  19.977  0.00  0.00    +0.000 C 
ATOM     30  O   UNL     1      -1.447  13.574  19.639  0.00  0.00    +0.000 OA
BRANCH  29  31
ATOM     31  O   UNL     1      -3.151  12.061  19.500  0.00  0.00    +0.000 OA
BRANCH  31  33
ATOM     32  C   UNL     1      -3.835  10.474  17.833  0.00  0.00    +0.000 C 
ATOM     33  C   UNL     1      -3.169  11.819  18.085  0.00  0.00    +0.000 C 
ENDBRANCH  31  33
ENDBRANCH  29  31
ENDBRANCH  20  29
ENDBRANCH   1  28
TORSDOF 7
ENDMDL
MODEL 4
REMARK VINA RESULT:      -7.1      2.334      8.603
REMARK  Name = 
REMARK  11 active torsions:
REMARK  status: ('A' for Active; 'I' for Inactive)
REMARK    1  A    between atoms: C_1  and  C_2
REMARK    2  A    between atoms: C_2  and  O_3
REMARK    3  A    between atoms: O_3  and  C_4
REMARK    4  A    between atoms: C_4  and  C_6
REMARK    5  A    between atoms: N_12  and  C_13
REMARK    6  A    between atoms: C_14  and  S_15
REMARK    7  A    between atoms: S_15  and  N_18
REMARK    8  A    between atoms: C_24  and  O_25
REMARK    9  A    between atoms: O_25  and  C_26
REMARK   10  A    between atoms: C_28  and  O_29
REMARK   11  A    between atoms: O_29  and  C_30
REMARK                            x       y       z     vdW  Elec       q    Type
REMARK                         _______ _______ _______ _____ _____    ______ ____
ROOT
ATOM      1  S   UNL     1       0.923   8.789  21.433  0.00  0.00    +0.000 S 
ATOM      2  O   UNL     1       1.803   9.138  22.524  0.00  0.00    +0.000 OA
ATOM      3  O   UNL     1      -0.142   7.833  21.629  0.00  0.00    +0.000 OA
ENDROOT
BRANCH   1   4
ATOM      4  N   UNL     1       1.844   8.257  20.149  0.00  0.00    +0.000 N 
ATOM      5  C   UNL     1       2.057   6.901  19.928  0.00  0.00    +0.000 C 
ATOM      6  O   UNL     1       1.663   6.093  20.748  0.00  0.00    +0.000 OA
ATOM      7  N   UNL     1       2.782   6.622  18.803  0.00  0.00    +0.000 N 
ATOM      8  C   UNL     1       3.096   5.323  18.423  0.00  0.00    +0.000 A 
ATOM      9  N   UNL     1       2.452   4.304  18.981  0.00  0.00    +0.000 NA
ATOM     10  C   UNL     1       2.819   3.066  18.643  0.00  0.00    +0.000 A 
ATOM     11  C   UNL     1       3.822   2.802  17.752  0.00  0.00    +0.000 A 
ATOM     12  C   UNL     1       4.411   3.919  17.212  0.00  0.00    +0.000 A 
ATOM     13  N   UNL     1       4.060   5.189  17.509  0.00  0.00    +0.000 NA
ATOM     14  H   UNL     1       2.159   8.997  19.533  0.00  0.00    +0.000 HD
ATOM     15  H   UNL     1       3.221   7.344  18.265  0.00  0.00    +0.000 HD
BRANCH  10  16
ATOM     16  O   UNL     1       2.172   1.997  19.227  0.00  0.00    +0.000 OA
ATOM     17  C   UNL     1       1.569   2.346  20.477  0.00  0.00    +0.000 C 
ENDBRANCH  10  16
BRANCH  12  18
ATOM     18  O   UNL     1       5.445   3.684  16.323  0.00  0.00    +0.000 OA
ATOM     19  C   UNL     1       6.533   4.588  16.473  0.00  0.00    +0.000 C 
ENDBRANCH  12  18
ENDBRANCH   1   4
BRANCH   1  28
ATOM     20  C   UNL     1       0.182  11.010  19.751  0.00  0.00    +0.000 A 
ATOM     21  C   UNL     1      -0.693  12.092  19.930  0.00  0.00    +0.000 A 
ATOM     22  N   UNL     1      -1.071  13.117  18.991  0.00  0.00    +0.000 N 
ATOM     23  O   UNL     1      -1.567  12.723  17.925  0.00  0.00    +0.000 OA
ATOM     24  O   UNL     1      -0.836  14.294  19.299  0.00  0.00    +0.000 OA
ATOM     25  N   UNL     1      -1.274  12.097  21.137  0.00  0.00    +0.000 NA
ATOM     26  N   UNL     1      -0.743  11.011  21.747  0.00  0.00    +0.000 N 
ATOM     27  C   UNL     1      -1.105  10.772  23.127  0.00  0.00    +0.000 C 
ATOM     28  C   UNL     1       0.097  10.279  20.937  0.00  0.00    +0.000 A 
BRANCH  20  29
ATOM     29  C   UNL     1       1.067  10.721  18.654  0.00  0.00    +0.000 C 
ATOM     30  O   UNL     1       0.842   9.861  17.814  0.00  0.00    +0.000 OA
BRANCH  29  31
ATOM     31  O   UNL     1       2.269  11.346  18.800  0.00  0.00    +0.000 OA
BRANCH  31  33
ATOM     32  C   UNL     1       2.756  13.687  19.022  0.00  0.00    +0.000 C 
ATOM     33  C   UNL     1       2.395  12.567  18.056  0.00  0.00    +0.000 C 
ENDBRANCH  31  33
ENDBRANCH  29  31
ENDBRANCH  20  29
ENDBRANCH   1  28
TORSDOF 7
ENDMDL
MODEL 5
REMARK VINA RESULT:      -6.9      2.952      9.900
REMARK  Name = 
REMARK  11 active torsions:
REMARK  status: ('A' for Active; 'I' for Inactive)
REMARK    1  A    between atoms: C_1  and  C_2
REMARK    2  A    between atoms: C_2  and  O_3
REMARK    3  A    between atoms: O_3  and  C_4
REMARK    4  A    between atoms: C_4  and  C_6
REMARK    5  A    between atoms: N_12  and  C_13
REMARK    6  A    between atoms: C_14  and  S_15
REMARK    7  A    between atoms: S_15  and  N_18
REMARK    8  A    between atoms: C_24  and  O_25
REMARK    9  A    between atoms: O_25  and  C_26
REMARK   10  A    between atoms: C_28  and  O_29
REMARK   11  A    between atoms: O_29  and  C_30
REMARK                            x       y       z     vdW  Elec       q    Type
REMARK                         _______ _______ _______ _____ _____    ______ ____
ROOT
ATOM      1  S   UNL     1      -0.481  11.414  18.743  0.00  0.00    +0.000 S 
ATOM      2  O   UNL     1      -1.198  11.009  17.557  0.00  0.00    +0.000 OA
ATOM      3  O   UNL     1       0.581  12.390  18.659  0.00  0.00    +0.000 OA
ENDROOT
BRANCH   1   4
ATOM      4  N   UNL     1       0.144  10.057  19.484  0.00  0.00    +0.000 N 
ATOM      5  C   UNL     1       1.087   9.258  18.848  0.00  0.00    +0.000 C 
ATOM      6  O   UNL     1       1.377   9.485  17.688  0.00  0.00    +0.000 OA
ATOM      7  N   UNL     1       1.545   8.217  19.606  0.00  0.00    +0.000 N 
ATOM      8  C   UNL     1       2.489   7.312  19.136  0.00  0.00    +0.000 A 
ATOM      9  N   UNL     1       3.188   7.603  18.044  0.00  0.00    +0.000 NA
ATOM     10  C   UNL     1       4.041   6.687  17.580  0.00  0.00    +0.000 A 
ATOM     11  C   UNL     1       4.226   5.471  18.175  0.00  0.00    +0.000 A 
ATOM     12  C   UNL     1       3.477   5.272  19.309  0.00  0.00    +0.000 A 
ATOM     13  N   UNL     1       2.618   6.177  19.826  0.00  0.00    +0.000 NA
ATOM     14  H   UNL     1      -0.174   9.924  20.436  0.00  0.00    +0.000 HD
ATOM     15  H   UNL     1       1.138   7.989  20.492  0.00  0.00    +0.000 HD
BRANCH  10  16
ATOM     16  O   UNL     1       4.761   6.967  16.436  0.00  0.00    +0.000 OA
ATOM     17  C   UNL     1       5.276   5.784  15.818  0.00  0.00    +0.000 C 
ENDBRANCH  10  16
BRANCH  12  18
ATOM     18  O   UNL     1       3.628   4.041  19.921  0.00  0.00    +0.000 OA
ATOM     19  C   UNL     1       4.586   3.207  19.280  0.00  0.00    +0.000 C 
ENDBRANCH  12  18
ENDBRANCH   1   4
BRANCH   1  28
ATOM     20  C   UNL     1      -1.511  12.664  21.128  0.00  0.00    +0.000 A 
ATOM     21  C   UNL     1      -2.793  13.095  21.501  0.00  0.00    +0.000 A 
ATOM     22  N   UNL     1      -3.202  13.796  22.691  0.00  0.00    +0.000 N 
ATOM     23  O   UNL     1      -2.632  14.874  22.912  0.00  0.00    +0.000 OA
ATOM     24  O   UNL     1      -4.050  13.255  23.415  0.00  0.00    +0.000 OA
ATOM     25  N   UNL     1      -3.718  12.849  20.565  0.00  0.00    +0.000 NA
ATOM     26  N   UNL     1      -3.017  12.228  19.586  0.00  0.00    +0.000 N 
ATOM     27  C   UNL     1      -3.754  11.742  18.439  0.00  0.00    +0.000 C 
ATOM     28  C   UNL     1      -1.667  12.143  19.843  0.00  0.00    +0.000 A 
BRANCH  20  29
ATOM     29  C   UNL     1      -0.293  12.646  21.893  0.00  0.00    +0.000 C 
ATOM     30  O   UNL     1       0.389  13.639  22.100  0.00  0.00    +0.000 OA
BRANCH  29  31
ATOM     31  O   UNL     1       0.121  11.373  22.150  0.00  0.00    +0.000 OA
BRANCH  31  33
ATOM     32  C   UNL     1      -0.449   9.157  22.880  0.00  0.00    +0.000 C 
ATOM     33  C   UNL     1      -0.730  10.644  23.047  0.00  0.00    +0.000 C 
ENDBRANCH  31  33
ENDBRANCH  29  31
ENDBRANCH  20  29
ENDBRANCH   1  28
TORSDOF 7
ENDMDL
MODEL 6
REMARK VINA RESULT:      -6.9      2.598      9.738
REMARK  Name = 
REMARK  11 active torsions:
REMARK  status: ('A' for Active; 'I' for Inactive)
REMARK    1  A    between atoms: C_1  and  C_2
REMARK    2  A    between atoms: C_2  and  O_3
REMARK    3  A    between atoms: O_3  and  C_4
REMARK    4  A    between atoms: C_4  and  C_6
REMARK    5  A    between atoms: N_12  and  C_13
REMARK    6  A    between atoms: C_14  and  S_15
REMARK    7  A    between atoms: S_15  and  N_18
REMARK    8  A    between atoms: C_24  and  O_25
REMARK    9  A    between atoms: O_25  and  C_26
REMARK   10  A    between atoms: C_28  and  O_29
REMARK   11  A    between atoms: O_29  and  C_30
REMARK                            x       y       z     vdW  Elec       q    Type
REMARK                         _______ _______ _______ _____ _____    ______ ____
ROOT
ATOM      1  S   UNL     1       0.535  10.398  19.610  0.00  0.00    +0.000 S 
ATOM      2  O   UNL     1      -0.588  10.129  18.743  0.00  0.00    +0.000 OA
ATOM      3  O   UNL     1       1.642  11.203  19.147  0.00  0.00    +0.000 OA
ENDROOT
BRANCH   1   4
ATOM      4  N   UNL     1       1.160   8.948  20.147  0.00  0.00    +0.000 N 
ATOM      5  C   UNL     1       1.909   8.131  19.307  0.00  0.00    +0.000 C 
ATOM      6  O   UNL     1       2.014   8.421  18.130  0.00  0.00    +0.000 OA
ATOM      7  N   UNL     1       2.401   7.007  19.909  0.00  0.00    +0.000 N 
ATOM      8  C   UNL     1       3.170   6.073  19.226  0.00  0.00    +0.000 A 
ATOM      9  N   UNL     1       3.693   6.392  18.047  0.00  0.00    +0.000 NA
ATOM     10  C   UNL     1       4.372   5.452  17.385  0.00  0.00    +0.000 A 
ATOM     11  C   UNL     1       4.553   4.185  17.865  0.00  0.00    +0.000 A 
ATOM     12  C   UNL     1       3.996   3.959  19.099  0.00  0.00    +0.000 A 
ATOM     13  N   UNL     1       3.318   4.883  19.813  0.00  0.00    +0.000 NA
ATOM     14  H   UNL     1       1.000   8.769  21.131  0.00  0.00    +0.000 HD
ATOM     15  H   UNL     1       2.133   6.745  20.838  0.00  0.00    +0.000 HD
BRANCH  10  16
ATOM     16  O   UNL     1       4.907   5.762  16.151  0.00  0.00    +0.000 OA
ATOM     17  C   UNL     1       5.542   4.636  15.538  0.00  0.00    +0.000 C 
ENDBRANCH  10  16
BRANCH  12  18
ATOM     18  O   UNL     1       4.145   2.678  19.601  0.00  0.00    +0.000 OA
ATOM     19  C   UNL     1       3.624   1.672  18.740  0.00  0.00    +0.000 C 
ENDBRANCH  12  18
ENDBRANCH   1   4
BRANCH   1  28
ATOM     20  C   UNL     1      -0.502  12.606  21.146  0.00  0.00    +0.000 A 
ATOM     21  C   UNL     1      -0.900  12.734  22.486  0.00  0.00    +0.000 A 
ATOM     22  N   UNL     1      -1.494  13.864  23.151  0.00  0.00    +0.000 N 
ATOM     23  O   UNL     1      -2.549  14.293  22.661  0.00  0.00    +0.000 OA
ATOM     24  O   UNL     1      -0.892  14.342  24.123  0.00  0.00    +0.000 OA
ATOM     25  N   UNL     1      -0.736  11.604  23.186  0.00  0.00    +0.000 NA
ATOM     26  N   UNL     1      -0.204  10.747  22.282  0.00  0.00    +0.000 N 
ATOM     27  C   UNL     1       0.180   9.432  22.750  0.00  0.00    +0.000 C 
ATOM     28  C   UNL     1      -0.096  11.278  21.016  0.00  0.00    +0.000 A 
BRANCH  20  29
ATOM     29  C   UNL     1      -0.417  13.609  20.118  0.00  0.00    +0.000 C 
ATOM     30  O   UNL     1      -1.026  13.544  19.060  0.00  0.00    +0.000 OA
BRANCH  29  31
ATOM     31  O   UNL     1       0.586  14.499  20.366  0.00  0.00    +0.000 OA
BRANCH  31  33
ATOM     32  C   UNL     1       1.330  16.218  18.864  0.00  0.00    +0.000 C 
ATOM     33  C   UNL     1       1.445  14.749  19.244  0.00  0.00    +0.000 C 
ENDBRANCH  31  33
ENDBRANCH  29  31
ENDBRANCH  20  29
ENDBRANCH   1  28
TORSDOF 7
ENDMDL
MODEL 7
REMARK VINA RESULT:      -6.9      2.637      9.889
REMARK  Name = 
REMARK  11 active torsions:
REMARK  status: ('A' for Active; 'I' for Inactive)
REMARK    1  A    between atoms: C_1  and  C_2
REMARK    2  A    between atoms: C_2  and  O_3
REMARK    3  A    between atoms: O_3  and  C_4
REMARK    4  A    between atoms: C_4  and  C_6
REMARK    5  A    between atoms: N_12  and  C_13
REMARK    6  A    between atoms: C_14  and  S_15
REMARK    7  A    between atoms: S_15  and  N_18
REMARK    8  A    between atoms: C_24  and  O_25
REMARK    9  A    between atoms: O_25  and  C_26
REMARK   10  A    between atoms: C_28  and  O_29
REMARK   11  A    between atoms: O_29  and  C_30
REMARK                            x       y       z     vdW  Elec       q    Type
REMARK                         _______ _______ _______ _____ _____    ______ ____
ROOT
ATOM      1  S   UNL     1       0.535  10.562  20.094  0.00  0.00    +0.000 S 
ATOM      2  O   UNL     1      -0.169  10.598  18.833  0.00  0.00    +0.000 OA
ATOM      3  O   UNL     1       1.666  11.430  20.326  0.00  0.00    +0.000 OA
ENDROOT
BRANCH   1   4
ATOM      4  N   UNL     1       1.035   8.999  20.387  0.00  0.00    +0.000 N 
ATOM      5  C   UNL     1       1.810   8.305  19.465  0.00  0.00    +0.000 C 
ATOM      6  O   UNL     1       2.032   8.802  18.377  0.00  0.00    +0.000 OA
ATOM      7  N   UNL     1       2.188   7.057  19.875  0.00  0.00    +0.000 N 
ATOM      8  C   UNL     1       2.964   6.217  19.086  0.00  0.00    +0.000 A 
ATOM      9  N   UNL     1       3.604   6.715  18.033  0.00  0.00    +0.000 NA
ATOM     10  C   UNL     1       4.289   5.872  17.256  0.00  0.00    +0.000 A 
ATOM     11  C   UNL     1       4.361   4.529  17.495  0.00  0.00    +0.000 A 
ATOM     12  C   UNL     1       3.687   4.114  18.618  0.00  0.00    +0.000 A 
ATOM     13  N   UNL     1       2.999   4.931  19.443  0.00  0.00    +0.000 NA
ATOM     14  H   UNL     1       0.780   8.649  21.303  0.00  0.00    +0.000 HD
ATOM     15  H   UNL     1       1.828   6.644  20.714  0.00  0.00    +0.000 HD
BRANCH  10  16
ATOM     16  O   UNL     1       4.944   6.371  16.149  0.00  0.00    +0.000 OA
ATOM     17  C   UNL     1       5.573   5.340  15.382  0.00  0.00    +0.000 C 
ENDBRANCH  10  16
BRANCH  12  18
ATOM     18  O   UNL     1       3.725   2.755  18.874  0.00  0.00    +0.000 OA
ATOM     19  C   UNL     1       4.451   2.424  20.052  0.00  0.00    +0.000 C 
ENDBRANCH  12  18
ENDBRANCH   1   4
BRANCH   1  28
ATOM     20  C   UNL     1      -1.631  11.985  21.356  0.00  0.00    +0.000 A 
ATOM     21  C   UNL     1      -2.232  11.883  22.620  0.00  0.00    +0.000 A 
ATOM     22  N   UNL     1      -3.379  12.584  23.138  0.00  0.00    +0.000 N 
ATOM     23  O   UNL     1      -4.427  12.471  22.485  0.00  0.00    +0.000 OA
ATOM     24  O   UNL     1      -3.222  13.270  24.157  0.00  0.00    +0.000 OA
ATOM     25  N   UNL     1      -1.660  10.952  23.394  0.00  0.00    +0.000 NA
ATOM     26  N   UNL     1      -0.661  10.467  22.617  0.00  0.00    +0.000 N 
ATOM     27  C   UNL     1       0.224   9.483  23.201  0.00  0.00    +0.000 C 
ATOM     28  C   UNL     1      -0.633  11.011  21.352  0.00  0.00    +0.000 A 
BRANCH  20  29
ATOM     29  C   UNL     1      -1.880  12.929  20.299  0.00  0.00    +0.000 C 
ATOM     30  O   UNL     1      -2.692  12.741  19.404  0.00  0.00    +0.000 OA
BRANCH  29  31
ATOM     31  O   UNL     1      -0.952  13.927  20.287  0.00  0.00    +0.000 OA
BRANCH  31  33
ATOM     32  C   UNL     1      -0.301  15.657  18.755  0.00  0.00    +0.000 C 
ATOM     33  C   UNL     1      -0.347  14.157  19.006  0.00  0.00    +0.000 C 
ENDBRANCH  31  33
ENDBRANCH  29  31
ENDBRANCH  20  29
ENDBRANCH   1  28
TORSDOF 7
ENDMDL
MODEL 8
REMARK VINA RESULT:      -6.8      1.681      2.233
REMARK  Name = 
REMARK  11 active torsions:
REMARK  status: ('A' for Active; 'I' for Inactive)
REMARK    1  A    between atoms: C_1  and  C_2
REMARK    2  A    between atoms: C_2  and  O_3
REMARK    3  A    between atoms: O_3  and  C_4
REMARK    4  A    between atoms: C_4  and  C_6
REMARK    5  A    between atoms: N_12  and  C_13
REMARK    6  A    between atoms: C_14  and  S_15
REMARK    7  A    between atoms: S_15  and  N_18
REMARK    8  A    between atoms: C_24  and  O_25
REMARK    9  A    between atoms: O_25  and  C_26
REMARK   10  A    between atoms: C_28  and  O_29
REMARK   11  A    between atoms: O_29  and  C_30
REMARK                            x       y       z     vdW  Elec       q    Type
REMARK                         _______ _______ _______ _____ _____    ______ ____
ROOT
ATOM      1  S   UNL     1       2.336   4.783  18.204  0.00  0.00    +0.000 S 
ATOM      2  O   UNL     1       1.970   3.952  17.081  0.00  0.00    +0.000 OA
ATOM      3  O   UNL     1       1.756   4.550  19.507  0.00  0.00    +0.000 OA
ENDROOT
BRANCH   1   4
ATOM      4  N   UNL     1       2.054   6.378  17.808  0.00  0.00    +0.000 N 
ATOM      5  C   UNL     1       1.671   7.304  18.773  0.00  0.00    +0.000 C 
ATOM      6  O   UNL     1       1.426   6.922  19.902  0.00  0.00    +0.000 OA
ATOM      7  N   UNL     1       1.535   8.580  18.304  0.00  0.00    +0.000 N 
ATOM      8  C   UNL     1       1.157   9.637  19.123  0.00  0.00    +0.000 A 
ATOM      9  N   UNL     1       1.202   9.492  20.443  0.00  0.00    +0.000 NA
ATOM     10  C   UNL     1       0.773  10.502  21.202  0.00  0.00    +0.000 A 
ATOM     11  C   UNL     1       0.292  11.673  20.685  0.00  0.00    +0.000 A 
ATOM     12  C   UNL     1       0.306  11.736  19.313  0.00  0.00    +0.000 A 
ATOM     13  N   UNL     1       0.750  10.749  18.506  0.00  0.00    +0.000 NA
ATOM     14  H   UNL     1       2.251   6.604  16.841  0.00  0.00    +0.000 HD
ATOM     15  H   UNL     1       1.586   8.793  17.326  0.00  0.00    +0.000 HD
BRANCH  10  16
ATOM     16  O   UNL     1       0.797  10.360  22.574  0.00  0.00    +0.000 OA
ATOM     17  C   UNL     1      -0.506  10.121  23.116  0.00  0.00    +0.000 C 
ENDBRANCH  10  16
BRANCH  12  18
ATOM     18  O   UNL     1      -0.194  12.902  18.760  0.00  0.00    +0.000 OA
ATOM     19  C   UNL     1       0.491  14.071  19.194  0.00  0.00    +0.000 C 
ENDBRANCH  12  18
ENDBRANCH   1   4
BRANCH   1  28
ATOM     20  C   UNL     1       5.164   5.200  17.828  0.00  0.00    +0.000 A 
ATOM     21  C   UNL     1       6.300   4.638  18.431  0.00  0.00    +0.000 A 
ATOM     22  N   UNL     1       7.687   4.975  18.239  0.00  0.00    +0.000 N 
ATOM     23  O   UNL     1       7.996   6.156  18.453  0.00  0.00    +0.000 OA
ATOM     24  O   UNL     1       8.446   4.080  17.840  0.00  0.00    +0.000 OA
ATOM     25  N   UNL     1       5.997   3.706  19.343  0.00  0.00    +0.000 NA
ATOM     26  N   UNL     1       4.644   3.656  19.305  0.00  0.00    +0.000 N 
ATOM     27  C   UNL     1       3.986   2.665  20.130  0.00  0.00    +0.000 C 
ATOM     28  C   UNL     1       4.081   4.580  18.453  0.00  0.00    +0.000 A 
BRANCH  20  29
ATOM     29  C   UNL     1       5.074   6.135  16.739  0.00  0.00    +0.000 C 
ATOM     30  O   UNL     1       4.886   7.333  16.891  0.00  0.00    +0.000 OA
BRANCH  29  31
ATOM     31  O   UNL     1       4.991   5.500  15.536  0.00  0.00    +0.000 OA
BRANCH  31  33
ATOM     32  C   UNL     1       6.047   4.054  13.936  0.00  0.00    +0.000 C 
ATOM     33  C   UNL     1       6.260   5.163  14.956  0.00  0.00    +0.000 C 
ENDBRANCH  31  33
ENDBRANCH  29  31
ENDBRANCH  20  29
ENDBRANCH   1  28
TORSDOF 7
ENDMDL
MODEL 9
REMARK VINA RESULT:      -6.8      2.523      9.796
REMARK  Name = 
REMARK  11 active torsions:
REMARK  status: ('A' for Active; 'I' for Inactive)
REMARK    1  A    between atoms: C_1  and  C_2
REMARK    2  A    between atoms: C_2  and  O_3
REMARK    3  A    between atoms: O_3  and  C_4
REMARK    4  A    between atoms: C_4  and  C_6
REMARK    5  A    between atoms: N_12  and  C_13
REMARK    6  A    between atoms: C_14  and  S_15
REMARK    7  A    between atoms: S_15  and  N_18
REMARK    8  A    between atoms: C_24  and  O_25
REMARK    9  A    between atoms: O_25  and  C_26
REMARK   10  A    between atoms: C_28  and  O_29
REMARK   11  A    between atoms: O_29  and  C_30
REMARK                            x       y       z     vdW  Elec       q    Type
REMARK                         _______ _______ _______ _____ _____    ______ ____
ROOT
ATOM      1  S   UNL     1       0.250   9.718  21.123  0.00  0.00    +0.000 S 
ATOM      2  O   UNL     1       1.131  10.353  22.075  0.00  0.00    +0.000 OA
ATOM      3  O   UNL     1      -0.579   8.605  21.522  0.00  0.00    +0.000 OA
ENDROOT
BRANCH   1   4
ATOM      4  N   UNL     1       1.147   9.227  19.805  0.00  0.00    +0.000 N 
ATOM      5  C   UNL     1       1.813   8.007  19.800  0.00  0.00    +0.000 C 
ATOM      6  O   UNL     1       1.839   7.337  20.815  0.00  0.00    +0.000 OA
ATOM      7  N   UNL     1       2.454   7.722  18.628  0.00  0.00    +0.000 N 
ATOM      8  C   UNL     1       3.174   6.548  18.439  0.00  0.00    +0.000 A 
ATOM      9  N   UNL     1       3.015   5.539  19.289  0.00  0.00    +0.000 NA
ATOM     10  C   UNL     1       3.767   4.450  19.120  0.00  0.00    +0.000 A 
ATOM     11  C   UNL     1       4.687   4.326  18.116  0.00  0.00    +0.000 A 
ATOM     12  C   UNL     1       4.762   5.411  17.277  0.00  0.00    +0.000 A 
ATOM     13  N   UNL     1       4.008   6.524  17.397  0.00  0.00    +0.000 NA
ATOM     14  H   UNL     1       1.097   9.859  19.014  0.00  0.00    +0.000 HD
ATOM     15  H   UNL     1       2.534   8.396  17.891  0.00  0.00    +0.000 HD
BRANCH  10  16
ATOM     16  O   UNL     1       3.627   3.400  20.005  0.00  0.00    +0.000 OA
ATOM     17  C   UNL     1       2.360   3.418  20.669  0.00  0.00    +0.000 C 
ENDBRANCH  10  16
BRANCH  12  18
ATOM     18  O   UNL     1       5.699   5.323  16.263  0.00  0.00    +0.000 OA
ATOM     19  C   UNL     1       5.592   4.127  15.499  0.00  0.00    +0.000 C 
ENDBRANCH  12  18
ENDBRANCH   1   4
BRANCH   1  28
ATOM     20  C   UNL     1      -1.541  11.971  21.284  0.00  0.00    +0.000 A 
ATOM     21  C   UNL     1      -2.332  12.631  20.331  0.00  0.00    +0.000 A 
ATOM     22  N   UNL     1      -3.137  13.815  20.486  0.00  0.00    +0.000 N 
ATOM     23  O   UNL     1      -2.546  14.828  20.889  0.00  0.00    +0.000 OA
ATOM     24  O   UNL     1      -4.350  13.721  20.248  0.00  0.00    +0.000 OA
ATOM     25  N   UNL     1      -2.249  12.079  19.114  0.00  0.00    +0.000 NA
ATOM     26  N   UNL     1      -1.407  11.034  19.299  0.00  0.00    +0.000 N 
ATOM     27  C   UNL     1      -1.166  10.159  18.171  0.00  0.00    +0.000 C 
ATOM     28  C   UNL     1      -0.898  10.955  20.576  0.00  0.00    +0.000 A 
BRANCH  20  29
ATOM     29  C   UNL     1      -1.448  12.186  22.703  0.00  0.00    +0.000 C 
ATOM     30  O   UNL     1      -0.415  12.508  23.271  0.00  0.00    +0.000 OA
BRANCH  29  31
ATOM     31  O   UNL     1      -2.572  11.765  23.350  0.00  0.00    +0.000 OA
BRANCH  31  33
ATOM     32  C   UNL     1      -4.432  12.248  24.789  0.00  0.00    +0.000 C 
ATOM     33  C   UNL     1      -3.426  12.825  23.805  0.00  0.00    +0.000 C 
ENDBRANCH  31  33
ENDBRANCH  29  31
ENDBRANCH  20  29
ENDBRANCH   1  28
TORSDOF 7
ENDMDL
