MODEL 1
REMARK VINA RESULT:      -7.0      0.000      0.000
REMARK  Name = 
REMARK  4 active torsions:
REMARK  status: ('A' for Active; 'I' for Inactive)
REMARK    1  A    between atoms: C_1  and  N_2
REMARK    2  A    between atoms: N_2  and  C_3
REMARK    3  A    between atoms: N_2  and  C_4
REMARK    4  A    between atoms: C_4  and  C_5
REMARK                            x       y       z     vdW  Elec       q    Type
REMARK                         _______ _______ _______ _____ _____    ______ ____
ROOT
ATOM      1  C   UNL     1       4.194   6.241  17.259  0.00  0.00    +0.000 C 
ATOM      2  C   UNL     1       3.344   6.256  18.331  0.00  0.00    +0.000 C 
ATOM      3  C   UNL     1       2.587   7.576  18.569  0.00  0.00    +0.000 A 
ATOM      4  C   UNL     1       2.639   8.676  17.676  0.00  0.00    +0.000 A 
ATOM      5  C   UNL     1       1.946   9.877  17.895  0.00  0.00    +0.000 A 
ATOM      6  C   UNL     1       1.154  10.025  19.016  0.00  0.00    +0.000 A 
ATOM      7  C   UNL     1       1.054   8.964  19.904  0.00  0.00    +0.000 A 
ATOM      8  C   UNL     1       1.756   7.751  19.691  0.00  0.00    +0.000 A 
ATOM      9  S   UNL     1       1.456   6.546  20.946  0.00  0.00    +0.000 S 
ATOM     10  C   UNL     1       2.348   5.118  20.408  0.00  0.00    +0.000 A 
ATOM     11  C   UNL     1       2.193   4.012  21.281  0.00  0.00    +0.000 A 
ATOM     12  C   UNL     1       2.841   2.808  21.061  0.00  0.00    +0.000 A 
ATOM     13  C   UNL     1       3.651   2.703  19.954  0.00  0.00    +0.000 A 
ATOM     14 CL   UNL     1       4.500   1.237  19.642  0.00  0.00    +0.000 Cl
ATOM     15  C   UNL     1       3.796   3.791  19.083  0.00  0.00    +0.000 A 
ATOM     16  C   UNL     1       3.161   5.042  19.260  0.00  0.00    +0.000 A 
ENDROOT
BRANCH   1  17
ATOM     17  C   UNL     1       5.002   5.116  16.675  0.00  0.00    +0.000 C 
BRANCH  17  19
ATOM     18  C   UNL     1       7.236   4.670  17.324  0.00  0.00    +0.000 C 
ATOM     19  N   UNL     1       6.408   5.353  16.311  0.00  0.00    +0.000 NA
ATOM     20  C   UNL     1       6.745   4.816  14.990  0.00  0.00    +0.000 C 
ENDBRANCH  17  19
ENDBRANCH   1  17
TORSDOF 2
ENDMDL
MODEL 2
REMARK VINA RESULT:      -6.7      2.333      4.393
REMARK  Name = 
REMARK  4 active torsions:
REMARK  status: ('A' for Active; 'I' for Inactive)
REMARK    1  A    between atoms: C_1  and  N_2
REMARK    2  A    between atoms: N_2  and  C_3
REMARK    3  A    between atoms: N_2  and  C_4
REMARK    4  A    between atoms: C_4  and  C_5
REMARK                            x       y       z     vdW  Elec       q    Type
REMARK                         _______ _______ _______ _____ _____    ______ ____
ROOT
ATOM      1  C   UNL     1       2.383   5.105  20.425  0.00  0.00    +0.000 C 
ATOM      2  C   UNL     1       2.535   6.214  19.637  0.00  0.00    +0.000 C 
ATOM      3  C   UNL     1       1.726   7.454  20.061  0.00  0.00    +0.000 A 
ATOM      4  C   UNL     1       0.974   7.521  21.261  0.00  0.00    +0.000 A 
ATOM      5  C   UNL     1       0.239   8.654  21.645  0.00  0.00    +0.000 A 
ATOM      6  C   UNL     1       0.239   9.782  20.849  0.00  0.00    +0.000 A 
ATOM      7  C   UNL     1       0.982   9.769  19.678  0.00  0.00    +0.000 A 
ATOM      8  C   UNL     1       1.721   8.626  19.283  0.00  0.00    +0.000 A 
ATOM      9  S   UNL     1       2.598   8.858  17.768  0.00  0.00    +0.000 S 
ATOM     10  C   UNL     1       3.502   7.354  17.549  0.00  0.00    +0.000 A 
ATOM     11  C   UNL     1       4.314   7.365  16.385  0.00  0.00    +0.000 A 
ATOM     12  C   UNL     1       5.072   6.269  16.010  0.00  0.00    +0.000 A 
ATOM     13  C   UNL     1       5.024   5.148  16.806  0.00  0.00    +0.000 A 
ATOM     14 CL   UNL     1       5.929   3.746  16.376  0.00  0.00    +0.000 Cl
ATOM     15  C   UNL     1       4.233   5.139  17.961  0.00  0.00    +0.000 A 
ATOM     16  C   UNL     1       3.438   6.227  18.391  0.00  0.00    +0.000 A 
ENDROOT
BRANCH   1  17
ATOM     17  C   UNL     1       3.081   3.774  20.375  0.00  0.00    +0.000 C 
BRANCH  17  19
ATOM     18  C   UNL     1       1.392   2.633  21.581  0.00  0.00    +0.000 C 
ATOM     19  N   UNL     1       2.281   2.541  20.406  0.00  0.00    +0.000 NA
ATOM     20  C   UNL     1       1.457   2.374  19.207  0.00  0.00    +0.000 C 
ENDBRANCH  17  19
ENDBRANCH   1  17
TORSDOF 2
ENDMDL
MODEL 3
REMARK VINA RESULT:      -6.4      3.069      5.758
REMARK  Name = 
REMARK  4 active torsions:
REMARK  status: ('A' for Active; 'I' for Inactive)
REMARK    1  A    between atoms: C_1  and  N_2
REMARK    2  A    between atoms: N_2  and  C_3
REMARK    3  A    between atoms: N_2  and  C_4
REMARK    4  A    between atoms: C_4  and  C_5
REMARK                            x       y       z     vdW  Elec       q    Type
REMARK                         _______ _______ _______ _____ _____    ______ ____
ROOT
ATOM      1  C   UNL     1       2.431   6.835  18.145  0.00  0.00    +0.000 C 
ATOM      2  C   UNL     1       3.269   5.755  18.215  0.00  0.00    +0.000 C 
ATOM      3  C   UNL     1       2.591   4.394  18.463  0.00  0.00    +0.000 A 
ATOM      4  C   UNL     1       1.184   4.217  18.483  0.00  0.00    +0.000 A 
ATOM      5  C   UNL     1       0.569   2.975  18.708  0.00  0.00    +0.000 A 
ATOM      6  C   UNL     1       1.340   1.847  18.907  0.00  0.00    +0.000 A 
ATOM      7  C   UNL     1       2.721   1.971  18.871  0.00  0.00    +0.000 A 
ATOM      8  C   UNL     1       3.347   3.223  18.649  0.00  0.00    +0.000 A 
ATOM      9  S   UNL     1       5.109   3.123  18.628  0.00  0.00    +0.000 S 
ATOM     10  C   UNL     1       5.639   4.765  18.244  0.00  0.00    +0.000 A 
ATOM     11  C   UNL     1       7.049   4.879  18.141  0.00  0.00    +0.000 A 
ATOM     12  C   UNL     1       7.670   6.090  17.886  0.00  0.00    +0.000 A 
ATOM     13  C   UNL     1       6.876   7.202  17.726  0.00  0.00    +0.000 A 
ATOM     14 CL   UNL     1       7.595   8.739  17.428  0.00  0.00    +0.000 Cl
ATOM     15  C   UNL     1       5.483   7.090  17.815  0.00  0.00    +0.000 A 
ATOM     16  C   UNL     1       4.796   5.882  18.076  0.00  0.00    +0.000 A 
ENDROOT
BRANCH   1  17
ATOM     17  C   UNL     1       2.724   8.273  17.817  0.00  0.00    +0.000 C 
BRANCH  17  19
ATOM     18  C   UNL     1       1.238   9.100  19.466  0.00  0.00    +0.000 C 
ATOM     19  N   UNL     1       1.697   9.293  18.077  0.00  0.00    +0.000 NA
ATOM     20  C   UNL     1       2.211  10.658  17.939  0.00  0.00    +0.000 C 
ENDBRANCH  17  19
ENDBRANCH   1  17
TORSDOF 2
ENDMDL
MODEL 4
REMARK VINA RESULT:      -6.2      3.029      5.801
REMARK  Name = 
REMARK  4 active torsions:
REMARK  status: ('A' for Active; 'I' for Inactive)
REMARK    1  A    between atoms: C_1  and  N_2
REMARK    2  A    between atoms: N_2  and  C_3
REMARK    3  A    between atoms: N_2  and  C_4
REMARK    4  A    between atoms: C_4  and  C_5
REMARK                            x       y       z     vdW  Elec       q    Type
REMARK                         _______ _______ _______ _____ _____    ______ ____
ROOT
ATOM      1  C   UNL     1       3.024   4.714  20.081  0.00  0.00    +0.000 C 
ATOM      2  C   UNL     1       3.053   5.788  19.234  0.00  0.00    +0.000 C 
ATOM      3  C   UNL     1       3.969   5.647  18.004  0.00  0.00    +0.000 A 
ATOM      4  C   UNL     1       4.642   4.446  17.667  0.00  0.00    +0.000 A 
ATOM      5  C   UNL     1       5.475   4.320  16.544  0.00  0.00    +0.000 A 
ATOM      6  C   UNL     1       5.658   5.393  15.694  0.00  0.00    +0.000 A 
ATOM      7  C   UNL     1       4.999   6.581  15.973  0.00  0.00    +0.000 A 
ATOM      8  C   UNL     1       4.161   6.715  17.108  0.00  0.00    +0.000 A 
ATOM      9  S   UNL     1       3.419   8.312  17.238  0.00  0.00    +0.000 S 
ATOM     10  C   UNL     1       2.365   8.193  18.652  0.00  0.00    +0.000 A 
ATOM     11  C   UNL     1       1.640   9.387  18.899  0.00  0.00    +0.000 A 
ATOM     12  C   UNL     1       0.787   9.516  19.983  0.00  0.00    +0.000 A 
ATOM     13  C   UNL     1       0.652   8.441  20.830  0.00  0.00    +0.000 A 
ATOM     14 CL   UNL     1      -0.377   8.551  22.207  0.00  0.00    +0.000 Cl
ATOM     15  C   UNL     1       1.358   7.257  20.582  0.00  0.00    +0.000 A 
ATOM     16  C   UNL     1       2.243   7.070  19.494  0.00  0.00    +0.000 A 
ENDROOT
BRANCH   1  17
ATOM     17  C   UNL     1       2.182   4.461  21.301  0.00  0.00    +0.000 C 
BRANCH  17  19
ATOM     18  C   UNL     1       0.805   3.149  19.890  0.00  0.00    +0.000 C 
ATOM     19  N   UNL     1       1.218   3.350  21.293  0.00  0.00    +0.000 NA
ATOM     20  C   UNL     1       1.795   2.101  21.795  0.00  0.00    +0.000 C 
ENDBRANCH  17  19
ENDBRANCH   1  17
TORSDOF 2
ENDMDL
MODEL 5
REMARK VINA RESULT:      -6.1      2.827      5.839
REMARK  Name = 
REMARK  4 active torsions:
REMARK  status: ('A' for Active; 'I' for Inactive)
REMARK    1  A    between atoms: C_1  and  N_2
REMARK    2  A    between atoms: N_2  and  C_3
REMARK    3  A    between atoms: N_2  and  C_4
REMARK    4  A    between atoms: C_4  and  C_5
REMARK                            x       y       z     vdW  Elec       q    Type
REMARK                         _______ _______ _______ _____ _____    ______ ____
ROOT
ATOM      1  C   UNL     1       3.843   3.850  19.115  0.00  0.00    +0.000 C 
ATOM      2  C   UNL     1       3.900   4.937  18.286  0.00  0.00    +0.000 C 
ATOM      3  C   UNL     1       4.765   4.771  17.022  0.00  0.00    +0.000 A 
ATOM      4  C   UNL     1       5.361   3.542  16.642  0.00  0.00    +0.000 A 
ATOM      5  C   UNL     1       6.148   3.395  15.487  0.00  0.00    +0.000 A 
ATOM      6  C   UNL     1       6.358   4.472  14.651  0.00  0.00    +0.000 A 
ATOM      7  C   UNL     1       5.773   5.688  14.972  0.00  0.00    +0.000 A 
ATOM      8  C   UNL     1       4.982   5.844  16.138  0.00  0.00    +0.000 A 
ATOM      9  S   UNL     1       4.331   7.475  16.322  0.00  0.00    +0.000 S 
ATOM     10  C   UNL     1       3.321   7.385  17.770  0.00  0.00    +0.000 A 
ATOM     11  C   UNL     1       2.669   8.610  18.062  0.00  0.00    +0.000 A 
ATOM     12  C   UNL     1       1.862   8.763  19.177  0.00  0.00    +0.000 A 
ATOM     13  C   UNL     1       1.699   7.681  20.010  0.00  0.00    +0.000 A 
ATOM     14 CL   UNL     1       0.724   7.820  21.423  0.00  0.00    +0.000 Cl
ATOM     15  C   UNL     1       2.333   6.466  19.717  0.00  0.00    +0.000 A 
ATOM     16  C   UNL     1       3.168   6.254  18.596  0.00  0.00    +0.000 A 
ENDROOT
BRANCH   1  17
ATOM     17  C   UNL     1       3.031   3.618  20.360  0.00  0.00    +0.000 C 
BRANCH  17  19
ATOM     18  C   UNL     1       1.386   2.570  21.703  0.00  0.00    +0.000 C 
ATOM     19  N   UNL     1       1.985   2.584  20.354  0.00  0.00    +0.000 NA
ATOM     20  C   UNL     1       0.930   2.855  19.375  0.00  0.00    +0.000 C 
ENDBRANCH  17  19
ENDBRANCH   1  17
TORSDOF 2
ENDMDL
MODEL 6
REMARK VINA RESULT:      -6.0      5.194      8.219
REMARK  Name = 
REMARK  4 active torsions:
REMARK  status: ('A' for Active; 'I' for Inactive)
REMARK    1  A    between atoms: C_1  and  N_2
REMARK    2  A    between atoms: N_2  and  C_3
REMARK    3  A    between atoms: N_2  and  C_4
REMARK    4  A    between atoms: C_4  and  C_5
REMARK                            x       y       z     vdW  Elec       q    Type
REMARK                         _______ _______ _______ _____ _____    ______ ____
ROOT
ATOM      1  C   UNL     1      -0.837  10.776  18.025  0.00  0.00    +0.000 C 
ATOM      2  C   UNL     1      -0.356  10.326  19.224  0.00  0.00    +0.000 C 
ATOM      3  C   UNL     1       0.719   9.225  19.145  0.00  0.00    +0.000 A 
ATOM      4  C   UNL     1       1.294   8.784  17.926  0.00  0.00    +0.000 A 
ATOM      5  C   UNL     1       2.275   7.782  17.857  0.00  0.00    +0.000 A 
ATOM      6  C   UNL     1       2.738   7.186  19.013  0.00  0.00    +0.000 A 
ATOM      7  C   UNL     1       2.220   7.604  20.230  0.00  0.00    +0.000 A 
ATOM      8  C   UNL     1       1.226   8.612  20.305  0.00  0.00    +0.000 A 
ATOM      9  S   UNL     1       0.741   8.986  21.961  0.00  0.00    +0.000 S 
ATOM     10  C   UNL     1      -0.412  10.315  21.792  0.00  0.00    +0.000 A 
ATOM     11  C   UNL     1      -0.893  10.788  23.040  0.00  0.00    +0.000 A 
ATOM     12  C   UNL     1      -1.834  11.800  23.127  0.00  0.00    +0.000 A 
ATOM     13  C   UNL     1      -2.301  12.351  21.956  0.00  0.00    +0.000 A 
ATOM     14 CL   UNL     1      -3.489  13.597  22.003  0.00  0.00    +0.000 Cl
ATOM     15  C   UNL     1      -1.820  11.893  20.723  0.00  0.00    +0.000 A 
ATOM     16  C   UNL     1      -0.862  10.863  20.574  0.00  0.00    +0.000 A 
ENDROOT
BRANCH   1  17
ATOM     17  C   UNL     1      -1.798  11.892  17.721  0.00  0.00    +0.000 C 
BRANCH  17  19
ATOM     18  C   UNL     1      -2.852  10.283  16.340  0.00  0.00    +0.000 C 
ATOM     19  N   UNL     1      -3.039  11.594  16.991  0.00  0.00    +0.000 NA
ATOM     20  C   UNL     1      -4.206  11.517  17.873  0.00  0.00    +0.000 C 
ENDBRANCH  17  19
ENDBRANCH   1  17
TORSDOF 2
ENDMDL
MODEL 7
REMARK VINA RESULT:      -5.9      4.578      7.456
REMARK  Name = 
REMARK  4 active torsions:
REMARK  status: ('A' for Active; 'I' for Inactive)
REMARK    1  A    between atoms: C_1  and  N_2
REMARK    2  A    between atoms: N_2  and  C_3
REMARK    3  A    between atoms: N_2  and  C_4
REMARK    4  A    between atoms: C_4  and  C_5
REMARK                            x       y       z     vdW  Elec       q    Type
REMARK                         _______ _______ _______ _____ _____    ______ ____
ROOT
ATOM      1  C   UNL     1       0.896  11.214  18.442  0.00  0.00    +0.000 C 
ATOM      2  C   UNL     1       0.947  10.235  19.397  0.00  0.00    +0.000 C 
ATOM      3  C   UNL     1       1.722   8.961  19.011  0.00  0.00    +0.000 A 
ATOM      4  C   UNL     1       2.464   8.835  17.810  0.00  0.00    +0.000 A 
ATOM      5  C   UNL     1       3.171   7.672  17.462  0.00  0.00    +0.000 A 
ATOM      6  C   UNL     1       3.181   6.586  18.315  0.00  0.00    +0.000 A 
ATOM      7  C   UNL     1       2.488   6.676  19.513  0.00  0.00    +0.000 A 
ATOM      8  C   UNL     1       1.768   7.845  19.867  0.00  0.00    +0.000 A 
ATOM      9  S   UNL     1       0.986   7.727  21.445  0.00  0.00    +0.000 S 
ATOM     10  C   UNL     1       0.252   9.316  21.692  0.00  0.00    +0.000 A 
ATOM     11  C   UNL     1      -0.400   9.431  22.947  0.00  0.00    +0.000 A 
ATOM     12  C   UNL     1      -1.073  10.582  23.320  0.00  0.00    +0.000 A 
ATOM     13  C   UNL     1      -1.093  11.634  22.435  0.00  0.00    +0.000 A 
ATOM     14 CL   UNL     1      -1.933  13.084  22.836  0.00  0.00    +0.000 Cl
ATOM     15  C   UNL     1      -0.440  11.528  21.200  0.00  0.00    +0.000 A 
ATOM     16  C   UNL     1       0.259  10.377  20.766  0.00  0.00    +0.000 A 
ENDROOT
BRANCH   1  17
ATOM     17  C   UNL     1       0.327  12.605  18.505  0.00  0.00    +0.000 C 
BRANCH  17  19
ATOM     18  C   UNL     1       0.472  14.913  19.015  0.00  0.00    +0.000 C 
ATOM     19  N   UNL     1       1.243  13.756  18.520  0.00  0.00    +0.000 NA
ATOM     20  C   UNL     1       2.394  13.549  19.401  0.00  0.00    +0.000 C 
ENDBRANCH  17  19
ENDBRANCH   1  17
TORSDOF 2
ENDMDL
MODEL 8
REMARK VINA RESULT:      -5.8      5.662      8.544
REMARK  Name = 
REMARK  4 active torsions:
REMARK  status: ('A' for Active; 'I' for Inactive)
REMARK    1  A    between atoms: C_1  and  N_2
REMARK    2  A    between atoms: N_2  and  C_3
REMARK    3  A    between atoms: N_2  and  C_4
REMARK    4  A    between atoms: C_4  and  C_5
REMARK                            x       y       z     vdW  Elec       q    Type
REMARK                         _______ _______ _______ _____ _____    ______ ____
ROOT
ATOM      1  C   UNL     1      -0.225  10.974  19.685  0.00  0.00    +0.000 C 
ATOM      2  C   UNL     1      -1.480  11.517  19.741  0.00  0.00    +0.000 C 
ATOM      3  C   UNL     1      -1.846  12.226  21.059  0.00  0.00    +0.000 A 
ATOM      4  C   UNL     1      -0.919  12.442  22.110  0.00  0.00    +0.000 A 
ATOM      5  C   UNL     1      -1.255  13.091  23.310  0.00  0.00    +0.000 A 
ATOM      6  C   UNL     1      -2.536  13.568  23.503  0.00  0.00    +0.000 A 
ATOM      7  C   UNL     1      -3.468  13.400  22.490  0.00  0.00    +0.000 A 
ATOM      8  C   UNL     1      -3.136  12.742  21.279  0.00  0.00    +0.000 A 
ATOM      9  S   UNL     1      -4.481  12.667  20.139  0.00  0.00    +0.000 S 
ATOM     10  C   UNL     1      -3.796  11.902  18.700  0.00  0.00    +0.000 A 
ATOM     11  C   UNL     1      -4.731  11.789  17.639  0.00  0.00    +0.000 A 
ATOM     12  C   UNL     1      -4.406  11.184  16.436  0.00  0.00    +0.000 A 
ATOM     13  C   UNL     1      -3.132  10.688  16.287  0.00  0.00    +0.000 A 
ATOM     14 CL   UNL     1      -2.678   9.905  14.821  0.00  0.00    +0.000 Cl
ATOM     15  C   UNL     1      -2.203  10.808  17.329  0.00  0.00    +0.000 A 
ATOM     16  C   UNL     1      -2.480  11.414  18.576  0.00  0.00    +0.000 A 
ENDROOT
BRANCH   1  17
ATOM     17  C   UNL     1       0.497  10.312  18.544  0.00  0.00    +0.000 C 
BRANCH  17  19
ATOM     18  C   UNL     1       2.281   8.895  17.899  0.00  0.00    +0.000 C 
ATOM     19  N   UNL     1       1.068   8.971  18.736  0.00  0.00    +0.000 NA
ATOM     20  C   UNL     1       1.443   8.712  20.128  0.00  0.00    +0.000 C 
ENDBRANCH  17  19
ENDBRANCH   1  17
TORSDOF 2
ENDMDL
MODEL 9
REMARK VINA RESULT:      -5.7      8.919     11.265
REMARK  Name = 
REMARK  4 active torsions:
REMARK  status: ('A' for Active; 'I' for Inactive)
REMARK    1  A    between atoms: C_1  and  N_2
REMARK    2  A    between atoms: N_2  and  C_3
REMARK    3  A    between atoms: N_2  and  C_4
REMARK    4  A    between atoms: C_4  and  C_5
REMARK                            x       y       z     vdW  Elec       q    Type
REMARK                         _______ _______ _______ _____ _____    ______ ____
ROOT
ATOM      1  C   UNL     1      -5.608  12.480  19.661  0.00  0.00    +0.000 C 
ATOM      2  C   UNL     1      -4.261  12.239  19.642  0.00  0.00    +0.000 C 
ATOM      3  C   UNL     1      -3.711  11.610  18.347  0.00  0.00    +0.000 A 
ATOM      4  C   UNL     1      -4.496  11.411  17.183  0.00  0.00    +0.000 A 
ATOM      5  C   UNL     1      -3.990  10.839  16.005  0.00  0.00    +0.000 A 
ATOM      6  C   UNL     1      -2.666  10.455  15.934  0.00  0.00    +0.000 A 
ATOM      7  C   UNL     1      -1.856  10.654  17.042  0.00  0.00    +0.000 A 
ATOM      8  C   UNL     1      -2.362  11.226  18.236  0.00  0.00    +0.000 A 
ATOM      9  S   UNL     1      -1.138  11.395  19.497  0.00  0.00    +0.000 S 
ATOM     10  C   UNL     1      -1.980  12.208  20.822  0.00  0.00    +0.000 A 
ATOM     11  C   UNL     1      -1.135  12.471  21.930  0.00  0.00    +0.000 A 
ATOM     12  C   UNL     1      -1.609  13.067  23.088  0.00  0.00    +0.000 A 
ATOM     13  C   UNL     1      -2.941  13.407  23.140  0.00  0.00    +0.000 A 
ATOM     14 CL   UNL     1      -3.590  14.130  24.562  0.00  0.00    +0.000 Cl
ATOM     15  C   UNL     1      -3.774  13.158  22.042  0.00  0.00    +0.000 A 
ATOM     16  C   UNL     1      -3.346  12.552  20.838  0.00  0.00    +0.000 A 
ENDROOT
BRANCH   1  17
ATOM     17  C   UNL     1      -6.457  13.166  20.695  0.00  0.00    +0.000 C 
BRANCH  17  19
ATOM     18  C   UNL     1      -7.608  11.096  20.694  0.00  0.00    +0.000 C 
ATOM     19  N   UNL     1      -7.628  12.466  21.244  0.00  0.00    +0.000 NA
ATOM     20  C   UNL     1      -7.601  12.384  22.706  0.00  0.00    +0.000 C 
ENDBRANCH  17  19
ENDBRANCH   1  17
TORSDOF 2
ENDMDL
