MODEL 1
REMARK VINA RESULT:      -7.4      0.000      0.000
REMARK  Name = 
REMARK  7 active torsions:
REMARK  status: ('A' for Active; 'I' for Inactive)
REMARK    1  A    between atoms: C_1  and  C_2
REMARK    2  A    between atoms: N_6  and  C_7
REMARK    3  A    between atoms: C_7  and  C_8
REMARK    4  A    between atoms: C_8  and  N_9
REMARK    5  A    between atoms: N_9  and  C_10
REMARK    6  A    between atoms: C_13  and  N_14
REMARK    7  A    between atoms: N_14  and  C_15
REMARK                            x       y       z     vdW  Elec       q    Type
REMARK                         _______ _______ _______ _____ _____    ______ ____
ROOT
ATOM      1  N   UNL     1       3.702   6.300  17.991  0.00  0.00    +0.000 N 
ATOM      2  C   UNL     1       3.519   7.717  17.641  0.00  0.00    +0.000 C 
ATOM      3  C   UNL     1       4.997   5.881  17.568  0.00  0.00    +0.000 A 
ATOM      4  C   UNL     1       5.234   5.732  16.214  0.00  0.00    +0.000 A 
ATOM      5  C   UNL     1       6.496   5.328  15.817  0.00  0.00    +0.000 A 
ATOM      6  N   UNL     1       7.461   5.077  16.712  0.00  0.00    +0.000 NA
ATOM      7  C   UNL     1       7.155   5.255  17.997  0.00  0.00    +0.000 A 
ATOM      8  N   UNL     1       8.145   4.983  18.920  0.00  0.00    +0.000 N 
ATOM      9  N   UNL     1       5.960   5.629  18.465  0.00  0.00    +0.000 NA
ATOM     10  H   UNL     1       8.805   4.336  18.510  0.00  0.00    +0.000 HD
ATOM     11  H   UNL     1       7.722   4.716  19.800  0.00  0.00    +0.000 HD
ENDROOT
BRANCH   5  12
ATOM     12  N   UNL     1       6.712   5.113  14.430  0.00  0.00    +0.000 N 
ATOM     13  H   UNL     1       7.663   5.381  14.202  0.00  0.00    +0.000 HD
BRANCH  12  14
ATOM     14  C   UNL     1       6.299   3.840  13.828  0.00  0.00    +0.000 C 
ATOM     15  C   UNL     1       5.143   3.736  12.877  0.00  0.00    +0.000 C 
ATOM     16  C   UNL     1       6.545   3.635  12.355  0.00  0.00    +0.000 C 
ENDBRANCH  12  14
ENDBRANCH   5  12
BRANCH   1  17
ATOM     17  C   UNL     1       3.431   5.953  19.407  0.00  0.00    +0.000 C 
BRANCH  17  18
ATOM     18  C   UNL     1       1.994   5.440  19.585  0.00  0.00    +0.000 C 
BRANCH  18  24
ATOM     19  C   UNL     1       1.985   3.119  21.647  0.00  0.00    +0.000 C 
ATOM     20  C   UNL     1       1.867   2.976  20.175  0.00  0.00    +0.000 A 
ATOM     21  N   UNL     1       1.780   1.828  19.531  0.00  0.00    +0.000 NA
ATOM     22  C   UNL     1       1.717   2.141  18.202  0.00  0.00    +0.000 A 
ATOM     23  C   UNL     1       1.762   3.503  18.025  0.00  0.00    +0.000 A 
ATOM     24  N   UNL     1       1.850   4.027  19.288  0.00  0.00    +0.000 N 
ENDBRANCH  18  24
ENDBRANCH  17  18
ENDBRANCH   1  17
TORSDOF 5
ENDMDL
MODEL 2
REMARK VINA RESULT:      -7.4      1.089      1.525
REMARK  Name = 
REMARK  7 active torsions:
REMARK  status: ('A' for Active; 'I' for Inactive)
REMARK    1  A    between atoms: C_1  and  C_2
REMARK    2  A    between atoms: N_6  and  C_7
REMARK    3  A    between atoms: C_7  and  C_8
REMARK    4  A    between atoms: C_8  and  N_9
REMARK    5  A    between atoms: N_9  and  C_10
REMARK    6  A    between atoms: C_13  and  N_14
REMARK    7  A    between atoms: N_14  and  C_15
REMARK                            x       y       z     vdW  Elec       q    Type
REMARK                         _______ _______ _______ _____ _____    ______ ____
ROOT
ATOM      1  N   UNL     1       3.670   6.086  17.489  0.00  0.00    +0.000 N 
ATOM      2  C   UNL     1       3.555   7.537  17.275  0.00  0.00    +0.000 C 
ATOM      3  C   UNL     1       4.976   5.663  17.108  0.00  0.00    +0.000 A 
ATOM      4  C   UNL     1       5.299   5.641  15.764  0.00  0.00    +0.000 A 
ATOM      5  C   UNL     1       6.572   5.233  15.409  0.00  0.00    +0.000 A 
ATOM      6  N   UNL     1       7.466   4.857  16.334  0.00  0.00    +0.000 NA
ATOM      7  C   UNL     1       7.080   4.917  17.608  0.00  0.00    +0.000 A 
ATOM      8  N   UNL     1       7.997   4.517  18.559  0.00  0.00    +0.000 N 
ATOM      9  N   UNL     1       5.869   5.287  18.035  0.00  0.00    +0.000 NA
ATOM     10  H   UNL     1       8.663   3.889  18.127  0.00  0.00    +0.000 HD
ATOM     11  H   UNL     1       7.508   4.179  19.379  0.00  0.00    +0.000 HD
ENDROOT
BRANCH   5  12
ATOM     12  N   UNL     1       6.874   5.149  14.024  0.00  0.00    +0.000 N 
ATOM     13  H   UNL     1       7.765   5.604  13.856  0.00  0.00    +0.000 HD
BRANCH  12  14
ATOM     14  C   UNL     1       6.730   3.862  13.334  0.00  0.00    +0.000 C 
ATOM     15  C   UNL     1       5.593   3.573  12.397  0.00  0.00    +0.000 C 
ATOM     16  C   UNL     1       6.966   3.822  11.845  0.00  0.00    +0.000 C 
ENDBRANCH  12  14
ENDBRANCH   5  12
BRANCH   1  17
ATOM     17  C   UNL     1       3.294   5.610  18.842  0.00  0.00    +0.000 C 
BRANCH  17  18
ATOM     18  C   UNL     1       2.552   4.267  18.768  0.00  0.00    +0.000 C 
BRANCH  18  24
ATOM     19  C   UNL     1       4.527   2.263  20.081  0.00  0.00    +0.000 C 
ATOM     20  C   UNL     1       3.239   2.719  20.657  0.00  0.00    +0.000 A 
ATOM     21  N   UNL     1       2.732   2.302  21.802  0.00  0.00    +0.000 NA
ATOM     22  C   UNL     1       1.532   2.943  21.943  0.00  0.00    +0.000 A 
ATOM     23  C   UNL     1       1.300   3.772  20.872  0.00  0.00    +0.000 A 
ATOM     24  N   UNL     1       2.395   3.628  20.061  0.00  0.00    +0.000 N 
ENDBRANCH  18  24
ENDBRANCH  17  18
ENDBRANCH   1  17
TORSDOF 5
ENDMDL
MODEL 3
REMARK VINA RESULT:      -7.4      0.658      1.422
REMARK  Name = 
REMARK  7 active torsions:
REMARK  status: ('A' for Active; 'I' for Inactive)
REMARK    1  A    between atoms: C_1  and  C_2
REMARK    2  A    between atoms: N_6  and  C_7
REMARK    3  A    between atoms: C_7  and  C_8
REMARK    4  A    between atoms: C_8  and  N_9
REMARK    5  A    between atoms: N_9  and  C_10
REMARK    6  A    between atoms: C_13  and  N_14
REMARK    7  A    between atoms: N_14  and  C_15
REMARK                            x       y       z     vdW  Elec       q    Type
REMARK                         _______ _______ _______ _____ _____    ______ ____
ROOT
ATOM      1  N   UNL     1       3.960   6.188  17.683  0.00  0.00    +0.000 N 
ATOM      2  C   UNL     1       3.881   7.622  17.366  0.00  0.00    +0.000 C 
ATOM      3  C   UNL     1       5.180   5.664  17.164  0.00  0.00    +0.000 A 
ATOM      4  C   UNL     1       5.310   5.521  15.795  0.00  0.00    +0.000 A 
ATOM      5  C   UNL     1       6.500   5.016  15.305  0.00  0.00    +0.000 A 
ATOM      6  N   UNL     1       7.498   4.663  16.127  0.00  0.00    +0.000 NA
ATOM      7  C   UNL     1       7.298   4.843  17.432  0.00  0.00    +0.000 A 
ATOM      8  N   UNL     1       8.321   4.467  18.280  0.00  0.00    +0.000 N 
ATOM      9  N   UNL     1       6.177   5.312  17.988  0.00  0.00    +0.000 NA
ATOM     10  H   UNL     1       8.891   3.772  17.815  0.00  0.00    +0.000 HD
ATOM     11  H   UNL     1       7.938   4.221  19.184  0.00  0.00    +0.000 HD
ENDROOT
BRANCH   5  12
ATOM     12  N   UNL     1       6.600   4.809  13.903  0.00  0.00    +0.000 N 
ATOM     13  H   UNL     1       7.530   5.074  13.600  0.00  0.00    +0.000 HD
BRANCH  12  14
ATOM     14  C   UNL     1       6.133   3.542  13.329  0.00  0.00    +0.000 C 
ATOM     15  C   UNL     1       5.096   3.482  12.245  0.00  0.00    +0.000 C 
ATOM     16  C   UNL     1       6.534   3.209  11.915  0.00  0.00    +0.000 C 
ENDBRANCH  12  14
ENDBRANCH   5  12
BRANCH   1  17
ATOM     17  C   UNL     1       3.758   5.839  19.110  0.00  0.00    +0.000 C 
BRANCH  17  18
ATOM     18  C   UNL     1       2.281   5.532  19.399  0.00  0.00    +0.000 C 
BRANCH  18  24
ATOM     19  C   UNL     1       2.147   2.901  17.756  0.00  0.00    +0.000 C 
ATOM     20  C   UNL     1       1.977   3.020  19.225  0.00  0.00    +0.000 A 
ATOM     21  N   UNL     1       1.705   2.017  20.039  0.00  0.00    +0.000 NA
ATOM     22  C   UNL     1       1.604   2.559  21.290  0.00  0.00    +0.000 A 
ATOM     23  C   UNL     1       1.822   3.915  21.247  0.00  0.00    +0.000 A 
ATOM     24  N   UNL     1       2.066   4.199  19.929  0.00  0.00    +0.000 N 
ENDBRANCH  18  24
ENDBRANCH  17  18
ENDBRANCH   1  17
TORSDOF 5
ENDMDL
MODEL 4
REMARK VINA RESULT:      -7.3      1.940      3.855
REMARK  Name = 
REMARK  7 active torsions:
REMARK  status: ('A' for Active; 'I' for Inactive)
REMARK    1  A    between atoms: C_1  and  C_2
REMARK    2  A    between atoms: N_6  and  C_7
REMARK    3  A    between atoms: C_7  and  C_8
REMARK    4  A    between atoms: C_8  and  N_9
REMARK    5  A    between atoms: N_9  and  C_10
REMARK    6  A    between atoms: C_13  and  N_14
REMARK    7  A    between atoms: N_14  and  C_15
REMARK                            x       y       z     vdW  Elec       q    Type
REMARK                         _______ _______ _______ _____ _____    ______ ____
ROOT
ATOM      1  N   UNL     1       4.212   4.108  17.899  0.00  0.00    +0.000 N 
ATOM      2  C   UNL     1       4.873   3.417  19.017  0.00  0.00    +0.000 C 
ATOM      3  C   UNL     1       5.195   4.476  16.934  0.00  0.00    +0.000 A 
ATOM      4  C   UNL     1       6.074   5.498  17.242  0.00  0.00    +0.000 A 
ATOM      5  C   UNL     1       7.025   5.841  16.299  0.00  0.00    +0.000 A 
ATOM      6  N   UNL     1       7.092   5.215  15.116  0.00  0.00    +0.000 NA
ATOM      7  C   UNL     1       6.216   4.234  14.902  0.00  0.00    +0.000 A 
ATOM      8  N   UNL     1       6.275   3.597  13.678  0.00  0.00    +0.000 N 
ATOM      9  N   UNL     1       5.259   3.848  15.752  0.00  0.00    +0.000 NA
ATOM     10  H   UNL     1       6.707   4.220  13.007  0.00  0.00    +0.000 HD
ATOM     11  H   UNL     1       5.362   3.228  13.444  0.00  0.00    +0.000 HD
ENDROOT
BRANCH   5  12
ATOM     12  N   UNL     1       7.881   6.936  16.595  0.00  0.00    +0.000 N 
ATOM     13  H   UNL     1       8.088   7.431  15.735  0.00  0.00    +0.000 HD
BRANCH  12  14
ATOM     14  C   UNL     1       7.551   7.821  17.718  0.00  0.00    +0.000 C 
ATOM     15  C   UNL     1       8.602   8.415  18.611  0.00  0.00    +0.000 C 
ATOM     16  C   UNL     1       7.907   9.281  17.603  0.00  0.00    +0.000 C 
ENDBRANCH  12  14
ENDBRANCH   5  12
BRANCH   1  17
ATOM     17  C   UNL     1       3.067   3.387  17.292  0.00  0.00    +0.000 C 
BRANCH  17  18
ATOM     18  C   UNL     1       1.733   3.892  17.861  0.00  0.00    +0.000 C 
BRANCH  18  24
ATOM     19  C   UNL     1       1.992   5.970  20.153  0.00  0.00    +0.000 C 
ATOM     20  C   UNL     1       1.714   4.523  20.319  0.00  0.00    +0.000 A 
ATOM     21  N   UNL     1       1.574   3.907  21.477  0.00  0.00    +0.000 NA
ATOM     22  C   UNL     1       1.359   2.588  21.183  0.00  0.00    +0.000 A 
ATOM     23  C   UNL     1       1.361   2.391  19.824  0.00  0.00    +0.000 A 
ATOM     24  N   UNL     1       1.580   3.630  19.280  0.00  0.00    +0.000 N 
ENDBRANCH  18  24
ENDBRANCH  17  18
ENDBRANCH   1  17
TORSDOF 5
ENDMDL
MODEL 5
REMARK VINA RESULT:      -7.2      0.819      1.567
REMARK  Name = 
REMARK  7 active torsions:
REMARK  status: ('A' for Active; 'I' for Inactive)
REMARK    1  A    between atoms: C_1  and  C_2
REMARK    2  A    between atoms: N_6  and  C_7
REMARK    3  A    between atoms: C_7  and  C_8
REMARK    4  A    between atoms: C_8  and  N_9
REMARK    5  A    between atoms: N_9  and  C_10
REMARK    6  A    between atoms: C_13  and  N_14
REMARK    7  A    between atoms: N_14  and  C_15
REMARK                            x       y       z     vdW  Elec       q    Type
REMARK                         _______ _______ _______ _____ _____    ______ ____
ROOT
ATOM      1  N   UNL     1       3.883   6.242  18.121  0.00  0.00    +0.000 N 
ATOM      2  C   UNL     1       3.722   7.543  17.454  0.00  0.00    +0.000 C 
ATOM      3  C   UNL     1       5.237   5.816  17.987  0.00  0.00    +0.000 A 
ATOM      4  C   UNL     1       5.680   5.401  16.745  0.00  0.00    +0.000 A 
ATOM      5  C   UNL     1       6.996   4.994  16.629  0.00  0.00    +0.000 A 
ATOM      6  N   UNL     1       7.820   4.989  17.686  0.00  0.00    +0.000 NA
ATOM      7  C   UNL     1       7.318   5.414  18.845  0.00  0.00    +0.000 A 
ATOM      8  N   UNL     1       8.163   5.396  19.937  0.00  0.00    +0.000 N 
ATOM      9  N   UNL     1       6.058   5.811  19.047  0.00  0.00    +0.000 NA
ATOM     10  H   UNL     1       8.893   4.714  19.774  0.00  0.00    +0.000 HD
ATOM     11  H   UNL     1       7.618   5.294  20.784  0.00  0.00    +0.000 HD
ENDROOT
BRANCH   5  12
ATOM     12  N   UNL     1       7.425   4.507  15.366  0.00  0.00    +0.000 N 
ATOM     13  H   UNL     1       7.641   3.520  15.453  0.00  0.00    +0.000 HD
BRANCH  12  14
ATOM     14  C   UNL     1       6.645   4.835  14.167  0.00  0.00    +0.000 C 
ATOM     15  C   UNL     1       7.142   4.551  12.779  0.00  0.00    +0.000 C 
ATOM     16  C   UNL     1       6.056   3.700  13.368  0.00  0.00    +0.000 C 
ENDBRANCH  12  14
ENDBRANCH   5  12
BRANCH   1  17
ATOM     17  C   UNL     1       3.409   6.184  19.525  0.00  0.00    +0.000 C 
BRANCH  17  18
ATOM     18  C   UNL     1       1.979   5.627  19.602  0.00  0.00    +0.000 C 
BRANCH  18  24
ATOM     19  C   UNL     1       2.079   3.171  17.705  0.00  0.00    +0.000 C 
ATOM     20  C   UNL     1       1.945   3.125  19.182  0.00  0.00    +0.000 A 
ATOM     21  N   UNL     1       1.812   2.024  19.896  0.00  0.00    +0.000 NA
ATOM     22  C   UNL     1       1.693   2.426  21.197  0.00  0.00    +0.000 A 
ATOM     23  C   UNL     1       1.761   3.795  21.287  0.00  0.00    +0.000 A 
ATOM     24  N   UNL     1       1.929   4.232  19.999  0.00  0.00    +0.000 N 
ENDBRANCH  18  24
ENDBRANCH  17  18
ENDBRANCH   1  17
TORSDOF 5
ENDMDL
MODEL 6
REMARK VINA RESULT:      -7.1      1.005      1.294
REMARK  Name = 
REMARK  7 active torsions:
REMARK  status: ('A' for Active; 'I' for Inactive)
REMARK    1  A    between atoms: C_1  and  C_2
REMARK    2  A    between atoms: N_6  and  C_7
REMARK    3  A    between atoms: C_7  and  C_8
REMARK    4  A    between atoms: C_8  and  N_9
REMARK    5  A    between atoms: N_9  and  C_10
REMARK    6  A    between atoms: C_13  and  N_14
REMARK    7  A    between atoms: N_14  and  C_15
REMARK                            x       y       z     vdW  Elec       q    Type
REMARK                         _______ _______ _______ _____ _____    ______ ____
ROOT
ATOM      1  N   UNL     1       3.581   6.277  18.224  0.00  0.00    +0.000 N 
ATOM      2  C   UNL     1       3.235   7.639  17.791  0.00  0.00    +0.000 C 
ATOM      3  C   UNL     1       4.931   6.002  17.857  0.00  0.00    +0.000 A 
ATOM      4  C   UNL     1       5.228   5.814  16.519  0.00  0.00    +0.000 A 
ATOM      5  C   UNL     1       6.542   5.553  16.178  0.00  0.00    +0.000 A 
ATOM      6  N   UNL     1       7.502   5.472  17.109  0.00  0.00    +0.000 NA
ATOM      7  C   UNL     1       7.135   5.677  18.374  0.00  0.00    +0.000 A 
ATOM      8  N   UNL     1       8.121   5.580  19.335  0.00  0.00    +0.000 N 
ATOM      9  N   UNL     1       5.889   5.922  18.791  0.00  0.00    +0.000 NA
ATOM     10  H   UNL     1       8.870   5.000  18.978  0.00  0.00    +0.000 HD
ATOM     11  H   UNL     1       7.708   5.308  20.218  0.00  0.00    +0.000 HD
ENDROOT
BRANCH   5  12
ATOM     12  N   UNL     1       6.827   5.294  14.810  0.00  0.00    +0.000 N 
ATOM     13  H   UNL     1       7.797   5.530  14.629  0.00  0.00    +0.000 HD
BRANCH  12  14
ATOM     14  C   UNL     1       6.412   4.017  14.219  0.00  0.00    +0.000 C 
ATOM     15  C   UNL     1       5.243   3.905  13.283  0.00  0.00    +0.000 C 
ATOM     16  C   UNL     1       6.639   3.807  12.743  0.00  0.00    +0.000 C 
ENDBRANCH  12  14
ENDBRANCH   5  12
BRANCH   1  17
ATOM     17  C   UNL     1       3.311   5.973  19.650  0.00  0.00    +0.000 C 
BRANCH  17  18
ATOM     18  C   UNL     1       2.277   4.845  19.787  0.00  0.00    +0.000 C 
BRANCH  18  24
ATOM     19  C   UNL     1       0.696   2.428  18.648  0.00  0.00    +0.000 C 
ATOM     20  C   UNL     1       2.137   2.438  18.997  0.00  0.00    +0.000 A 
ATOM     21  N   UNL     1       2.945   1.399  18.905  0.00  0.00    +0.000 NA
ATOM     22  C   UNL     1       4.166   1.827  19.347  0.00  0.00    +0.000 A 
ATOM     23  C   UNL     1       4.111   3.150  19.711  0.00  0.00    +0.000 A 
ATOM     24  N   UNL     1       2.816   3.534  19.478  0.00  0.00    +0.000 N 
ENDBRANCH  18  24
ENDBRANCH  17  18
ENDBRANCH   1  17
TORSDOF 5
ENDMDL
MODEL 7
REMARK VINA RESULT:      -7.0      2.035      4.033
REMARK  Name = 
REMARK  7 active torsions:
REMARK  status: ('A' for Active; 'I' for Inactive)
REMARK    1  A    between atoms: C_1  and  C_2
REMARK    2  A    between atoms: N_6  and  C_7
REMARK    3  A    between atoms: C_7  and  C_8
REMARK    4  A    between atoms: C_8  and  N_9
REMARK    5  A    between atoms: N_9  and  C_10
REMARK    6  A    between atoms: C_13  and  N_14
REMARK    7  A    between atoms: N_14  and  C_15
REMARK                            x       y       z     vdW  Elec       q    Type
REMARK                         _______ _______ _______ _____ _____    ______ ____
ROOT
ATOM      1  N   UNL     1       4.389   4.074  18.084  0.00  0.00    +0.000 N 
ATOM      2  C   UNL     1       5.117   3.434  19.191  0.00  0.00    +0.000 C 
ATOM      3  C   UNL     1       5.323   4.465  17.080  0.00  0.00    +0.000 A 
ATOM      4  C   UNL     1       6.167   5.529  17.339  0.00  0.00    +0.000 A 
ATOM      5  C   UNL     1       7.070   5.894  16.357  0.00  0.00    +0.000 A 
ATOM      6  N   UNL     1       7.123   5.248  15.184  0.00  0.00    +0.000 NA
ATOM      7  C   UNL     1       6.284   4.227  15.018  0.00  0.00    +0.000 A 
ATOM      8  N   UNL     1       6.329   3.570  13.805  0.00  0.00    +0.000 N 
ATOM      9  N   UNL     1       5.374   3.817  15.907  0.00  0.00    +0.000 NA
ATOM     10  H   UNL     1       6.711   4.197  13.108  0.00  0.00    +0.000 HD
ATOM     11  H   UNL     1       5.426   3.158  13.609  0.00  0.00    +0.000 HD
ENDROOT
BRANCH   5  12
ATOM     12  N   UNL     1       7.887   7.030  16.604  0.00  0.00    +0.000 N 
ATOM     13  H   UNL     1       8.047   7.513  15.727  0.00  0.00    +0.000 HD
BRANCH  12  14
ATOM     14  C   UNL     1       7.553   7.925  17.718  0.00  0.00    +0.000 C 
ATOM     15  C   UNL     1       8.527   8.242  18.816  0.00  0.00    +0.000 C 
ATOM     16  C   UNL     1       8.223   9.275  17.771  0.00  0.00    +0.000 C 
ENDBRANCH  12  14
ENDBRANCH   5  12
BRANCH   1  17
ATOM     17  C   UNL     1       3.257   3.294  17.530  0.00  0.00    +0.000 C 
BRANCH  17  18
ATOM     18  C   UNL     1       1.922   4.019  17.760  0.00  0.00    +0.000 C 
BRANCH  18  24
ATOM     19  C   UNL     1       1.235   3.748  20.776  0.00  0.00    +0.000 C 
ATOM     20  C   UNL     1       1.685   4.986  20.093  0.00  0.00    +0.000 A 
ATOM     21  N   UNL     1       1.820   6.164  20.673  0.00  0.00    +0.000 NA
ATOM     22  C   UNL     1       2.223   7.027  19.692  0.00  0.00    +0.000 A 
ATOM     23  C   UNL     1       2.344   6.370  18.492  0.00  0.00    +0.000 A 
ATOM     24  N   UNL     1       2.006   5.069  18.758  0.00  0.00    +0.000 N 
ENDBRANCH  18  24
ENDBRANCH  17  18
ENDBRANCH   1  17
TORSDOF 5
ENDMDL
MODEL 8
REMARK VINA RESULT:      -7.0      1.221      1.622
REMARK  Name = 
REMARK  7 active torsions:
REMARK  status: ('A' for Active; 'I' for Inactive)
REMARK    1  A    between atoms: C_1  and  C_2
REMARK    2  A    between atoms: N_6  and  C_7
REMARK    3  A    between atoms: C_7  and  C_8
REMARK    4  A    between atoms: C_8  and  N_9
REMARK    5  A    between atoms: N_9  and  C_10
REMARK    6  A    between atoms: C_13  and  N_14
REMARK    7  A    between atoms: N_14  and  C_15
REMARK                            x       y       z     vdW  Elec       q    Type
REMARK                         _______ _______ _______ _____ _____    ______ ____
ROOT
ATOM      1  N   UNL     1       3.971   5.136  18.229  0.00  0.00    +0.000 N 
ATOM      2  C   UNL     1       2.851   5.925  17.694  0.00  0.00    +0.000 C 
ATOM      3  C   UNL     1       5.177   5.548  17.589  0.00  0.00    +0.000 A 
ATOM      4  C   UNL     1       5.372   5.204  16.264  0.00  0.00    +0.000 A 
ATOM      5  C   UNL     1       6.544   5.613  15.654  0.00  0.00    +0.000 A 
ATOM      6  N   UNL     1       7.471   6.312  16.323  0.00  0.00    +0.000 NA
ATOM      7  C   UNL     1       7.201   6.612  17.593  0.00  0.00    +0.000 A 
ATOM      8  N   UNL     1       8.162   7.320  18.287  0.00  0.00    +0.000 N 
ATOM      9  N   UNL     1       6.103   6.246  18.261  0.00  0.00    +0.000 NA
ATOM     10  H   UNL     1       9.061   7.165  17.849  0.00  0.00    +0.000 HD
ATOM     11  H   UNL     1       8.088   7.112  19.275  0.00  0.00    +0.000 HD
ENDROOT
BRANCH   5  12
ATOM     12  N   UNL     1       6.767   5.199  14.313  0.00  0.00    +0.000 N 
ATOM     13  H   UNL     1       7.747   5.333  14.089  0.00  0.00    +0.000 HD
BRANCH  12  14
ATOM     14  C   UNL     1       6.231   3.910  13.861  0.00  0.00    +0.000 C 
ATOM     15  C   UNL     1       5.098   3.807  12.882  0.00  0.00    +0.000 C 
ATOM     16  C   UNL     1       6.495   3.488  12.438  0.00  0.00    +0.000 C 
ENDBRANCH  12  14
ENDBRANCH   5  12
BRANCH   1  17
ATOM     17  C   UNL     1       4.093   5.124  19.707  0.00  0.00    +0.000 C 
BRANCH  17  18
ATOM     18  C   UNL     1       3.804   3.726  20.273  0.00  0.00    +0.000 C 
BRANCH  18  24
ATOM     19  C   UNL     1       3.467   1.537  18.096  0.00  0.00    +0.000 C 
ATOM     20  C   UNL     1       2.368   2.216  18.825  0.00  0.00    +0.000 A 
ATOM     21  N   UNL     1       1.082   2.008  18.619  0.00  0.00    +0.000 NA
ATOM     22  C   UNL     1       0.419   2.848  19.471  0.00  0.00    +0.000 A 
ATOM     23  C   UNL     1       1.310   3.580  20.217  0.00  0.00    +0.000 A 
ATOM     24  N   UNL     1       2.550   3.166  19.804  0.00  0.00    +0.000 N 
ENDBRANCH  18  24
ENDBRANCH  17  18
ENDBRANCH   1  17
TORSDOF 5
ENDMDL
MODEL 9
REMARK VINA RESULT:      -6.9      1.415      1.742
REMARK  Name = 
REMARK  7 active torsions:
REMARK  status: ('A' for Active; 'I' for Inactive)
REMARK    1  A    between atoms: C_1  and  C_2
REMARK    2  A    between atoms: N_6  and  C_7
REMARK    3  A    between atoms: C_7  and  C_8
REMARK    4  A    between atoms: C_8  and  N_9
REMARK    5  A    between atoms: N_9  and  C_10
REMARK    6  A    between atoms: C_13  and  N_14
REMARK    7  A    between atoms: N_14  and  C_15
REMARK                            x       y       z     vdW  Elec       q    Type
REMARK                         _______ _______ _______ _____ _____    ______ ____
ROOT
ATOM      1  N   UNL     1       2.719   5.889  19.392  0.00  0.00    +0.000 N 
ATOM      2  C   UNL     1       2.276   7.291  19.400  0.00  0.00    +0.000 C 
ATOM      3  C   UNL     1       4.026   5.818  18.827  0.00  0.00    +0.000 A 
ATOM      4  C   UNL     1       4.171   6.027  17.468  0.00  0.00    +0.000 A 
ATOM      5  C   UNL     1       5.445   5.959  16.935  0.00  0.00    +0.000 A 
ATOM      6  N   UNL     1       6.509   5.689  17.703  0.00  0.00    +0.000 NA
ATOM      7  C   UNL     1       6.285   5.511  19.004  0.00  0.00    +0.000 A 
ATOM      8  N   UNL     1       7.379   5.218  19.794  0.00  0.00    +0.000 N 
ATOM      9  N   UNL     1       5.088   5.546  19.598  0.00  0.00    +0.000 NA
ATOM     10  H   UNL     1       8.101   4.811  19.213  0.00  0.00    +0.000 HD
ATOM     11  H   UNL     1       7.081   4.685  20.601  0.00  0.00    +0.000 HD
ENDROOT
BRANCH   5  12
ATOM     12  N   UNL     1       5.578   6.109  15.528  0.00  0.00    +0.000 N 
ATOM     13  H   UNL     1       5.853   7.064  15.326  0.00  0.00    +0.000 HD
BRANCH  12  14
ATOM     14  C   UNL     1       6.332   5.106  14.767  0.00  0.00    +0.000 C 
ATOM     15  C   UNL     1       6.171   3.632  14.998  0.00  0.00    +0.000 C 
ATOM     16  C   UNL     1       5.584   4.259  13.769  0.00  0.00    +0.000 C 
ENDBRANCH  12  14
ENDBRANCH   5  12
BRANCH   1  17
ATOM     17  C   UNL     1       2.627   5.185  20.694  0.00  0.00    +0.000 C 
BRANCH  17  18
ATOM     18  C   UNL     1       1.828   3.879  20.561  0.00  0.00    +0.000 C 
BRANCH  18  24
ATOM     19  C   UNL     1       4.406   2.149  20.521  0.00  0.00    +0.000 C 
ATOM     20  C   UNL     1       3.431   2.283  19.412  0.00  0.00    +0.000 A 
ATOM     21  N   UNL     1       3.546   1.708  18.230  0.00  0.00    +0.000 NA
ATOM     22  C   UNL     1       2.459   2.110  17.504  0.00  0.00    +0.000 A 
ATOM     23  C   UNL     1       1.660   2.940  18.252  0.00  0.00    +0.000 A 
ATOM     24  N   UNL     1       2.283   3.039  19.468  0.00  0.00    +0.000 N 
ENDBRANCH  18  24
ENDBRANCH  17  18
ENDBRANCH   1  17
TORSDOF 5
ENDMDL
