MODEL 1
REMARK VINA RESULT:      -7.6      0.000      0.000
REMARK  Name = 
REMARK  6 active torsions:
REMARK  status: ('A' for Active; 'I' for Inactive)
REMARK    1  A    between atoms: C_1  and  O_2
REMARK    2  A    between atoms: O_2  and  C_3
REMARK    3  A    between atoms: C_3  and  C_5
REMARK    4  A    between atoms: C_7  and  O_8
REMARK    5  A    between atoms: N_10  and  S_11
REMARK    6  A    between atoms: S_11  and  C_14
REMARK                            x       y       z     vdW  Elec       q    Type
REMARK                         _______ _______ _______ _____ _____    ______ ____
ROOT
ATOM      1  S   UNL     1       3.985   2.335  18.850  0.00  0.00    +0.000 S 
ATOM      2  O   UNL     1       4.567   1.992  20.130  0.00  0.00    +0.000 OA
ATOM      3  O   UNL     1       3.825   1.333  17.817  0.00  0.00    +0.000 OA
ENDROOT
BRANCH   1   4
ATOM      4  C   UNL     1       4.888   3.720  18.184  0.00  0.00    +0.000 A 
ATOM      5  C   UNL     1       4.536   4.209  16.927  0.00  0.00    +0.000 A 
ATOM      6  C   UNL     1       5.207   5.318  16.402  0.00  0.00    +0.000 A 
ATOM      7  C   UNL     1       6.221   5.962  17.131  0.00  0.00    +0.000 A 
ATOM      8  C   UNL     1       6.912   7.063  16.598  0.00  0.00    +0.000 A 
ATOM      9  C   UNL     1       7.899   7.719  17.339  0.00  0.00    +0.000 A 
ATOM     10  C   UNL     1       8.199   7.283  18.623  0.00  0.00    +0.000 A 
ATOM     11  C   UNL     1       7.532   6.179  19.164  0.00  0.00    +0.000 A 
ATOM     12  C   UNL     1       6.542   5.495  18.430  0.00  0.00    +0.000 A 
ATOM     13  C   UNL     1       5.865   4.373  18.947  0.00  0.00    +0.000 A 
ENDBRANCH   1   4
BRANCH   1  18
ATOM     14  C   UNL     1       2.445   4.352  19.729  0.00  0.00    +0.000 C 
ATOM     15  C   UNL     1       1.365   4.348  20.812  0.00  0.00    +0.000 C 
ATOM     16  C   UNL     1       1.385   2.919  21.306  0.00  0.00    +0.000 C 
ATOM     17  C   UNL     1       1.541   2.116  20.013  0.00  0.00    +0.000 C 
ATOM     18  N   UNL     1       2.429   2.950  19.147  0.00  0.00    +0.000 NA
BRANCH  14  19
ATOM     19  C   UNL     1       2.129   5.440  18.716  0.00  0.00    +0.000 C 
ATOM     20  O   UNL     1       1.424   5.309  17.727  0.00  0.00    +0.000 OA
BRANCH  19  22
ATOM     21  C   UNL     1       2.810   7.619  18.129  0.00  0.00    +0.000 C 
ATOM     22  O   UNL     1       2.663   6.624  19.147  0.00  0.00    +0.000 OA
ENDBRANCH  19  22
ENDBRANCH  14  19
BRANCH  16  23
ATOM     23  O   UNL     1       2.486   2.732  22.195  0.00  0.00    +0.000 OA
ATOM     24  H   UNL     1       2.649   3.559  22.696  0.00  0.00    +0.000 HD
ENDBRANCH  16  23
ENDBRANCH   1  18
TORSDOF 5
ENDMDL
MODEL 2
REMARK VINA RESULT:      -7.6      2.261      3.326
REMARK  Name = 
REMARK  6 active torsions:
REMARK  status: ('A' for Active; 'I' for Inactive)
REMARK    1  A    between atoms: C_1  and  O_2
REMARK    2  A    between atoms: O_2  and  C_3
REMARK    3  A    between atoms: C_3  and  C_5
REMARK    4  A    between atoms: C_7  and  O_8
REMARK    5  A    between atoms: N_10  and  S_11
REMARK    6  A    between atoms: S_11  and  C_14
REMARK                            x       y       z     vdW  Elec       q    Type
REMARK                         _______ _______ _______ _____ _____    ______ ____
ROOT
ATOM      1  S   UNL     1       4.989   4.376  18.894  0.00  0.00    +0.000 S 
ATOM      2  O   UNL     1       5.472   5.448  19.737  0.00  0.00    +0.000 OA
ATOM      3  O   UNL     1       5.121   2.993  19.305  0.00  0.00    +0.000 OA
ENDROOT
BRANCH   1   4
ATOM      4  C   UNL     1       5.711   4.575  17.276  0.00  0.00    +0.000 A 
ATOM      5  C   UNL     1       6.890   5.308  17.152  0.00  0.00    +0.000 A 
ATOM      6  C   UNL     1       7.493   5.445  15.898  0.00  0.00    +0.000 A 
ATOM      7  C   UNL     1       6.938   4.839  14.759  0.00  0.00    +0.000 A 
ATOM      8  C   UNL     1       7.529   4.992  13.493  0.00  0.00    +0.000 A 
ATOM      9  C   UNL     1       6.990   4.361  12.368  0.00  0.00    +0.000 A 
ATOM     10  C   UNL     1       5.859   3.566  12.500  0.00  0.00    +0.000 A 
ATOM     11  C   UNL     1       5.249   3.414  13.749  0.00  0.00    +0.000 A 
ATOM     12  C   UNL     1       5.768   4.051  14.895  0.00  0.00    +0.000 A 
ATOM     13  C   UNL     1       5.165   3.925  16.162  0.00  0.00    +0.000 A 
ENDBRANCH   1   4
BRANCH   1  18
ATOM     14  C   UNL     1       2.658   5.353  19.801  0.00  0.00    +0.000 C 
ATOM     15  C   UNL     1       1.317   4.642  19.995  0.00  0.00    +0.000 C 
ATOM     16  C   UNL     1       1.622   3.223  19.574  0.00  0.00    +0.000 C 
ATOM     17  C   UNL     1       2.509   3.418  18.343  0.00  0.00    +0.000 C 
ATOM     18  N   UNL     1       3.328   4.631  18.647  0.00  0.00    +0.000 NA
BRANCH  14  19
ATOM     19  C   UNL     1       2.405   6.828  19.539  0.00  0.00    +0.000 C 
ATOM     20  O   UNL     1       1.996   7.637  20.358  0.00  0.00    +0.000 OA
BRANCH  19  22
ATOM     21  C   UNL     1       2.350   8.396  17.780  0.00  0.00    +0.000 C 
ATOM     22  O   UNL     1       2.820   7.137  18.272  0.00  0.00    +0.000 OA
ENDBRANCH  19  22
ENDBRANCH  14  19
BRANCH  16  23
ATOM     23  O   UNL     1       2.301   2.543  20.629  0.00  0.00    +0.000 OA
ATOM     24  H   UNL     1       1.831   2.696  21.475  0.00  0.00    +0.000 HD
ENDBRANCH  16  23
ENDBRANCH   1  18
TORSDOF 5
ENDMDL
MODEL 3
REMARK VINA RESULT:      -7.5      2.953      5.839
REMARK  Name = 
REMARK  6 active torsions:
REMARK  status: ('A' for Active; 'I' for Inactive)
REMARK    1  A    between atoms: C_1  and  O_2
REMARK    2  A    between atoms: O_2  and  C_3
REMARK    3  A    between atoms: C_3  and  C_5
REMARK    4  A    between atoms: C_7  and  O_8
REMARK    5  A    between atoms: N_10  and  S_11
REMARK    6  A    between atoms: S_11  and  C_14
REMARK                            x       y       z     vdW  Elec       q    Type
REMARK                         _______ _______ _______ _____ _____    ______ ____
ROOT
ATOM      1  S   UNL     1       3.953   5.072  18.226  0.00  0.00    +0.000 S 
ATOM      2  O   UNL     1       3.252   4.364  17.178  0.00  0.00    +0.000 OA
ATOM      3  O   UNL     1       4.267   4.419  19.480  0.00  0.00    +0.000 OA
ENDROOT
BRANCH   1   4
ATOM      4  C   UNL     1       3.068   6.583  18.562  0.00  0.00    +0.000 A 
ATOM      5  C   UNL     1       2.931   7.523  17.542  0.00  0.00    +0.000 A 
ATOM      6  C   UNL     1       2.209   8.698  17.774  0.00  0.00    +0.000 A 
ATOM      7  C   UNL     1       1.602   8.940  19.017  0.00  0.00    +0.000 A 
ATOM      8  C   UNL     1       0.894  10.129  19.261  0.00  0.00    +0.000 A 
ATOM      9  C   UNL     1       0.266  10.352  20.489  0.00  0.00    +0.000 A 
ATOM     10  C   UNL     1       0.334   9.384  21.483  0.00  0.00    +0.000 A 
ATOM     11  C   UNL     1       1.047   8.201  21.264  0.00  0.00    +0.000 A 
ATOM     12  C   UNL     1       1.699   7.961  20.037  0.00  0.00    +0.000 A 
ATOM     13  C   UNL     1       2.434   6.783  19.795  0.00  0.00    +0.000 A 
ENDBRANCH   1   4
BRANCH   1  18
ATOM     14  C   UNL     1       6.391   4.445  17.289  0.00  0.00    +0.000 C 
ATOM     15  C   UNL     1       7.764   4.936  17.752  0.00  0.00    +0.000 C 
ATOM     16  C   UNL     1       7.426   5.854  18.903  0.00  0.00    +0.000 C 
ATOM     17  C   UNL     1       6.192   6.600  18.392  0.00  0.00    +0.000 C 
ATOM     18  N   UNL     1       5.439   5.590  17.586  0.00  0.00    +0.000 NA
BRANCH  14  19
ATOM     19  C   UNL     1       6.465   4.075  15.818  0.00  0.00    +0.000 C 
ATOM     20  O   UNL     1       5.753   3.259  15.252  0.00  0.00    +0.000 OA
BRANCH  19  22
ATOM     21  C   UNL     1       7.277   4.911  13.769  0.00  0.00    +0.000 C 
ATOM     22  O   UNL     1       7.378   4.883  15.196  0.00  0.00    +0.000 OA
ENDBRANCH  19  22
ENDBRANCH  14  19
BRANCH  16  23
ATOM     23  O   UNL     1       7.146   5.082  20.070  0.00  0.00    +0.000 OA
ATOM     24  H   UNL     1       6.624   5.618  20.703  0.00  0.00    +0.000 HD
ENDBRANCH  16  23
ENDBRANCH   1  18
TORSDOF 5
ENDMDL
MODEL 4
REMARK VINA RESULT:      -7.4      2.336      3.418
REMARK  Name = 
REMARK  6 active torsions:
REMARK  status: ('A' for Active; 'I' for Inactive)
REMARK    1  A    between atoms: C_1  and  O_2
REMARK    2  A    between atoms: O_2  and  C_3
REMARK    3  A    between atoms: C_3  and  C_5
REMARK    4  A    between atoms: C_7  and  O_8
REMARK    5  A    between atoms: N_10  and  S_11
REMARK    6  A    between atoms: S_11  and  C_14
REMARK                            x       y       z     vdW  Elec       q    Type
REMARK                         _______ _______ _______ _____ _____    ______ ____
ROOT
ATOM      1  S   UNL     1       5.075   4.453  18.921  0.00  0.00    +0.000 S 
ATOM      2  O   UNL     1       5.692   5.442  19.777  0.00  0.00    +0.000 OA
ATOM      3  O   UNL     1       5.068   3.053  19.292  0.00  0.00    +0.000 OA
ENDROOT
BRANCH   1   4
ATOM      4  C   UNL     1       5.773   4.619  17.288  0.00  0.00    +0.000 A 
ATOM      5  C   UNL     1       6.969   5.318  17.137  0.00  0.00    +0.000 A 
ATOM      6  C   UNL     1       7.553   5.428  15.871  0.00  0.00    +0.000 A 
ATOM      7  C   UNL     1       6.961   4.828  14.748  0.00  0.00    +0.000 A 
ATOM      8  C   UNL     1       7.533   4.954  13.470  0.00  0.00    +0.000 A 
ATOM      9  C   UNL     1       6.958   4.330  12.361  0.00  0.00    +0.000 A 
ATOM     10  C   UNL     1       5.808   3.567  12.519  0.00  0.00    +0.000 A 
ATOM     11  C   UNL     1       5.217   3.442  13.780  0.00  0.00    +0.000 A 
ATOM     12  C   UNL     1       5.773   4.074  14.911  0.00  0.00    +0.000 A 
ATOM     13  C   UNL     1       5.190   3.974  16.190  0.00  0.00    +0.000 A 
ENDBRANCH   1   4
BRANCH   1  18
ATOM     14  C   UNL     1       3.120   6.249  19.323  0.00  0.00    +0.000 C 
ATOM     15  C   UNL     1       1.765   6.071  20.009  0.00  0.00    +0.000 C 
ATOM     16  C   UNL     1       1.792   4.624  20.443  0.00  0.00    +0.000 C 
ATOM     17  C   UNL     1       2.432   3.922  19.244  0.00  0.00    +0.000 C 
ATOM     18  N   UNL     1       3.446   4.892  18.727  0.00  0.00    +0.000 NA
BRANCH  14  19
ATOM     19  C   UNL     1       3.014   7.362  18.293  0.00  0.00    +0.000 C 
ATOM     20  O   UNL     1       3.666   7.443  17.263  0.00  0.00    +0.000 OA
BRANCH  19  22
ATOM     21  C   UNL     1       1.890   9.385  17.844  0.00  0.00    +0.000 C 
ATOM     22  O   UNL     1       1.989   8.200  18.641  0.00  0.00    +0.000 OA
ENDBRANCH  19  22
ENDBRANCH  14  19
BRANCH  16  23
ATOM     23  O   UNL     1       2.574   4.491  21.629  0.00  0.00    +0.000 OA
ATOM     24  H   UNL     1       1.993   4.256  22.383  0.00  0.00    +0.000 HD
ENDBRANCH  16  23
ENDBRANCH   1  18
TORSDOF 5
ENDMDL
MODEL 5
REMARK VINA RESULT:      -7.4      3.082      5.405
REMARK  Name = 
REMARK  6 active torsions:
REMARK  status: ('A' for Active; 'I' for Inactive)
REMARK    1  A    between atoms: C_1  and  O_2
REMARK    2  A    between atoms: O_2  and  C_3
REMARK    3  A    between atoms: C_3  and  C_5
REMARK    4  A    between atoms: C_7  and  O_8
REMARK    5  A    between atoms: N_10  and  S_11
REMARK    6  A    between atoms: S_11  and  C_14
REMARK                            x       y       z     vdW  Elec       q    Type
REMARK                         _______ _______ _______ _____ _____    ______ ____
ROOT
ATOM      1  S   UNL     1       3.663   5.807  18.379  0.00  0.00    +0.000 S 
ATOM      2  O   UNL     1       4.583   5.589  19.474  0.00  0.00    +0.000 OA
ATOM      3  O   UNL     1       4.142   5.895  17.015  0.00  0.00    +0.000 OA
ENDROOT
BRANCH   1   4
ATOM      4  C   UNL     1       2.691   7.255  18.750  0.00  0.00    +0.000 A 
ATOM      5  C   UNL     1       2.443   8.176  17.733  0.00  0.00    +0.000 A 
ATOM      6  C   UNL     1       1.653   9.300  17.994  0.00  0.00    +0.000 A 
ATOM      7  C   UNL     1       1.087   9.508  19.263  0.00  0.00    +0.000 A 
ATOM      8  C   UNL     1       0.310  10.647  19.534  0.00  0.00    +0.000 A 
ATOM      9  C   UNL     1      -0.275  10.834  20.789  0.00  0.00    +0.000 A 
ATOM     10  C   UNL     1      -0.095   9.880  21.783  0.00  0.00    +0.000 A 
ATOM     11  C   UNL     1       0.687   8.748  21.535  0.00  0.00    +0.000 A 
ATOM     12  C   UNL     1       1.298   8.545  20.280  0.00  0.00    +0.000 A 
ATOM     13  C   UNL     1       2.101   7.420  20.010  0.00  0.00    +0.000 A 
ENDBRANCH   1   4
BRANCH   1  18
ATOM     14  C   UNL     1       2.690   3.623  19.602  0.00  0.00    +0.000 C 
ATOM     15  C   UNL     1       2.513   2.204  19.058  0.00  0.00    +0.000 C 
ATOM     16  C   UNL     1       3.051   2.311  17.649  0.00  0.00    +0.000 C 
ATOM     17  C   UNL     1       2.507   3.662  17.181  0.00  0.00    +0.000 C 
ATOM     18  N   UNL     1       2.540   4.532  18.396  0.00  0.00    +0.000 NA
BRANCH  14  19
ATOM     19  C   UNL     1       1.659   3.870  20.690  0.00  0.00    +0.000 C 
ATOM     20  O   UNL     1       0.560   4.376  20.527  0.00  0.00    +0.000 OA
BRANCH  19  22
ATOM     21  C   UNL     1       1.337   2.226  22.347  0.00  0.00    +0.000 C 
ATOM     22  O   UNL     1       2.108   3.331  21.865  0.00  0.00    +0.000 OA
ENDBRANCH  19  22
ENDBRANCH  14  19
BRANCH  16  23
ATOM     23  O   UNL     1       4.477   2.281  17.674  0.00  0.00    +0.000 OA
ATOM     24  H   UNL     1       4.831   2.778  16.907  0.00  0.00    +0.000 HD
ENDBRANCH  16  23
ENDBRANCH   1  18
TORSDOF 5
ENDMDL
MODEL 6
REMARK VINA RESULT:      -7.4      3.076      6.096
REMARK  Name = 
REMARK  6 active torsions:
REMARK  status: ('A' for Active; 'I' for Inactive)
REMARK    1  A    between atoms: C_1  and  O_2
REMARK    2  A    between atoms: O_2  and  C_3
REMARK    3  A    between atoms: C_3  and  C_5
REMARK    4  A    between atoms: C_7  and  O_8
REMARK    5  A    between atoms: N_10  and  S_11
REMARK    6  A    between atoms: S_11  and  C_14
REMARK                            x       y       z     vdW  Elec       q    Type
REMARK                         _______ _______ _______ _____ _____    ______ ____
ROOT
ATOM      1  S   UNL     1       4.971   7.049  16.685  0.00  0.00    +0.000 S 
ATOM      2  O   UNL     1       4.915   8.162  17.608  0.00  0.00    +0.000 OA
ATOM      3  O   UNL     1       4.606   7.221  15.294  0.00  0.00    +0.000 OA
ENDROOT
BRANCH   1   4
ATOM      4  C   UNL     1       4.021   5.707  17.375  0.00  0.00    +0.000 A 
ATOM      5  C   UNL     1       3.991   4.488  16.700  0.00  0.00    +0.000 A 
ATOM      6  C   UNL     1       3.283   3.412  17.243  0.00  0.00    +0.000 A 
ATOM      7  C   UNL     1       2.613   3.533  18.472  0.00  0.00    +0.000 A 
ATOM      8  C   UNL     1       1.883   2.460  19.010  0.00  0.00    +0.000 A 
ATOM      9  C   UNL     1       1.243   2.576  20.248  0.00  0.00    +0.000 A 
ATOM     10  C   UNL     1       1.335   3.765  20.961  0.00  0.00    +0.000 A 
ATOM     11  C   UNL     1       2.045   4.847  20.434  0.00  0.00    +0.000 A 
ATOM     12  C   UNL     1       2.687   4.757  19.182  0.00  0.00    +0.000 A 
ATOM     13  C   UNL     1       3.398   5.837  18.623  0.00  0.00    +0.000 A 
ENDBRANCH   1   4
BRANCH   1  18
ATOM     14  C   UNL     1       6.671   5.004  16.310  0.00  0.00    +0.000 C 
ATOM     15  C   UNL     1       7.715   4.422  17.265  0.00  0.00    +0.000 C 
ATOM     16  C   UNL     1       7.545   5.266  18.507  0.00  0.00    +0.000 C 
ATOM     17  C   UNL     1       7.349   6.672  17.939  0.00  0.00    +0.000 C 
ATOM     18  N   UNL     1       6.569   6.473  16.679  0.00  0.00    +0.000 NA
BRANCH  14  19
ATOM     19  C   UNL     1       7.117   4.761  14.878  0.00  0.00    +0.000 C 
ATOM     20  O   UNL     1       8.000   5.370  14.294  0.00  0.00    +0.000 OA
BRANCH  19  22
ATOM     21  C   UNL     1       6.251   3.694  12.962  0.00  0.00    +0.000 C 
ATOM     22  O   UNL     1       6.454   3.673  14.379  0.00  0.00    +0.000 OA
ENDBRANCH  19  22
ENDBRANCH  14  19
BRANCH  16  23
ATOM     23  O   UNL     1       6.408   4.817  19.243  0.00  0.00    +0.000 OA
ATOM     24  H   UNL     1       5.666   5.445  19.118  0.00  0.00    +0.000 HD
ENDBRANCH  16  23
ENDBRANCH   1  18
TORSDOF 5
ENDMDL
MODEL 7
REMARK VINA RESULT:      -7.3      2.784      5.751
REMARK  Name = 
REMARK  6 active torsions:
REMARK  status: ('A' for Active; 'I' for Inactive)
REMARK    1  A    between atoms: C_1  and  O_2
REMARK    2  A    between atoms: O_2  and  C_3
REMARK    3  A    between atoms: C_3  and  C_5
REMARK    4  A    between atoms: C_7  and  O_8
REMARK    5  A    between atoms: N_10  and  S_11
REMARK    6  A    between atoms: S_11  and  C_14
REMARK                            x       y       z     vdW  Elec       q    Type
REMARK                         _______ _______ _______ _____ _____    ______ ____
ROOT
ATOM      1  S   UNL     1       3.948   4.663  18.180  0.00  0.00    +0.000 S 
ATOM      2  O   UNL     1       3.219   4.085  17.072  0.00  0.00    +0.000 OA
ATOM      3  O   UNL     1       4.403   3.837  19.279  0.00  0.00    +0.000 OA
ENDROOT
BRANCH   1   4
ATOM      4  C   UNL     1       2.988   6.019  18.829  0.00  0.00    +0.000 A 
ATOM      5  C   UNL     1       2.501   5.934  20.132  0.00  0.00    +0.000 A 
ATOM      6  C   UNL     1       1.778   7.002  20.672  0.00  0.00    +0.000 A 
ATOM      7  C   UNL     1       1.548   8.170  19.927  0.00  0.00    +0.000 A 
ATOM      8  C   UNL     1       0.803   9.237  20.459  0.00  0.00    +0.000 A 
ATOM      9  C   UNL     1       0.603  10.409  19.725  0.00  0.00    +0.000 A 
ATOM     10  C   UNL     1       1.152  10.529  18.455  0.00  0.00    +0.000 A 
ATOM     11  C   UNL     1       1.884   9.472  17.904  0.00  0.00    +0.000 A 
ATOM     12  C   UNL     1       2.087   8.275  18.621  0.00  0.00    +0.000 A 
ATOM     13  C   UNL     1       2.809   7.192  18.084  0.00  0.00    +0.000 A 
ENDBRANCH   1   4
BRANCH   1  18
ATOM     14  C   UNL     1       6.435   4.409  17.200  0.00  0.00    +0.000 C 
ATOM     15  C   UNL     1       7.735   5.067  17.667  0.00  0.00    +0.000 C 
ATOM     16  C   UNL     1       7.290   5.891  18.853  0.00  0.00    +0.000 C 
ATOM     17  C   UNL     1       5.959   6.477  18.379  0.00  0.00    +0.000 C 
ATOM     18  N   UNL     1       5.340   5.401  17.545  0.00  0.00    +0.000 NA
BRANCH  14  19
ATOM     19  C   UNL     1       6.539   4.101  15.715  0.00  0.00    +0.000 C 
ATOM     20  O   UNL     1       5.830   3.321  15.099  0.00  0.00    +0.000 OA
BRANCH  19  22
ATOM     21  C   UNL     1       7.423   4.998  13.722  0.00  0.00    +0.000 C 
ATOM     22  O   UNL     1       7.477   4.923  15.150  0.00  0.00    +0.000 OA
ENDBRANCH  19  22
ENDBRANCH  14  19
BRANCH  16  23
ATOM     23  O   UNL     1       7.135   5.049  19.994  0.00  0.00    +0.000 OA
ATOM     24  H   UNL     1       6.602   4.262  19.753  0.00  0.00    +0.000 HD
ENDBRANCH  16  23
ENDBRANCH   1  18
TORSDOF 5
ENDMDL
MODEL 8
REMARK VINA RESULT:      -7.3      3.022      5.410
REMARK  Name = 
REMARK  6 active torsions:
REMARK  status: ('A' for Active; 'I' for Inactive)
REMARK    1  A    between atoms: C_1  and  O_2
REMARK    2  A    between atoms: O_2  and  C_3
REMARK    3  A    between atoms: C_3  and  C_5
REMARK    4  A    between atoms: C_7  and  O_8
REMARK    5  A    between atoms: N_10  and  S_11
REMARK    6  A    between atoms: S_11  and  C_14
REMARK                            x       y       z     vdW  Elec       q    Type
REMARK                         _______ _______ _______ _____ _____    ______ ____
ROOT
ATOM      1  S   UNL     1       3.873   5.364  18.866  0.00  0.00    +0.000 S 
ATOM      2  O   UNL     1       4.989   5.471  19.781  0.00  0.00    +0.000 OA
ATOM      3  O   UNL     1       4.086   5.027  17.474  0.00  0.00    +0.000 OA
ENDROOT
BRANCH   1   4
ATOM      4  C   UNL     1       2.931   6.874  18.962  0.00  0.00    +0.000 A 
ATOM      5  C   UNL     1       2.863   7.697  17.839  0.00  0.00    +0.000 A 
ATOM      6  C   UNL     1       2.099   8.867  17.881  0.00  0.00    +0.000 A 
ATOM      7  C   UNL     1       1.382   9.220  19.036  0.00  0.00    +0.000 A 
ATOM      8  C   UNL     1       0.630  10.407  19.090  0.00  0.00    +0.000 A 
ATOM      9  C   UNL     1      -0.107  10.739  20.230  0.00  0.00    +0.000 A 
ATOM     10  C   UNL     1      -0.105   9.883  21.324  0.00  0.00    +0.000 A 
ATOM     11  C   UNL     1       0.649   8.706  21.294  0.00  0.00    +0.000 A 
ATOM     12  C   UNL     1       1.410   8.357  20.159  0.00  0.00    +0.000 A 
ATOM     13  C   UNL     1       2.188   7.184  20.109  0.00  0.00    +0.000 A 
ENDBRANCH   1   4
BRANCH   1  18
ATOM     14  C   UNL     1       3.425   2.782  19.452  0.00  0.00    +0.000 C 
ATOM     15  C   UNL     1       2.290   1.865  18.993  0.00  0.00    +0.000 C 
ATOM     16  C   UNL     1       1.476   2.761  18.089  0.00  0.00    +0.000 C 
ATOM     17  C   UNL     1       1.475   4.092  18.842  0.00  0.00    +0.000 C 
ATOM     18  N   UNL     1       2.825   4.175  19.478  0.00  0.00    +0.000 NA
BRANCH  14  19
ATOM     19  C   UNL     1       3.932   2.307  20.804  0.00  0.00    +0.000 C 
ATOM     20  O   UNL     1       3.280   2.272  21.836  0.00  0.00    +0.000 OA
BRANCH  19  22
ATOM     21  C   UNL     1       5.541   0.767  21.577  0.00  0.00    +0.000 C 
ATOM     22  O   UNL     1       5.200   1.812  20.660  0.00  0.00    +0.000 OA
ENDBRANCH  19  22
ENDBRANCH  14  19
BRANCH  16  23
ATOM     23  O   UNL     1       2.108   2.862  16.813  0.00  0.00    +0.000 OA
ATOM     24  H   UNL     1       1.816   2.121  16.242  0.00  0.00    +0.000 HD
ENDBRANCH  16  23
ENDBRANCH   1  18
TORSDOF 5
ENDMDL
MODEL 9
REMARK VINA RESULT:      -7.3      3.004      5.587
REMARK  Name = 
REMARK  6 active torsions:
REMARK  status: ('A' for Active; 'I' for Inactive)
REMARK    1  A    between atoms: C_1  and  O_2
REMARK    2  A    between atoms: O_2  and  C_3
REMARK    3  A    between atoms: C_3  and  C_5
REMARK    4  A    between atoms: C_7  and  O_8
REMARK    5  A    between atoms: N_10  and  S_11
REMARK    6  A    between atoms: S_11  and  C_14
REMARK                            x       y       z     vdW  Elec       q    Type
REMARK                         _______ _______ _______ _____ _____    ______ ____
ROOT
ATOM      1  S   UNL     1       3.101   5.953  17.965  0.00  0.00    +0.000 S 
ATOM      2  O   UNL     1       4.133   6.411  17.061  0.00  0.00    +0.000 OA
ATOM      3  O   UNL     1       2.071   5.041  17.513  0.00  0.00    +0.000 OA
ENDROOT
BRANCH   1   4
ATOM      4  C   UNL     1       2.331   7.385  18.698  0.00  0.00    +0.000 A 
ATOM      5  C   UNL     1       2.018   8.471  17.882  0.00  0.00    +0.000 A 
ATOM      6  C   UNL     1       1.380   9.588  18.429  0.00  0.00    +0.000 A 
ATOM      7  C   UNL     1       1.032   9.628  19.790  0.00  0.00    +0.000 A 
ATOM      8  C   UNL     1       0.411  10.758  20.348  0.00  0.00    +0.000 A 
ATOM      9  C   UNL     1       0.039  10.781  21.695  0.00  0.00    +0.000 A 
ATOM     10  C   UNL     1       0.279   9.671  22.495  0.00  0.00    +0.000 A 
ATOM     11  C   UNL     1       0.910   8.543  21.960  0.00  0.00    +0.000 A 
ATOM     12  C   UNL     1       1.305   8.503  20.607  0.00  0.00    +0.000 A 
ATOM     13  C   UNL     1       1.953   7.385  20.047  0.00  0.00    +0.000 A 
ENDBRANCH   1   4
BRANCH   1  18
ATOM     14  C   UNL     1       4.971   4.230  18.829  0.00  0.00    +0.000 C 
ATOM     15  C   UNL     1       4.816   2.996  19.721  0.00  0.00    +0.000 C 
ATOM     16  C   UNL     1       3.329   2.956  19.988  0.00  0.00    +0.000 C 
ATOM     17  C   UNL     1       2.983   4.429  20.209  0.00  0.00    +0.000 C 
ATOM     18  N   UNL     1       3.870   5.178  19.267  0.00  0.00    +0.000 NA
BRANCH  14  19
ATOM     19  C   UNL     1       6.371   4.794  18.999  0.00  0.00    +0.000 C 
ATOM     20  O   UNL     1       6.744   5.508  19.916  0.00  0.00    +0.000 OA
BRANCH  19  22
ATOM     21  C   UNL     1       6.685   4.430  16.691  0.00  0.00    +0.000 C 
ATOM     22  O   UNL     1       7.184   4.281  18.024  0.00  0.00    +0.000 OA
ENDBRANCH  19  22
ENDBRANCH  14  19
BRANCH  16  23
ATOM     23  O   UNL     1       2.652   2.405  18.859  0.00  0.00    +0.000 OA
ATOM     24  H   UNL     1       1.728   2.187  19.103  0.00  0.00    +0.000 HD
ENDBRANCH  16  23
ENDBRANCH   1  18
TORSDOF 5
ENDMDL
