MODEL 1
REMARK VINA RESULT:      -7.6      0.000      0.000
REMARK  Name = 
REMARK  6 active torsions:
REMARK  status: ('A' for Active; 'I' for Inactive)
REMARK    1  A    between atoms: C_1  and  C_2
REMARK    2  A    between atoms: C_3  and  C_4
REMARK    3  A    between atoms: C_4  and  C_5
REMARK    4  A    between atoms: C_5  and  N_6
REMARK    5  A    between atoms: N_19  and  C_20
REMARK    6  A    between atoms: C_20  and  C_21
REMARK                            x       y       z     vdW  Elec       q    Type
REMARK                         _______ _______ _______ _____ _____    ______ ____
ROOT
ATOM      1  C   UNL     1       4.162   7.401  17.598  0.00  0.00    +0.000 C 
ATOM      2  C   UNL     1       3.636   6.338  18.508  0.00  0.00    +0.000 A 
ATOM      3  C   UNL     1       2.538   6.350  19.357  0.00  0.00    +0.000 A 
ATOM      4  C   UNL     1       2.477   5.066  19.985  0.00  0.00    +0.000 A 
ATOM      5  C   UNL     1       1.583   4.489  20.914  0.00  0.00    +0.000 A 
ATOM      6  C   UNL     1       1.817   3.200  21.381  0.00  0.00    +0.000 A 
ATOM      7  F   UNL     1       0.970   2.662  22.269  0.00  0.00    +0.000 F 
ATOM      8  C   UNL     1       2.908   2.467  20.945  0.00  0.00    +0.000 A 
ATOM      9  C   UNL     1       3.801   3.009  20.012  0.00  0.00    +0.000 A 
ATOM     10  C   UNL     1       3.564   4.314  19.538  0.00  0.00    +0.000 A 
ATOM     11  N   UNL     1       4.243   5.098  18.619  0.00  0.00    +0.000 N 
ENDROOT
BRANCH   3  12
ATOM     12  C   UNL     1       1.555   7.467  19.573  0.00  0.00    +0.000 C 
BRANCH  12  13
ATOM     13  C   UNL     1       1.544   8.001  21.017  0.00  0.00    +0.000 C 
BRANCH  13  14
ATOM     14  N   UNL     1       0.503   8.978  21.352  0.00  0.00    +0.000 NA
ATOM     15  C   UNL     1       0.482   9.350  22.774  0.00  0.00    +0.000 C 
ATOM     16  C   UNL     1      -0.753  10.216  23.062  0.00  0.00    +0.000 C 
ATOM     17  O   UNL     1      -0.743  11.408  22.262  0.00  0.00    +0.000 OA
ATOM     18  C   UNL     1      -0.689  11.075  20.865  0.00  0.00    +0.000 C 
ATOM     19  C   UNL     1       0.542  10.208  20.540  0.00  0.00    +0.000 C 
ENDBRANCH  13  14
ENDBRANCH  12  13
ENDBRANCH   3  12
BRANCH  11  20
ATOM     20  C   UNL     1       5.349   4.628  17.783  0.00  0.00    +0.000 C 
BRANCH  20  21
ATOM     21  C   UNL     1       4.918   4.003  16.468  0.00  0.00    +0.000 C 
ATOM     22  O   UNL     1       3.831   3.447  16.317  0.00  0.00    +0.000 OA
ATOM     23  N   UNL     1       5.814   4.106  15.418  0.00  0.00    +0.000 N 
ATOM     24  C   UNL     1       7.163   4.646  15.427  0.00  0.00    +0.000 C 
ATOM     25  C   UNL     1       7.343   5.146  14.003  0.00  0.00    +0.000 C 
ATOM     26  C   UNL     1       6.575   4.125  13.170  0.00  0.00    +0.000 C 
ATOM     27  C   UNL     1       5.455   3.645  14.086  0.00  0.00    +0.000 C 
ENDBRANCH  20  21
ENDBRANCH  11  20
TORSDOF 5
ENDMDL
MODEL 2
REMARK VINA RESULT:      -7.6      3.130      5.392
REMARK  Name = 
REMARK  6 active torsions:
REMARK  status: ('A' for Active; 'I' for Inactive)
REMARK    1  A    between atoms: C_1  and  C_2
REMARK    2  A    between atoms: C_3  and  C_4
REMARK    3  A    between atoms: C_4  and  C_5
REMARK    4  A    between atoms: C_5  and  N_6
REMARK    5  A    between atoms: N_19  and  C_20
REMARK    6  A    between atoms: C_20  and  C_21
REMARK                            x       y       z     vdW  Elec       q    Type
REMARK                         _______ _______ _______ _____ _____    ______ ____
ROOT
ATOM      1  C   UNL     1       1.602   4.974  17.737  0.00  0.00    +0.000 C 
ATOM      2  C   UNL     1       3.018   5.447  17.675  0.00  0.00    +0.000 A 
ATOM      3  C   UNL     1       3.529   6.734  17.583  0.00  0.00    +0.000 A 
ATOM      4  C   UNL     1       4.956   6.623  17.576  0.00  0.00    +0.000 A 
ATOM      5  C   UNL     1       5.997   7.575  17.522  0.00  0.00    +0.000 A 
ATOM      6  C   UNL     1       7.319   7.144  17.488  0.00  0.00    +0.000 A 
ATOM      7  F   UNL     1       8.302   8.053  17.427  0.00  0.00    +0.000 F 
ATOM      8  C   UNL     1       7.634   5.796  17.515  0.00  0.00    +0.000 A 
ATOM      9  C   UNL     1       6.622   4.831  17.586  0.00  0.00    +0.000 A 
ATOM     10  C   UNL     1       5.283   5.266  17.620  0.00  0.00    +0.000 A 
ATOM     11  N   UNL     1       4.089   4.568  17.708  0.00  0.00    +0.000 N 
ENDROOT
BRANCH   3  12
ATOM     12  C   UNL     1       2.762   8.026  17.537  0.00  0.00    +0.000 C 
BRANCH  12  13
ATOM     13  C   UNL     1       1.939   8.294  18.810  0.00  0.00    +0.000 C 
BRANCH  13  14
ATOM     14  N   UNL     1       1.576   9.690  19.081  0.00  0.00    +0.000 NA
ATOM     15  C   UNL     1       2.079  10.634  18.072  0.00  0.00    +0.000 C 
ATOM     16  C   UNL     1       1.821  12.073  18.541  0.00  0.00    +0.000 C 
ATOM     17  O   UNL     1       0.419  12.304  18.746  0.00  0.00    +0.000 OA
ATOM     18  C   UNL     1      -0.109  11.371  19.703  0.00  0.00    +0.000 C 
ATOM     19  C   UNL     1       0.131   9.914  19.263  0.00  0.00    +0.000 C 
ENDBRANCH  13  14
ENDBRANCH  12  13
ENDBRANCH   3  12
BRANCH  11  20
ATOM     20  C   UNL     1       3.984   3.128  17.945  0.00  0.00    +0.000 C 
BRANCH  20  21
ATOM     21  C   UNL     1       4.110   2.724  19.403  0.00  0.00    +0.000 C 
ATOM     22  O   UNL     1       5.194   2.562  19.961  0.00  0.00    +0.000 OA
ATOM     23  N   UNL     1       2.924   2.561  20.098  0.00  0.00    +0.000 N 
ATOM     24  C   UNL     1       1.562   2.626  19.595  0.00  0.00    +0.000 C 
ATOM     25  C   UNL     1       0.769   3.086  20.807  0.00  0.00    +0.000 C 
ATOM     26  C   UNL     1       1.477   2.404  21.974  0.00  0.00    +0.000 C 
ATOM     27  C   UNL     1       2.930   2.289  21.527  0.00  0.00    +0.000 C 
ENDBRANCH  20  21
ENDBRANCH  11  20
TORSDOF 5
ENDMDL
MODEL 3
REMARK VINA RESULT:      -7.5      1.847      2.350
REMARK  Name = 
REMARK  6 active torsions:
REMARK  status: ('A' for Active; 'I' for Inactive)
REMARK    1  A    between atoms: C_1  and  C_2
REMARK    2  A    between atoms: C_3  and  C_4
REMARK    3  A    between atoms: C_4  and  C_5
REMARK    4  A    between atoms: C_5  and  N_6
REMARK    5  A    between atoms: N_19  and  C_20
REMARK    6  A    between atoms: C_20  and  C_21
REMARK                            x       y       z     vdW  Elec       q    Type
REMARK                         _______ _______ _______ _____ _____    ______ ____
ROOT
ATOM      1  C   UNL     1       3.072   7.996  17.972  0.00  0.00    +0.000 C 
ATOM      2  C   UNL     1       2.843   6.714  18.706  0.00  0.00    +0.000 A 
ATOM      3  C   UNL     1       2.216   6.479  19.921  0.00  0.00    +0.000 A 
ATOM      4  C   UNL     1       2.256   5.067  20.151  0.00  0.00    +0.000 A 
ATOM      5  C   UNL     1       1.768   4.245  21.190  0.00  0.00    +0.000 A 
ATOM      6  C   UNL     1       2.005   2.876  21.149  0.00  0.00    +0.000 A 
ATOM      7  F   UNL     1       1.547   2.102  22.144  0.00  0.00    +0.000 F 
ATOM      8  C   UNL     1       2.705   2.300  20.102  0.00  0.00    +0.000 A 
ATOM      9  C   UNL     1       3.185   3.090  19.050  0.00  0.00    +0.000 A 
ATOM     10  C   UNL     1       2.945   4.477  19.090  0.00  0.00    +0.000 A 
ATOM     11  N   UNL     1       3.271   5.494  18.208  0.00  0.00    +0.000 N 
ENDROOT
BRANCH   3  12
ATOM     12  C   UNL     1       1.570   7.485  20.833  0.00  0.00    +0.000 C 
BRANCH  12  13
ATOM     13  C   UNL     1       1.064   8.740  20.098  0.00  0.00    +0.000 C 
BRANCH  13  14
ATOM     14  N   UNL     1       0.294   9.704  20.890  0.00  0.00    +0.000 NA
ATOM     15  C   UNL     1       0.130   9.311  22.298  0.00  0.00    +0.000 C 
ATOM     16  C   UNL     1      -0.846  10.273  22.990  0.00  0.00    +0.000 C 
ATOM     17  O   UNL     1      -0.365  11.625  22.931  0.00  0.00    +0.000 OA
ATOM     18  C   UNL     1      -0.162  12.026  21.566  0.00  0.00    +0.000 C 
ATOM     19  C   UNL     1       0.816  11.082  20.840  0.00  0.00    +0.000 C 
ENDBRANCH  13  14
ENDBRANCH  12  13
ENDBRANCH   3  12
BRANCH  11  20
ATOM     20  C   UNL     1       3.851   5.288  16.880  0.00  0.00    +0.000 C 
BRANCH  20  21
ATOM     21  C   UNL     1       5.084   6.127  16.599  0.00  0.00    +0.000 C 
ATOM     22  O   UNL     1       5.151   6.928  15.667  0.00  0.00    +0.000 OA
ATOM     23  N   UNL     1       6.149   5.962  17.469  0.00  0.00    +0.000 N 
ATOM     24  C   UNL     1       6.286   5.016  18.563  0.00  0.00    +0.000 C 
ATOM     25  C   UNL     1       7.216   5.736  19.526  0.00  0.00    +0.000 C 
ATOM     26  C   UNL     1       8.166   6.492  18.601  0.00  0.00    +0.000 C 
ATOM     27  C   UNL     1       7.334   6.798  17.361  0.00  0.00    +0.000 C 
ENDBRANCH  20  21
ENDBRANCH  11  20
TORSDOF 5
ENDMDL
MODEL 4
REMARK VINA RESULT:      -7.4      2.934      5.197
REMARK  Name = 
REMARK  6 active torsions:
REMARK  status: ('A' for Active; 'I' for Inactive)
REMARK    1  A    between atoms: C_1  and  C_2
REMARK    2  A    between atoms: C_3  and  C_4
REMARK    3  A    between atoms: C_4  and  C_5
REMARK    4  A    between atoms: C_5  and  N_6
REMARK    5  A    between atoms: N_19  and  C_20
REMARK    6  A    between atoms: C_20  and  C_21
REMARK                            x       y       z     vdW  Elec       q    Type
REMARK                         _______ _______ _______ _____ _____    ______ ____
ROOT
ATOM      1  C   UNL     1       1.563   4.666  17.568  0.00  0.00    +0.000 C 
ATOM      2  C   UNL     1       2.959   5.200  17.557  0.00  0.00    +0.000 A 
ATOM      3  C   UNL     1       3.418   6.503  17.434  0.00  0.00    +0.000 A 
ATOM      4  C   UNL     1       4.846   6.457  17.505  0.00  0.00    +0.000 A 
ATOM      5  C   UNL     1       5.847   7.453  17.462  0.00  0.00    +0.000 A 
ATOM      6  C   UNL     1       7.186   7.082  17.515  0.00  0.00    +0.000 A 
ATOM      7  F   UNL     1       8.131   8.031  17.464  0.00  0.00    +0.000 F 
ATOM      8  C   UNL     1       7.558   5.752  17.619  0.00  0.00    +0.000 A 
ATOM      9  C   UNL     1       6.586   4.745  17.681  0.00  0.00    +0.000 A 
ATOM     10  C   UNL     1       5.229   5.120  17.627  0.00  0.00    +0.000 A 
ATOM     11  N   UNL     1       4.064   4.373  17.684  0.00  0.00    +0.000 N 
ENDROOT
BRANCH   3  12
ATOM     12  C   UNL     1       2.600   7.757  17.290  0.00  0.00    +0.000 C 
BRANCH  12  13
ATOM     13  C   UNL     1       2.662   8.672  18.527  0.00  0.00    +0.000 C 
BRANCH  13  14
ATOM     14  N   UNL     1       1.414   8.853  19.277  0.00  0.00    +0.000 NA
ATOM     15  C   UNL     1       1.504   8.417  20.679  0.00  0.00    +0.000 C 
ATOM     16  C   UNL     1       0.110   8.461  21.321  0.00  0.00    +0.000 C 
ATOM     17  O   UNL     1      -0.437   9.788  21.273  0.00  0.00    +0.000 OA
ATOM     18  C   UNL     1      -0.505  10.254  19.915  0.00  0.00    +0.000 C 
ATOM     19  C   UNL     1       0.880  10.226  19.240  0.00  0.00    +0.000 C 
ENDBRANCH  13  14
ENDBRANCH  12  13
ENDBRANCH   3  12
BRANCH  11  20
ATOM     20  C   UNL     1       4.009   2.940  17.981  0.00  0.00    +0.000 C 
BRANCH  20  21
ATOM     21  C   UNL     1       4.127   2.603  19.456  0.00  0.00    +0.000 C 
ATOM     22  O   UNL     1       5.208   2.453  20.024  0.00  0.00    +0.000 OA
ATOM     23  N   UNL     1       2.937   2.486  20.155  0.00  0.00    +0.000 N 
ATOM     24  C   UNL     1       1.578   2.545  19.646  0.00  0.00    +0.000 C 
ATOM     25  C   UNL     1       0.788   3.070  20.833  0.00  0.00    +0.000 C 
ATOM     26  C   UNL     1       1.485   2.434  22.032  0.00  0.00    +0.000 C 
ATOM     27  C   UNL     1       2.937   2.281  21.595  0.00  0.00    +0.000 C 
ENDBRANCH  20  21
ENDBRANCH  11  20
TORSDOF 5
ENDMDL
MODEL 5
REMARK VINA RESULT:      -7.4      1.925      2.564
REMARK  Name = 
REMARK  6 active torsions:
REMARK  status: ('A' for Active; 'I' for Inactive)
REMARK    1  A    between atoms: C_1  and  C_2
REMARK    2  A    between atoms: C_3  and  C_4
REMARK    3  A    between atoms: C_4  and  C_5
REMARK    4  A    between atoms: C_5  and  N_6
REMARK    5  A    between atoms: N_19  and  C_20
REMARK    6  A    between atoms: C_20  and  C_21
REMARK                            x       y       z     vdW  Elec       q    Type
REMARK                         _______ _______ _______ _____ _____    ______ ____
ROOT
ATOM      1  C   UNL     1       2.667   7.910  17.827  0.00  0.00    +0.000 C 
ATOM      2  C   UNL     1       2.616   6.645  18.621  0.00  0.00    +0.000 A 
ATOM      3  C   UNL     1       1.940   6.354  19.798  0.00  0.00    +0.000 A 
ATOM      4  C   UNL     1       2.219   4.988  20.119  0.00  0.00    +0.000 A 
ATOM      5  C   UNL     1       1.803   4.140  21.168  0.00  0.00    +0.000 A 
ATOM      6  C   UNL     1       2.291   2.839  21.232  0.00  0.00    +0.000 A 
ATOM      7  F   UNL     1       1.899   2.042  22.236  0.00  0.00    +0.000 F 
ATOM      8  C   UNL     1       3.173   2.357  20.280  0.00  0.00    +0.000 A 
ATOM      9  C   UNL     1       3.589   3.171  19.220  0.00  0.00    +0.000 A 
ATOM     10  C   UNL     1       3.095   4.489  19.154  0.00  0.00    +0.000 A 
ATOM     11  N   UNL     1       3.302   5.506  18.235  0.00  0.00    +0.000 N 
ENDROOT
BRANCH   3  12
ATOM     12  C   UNL     1       1.043   7.263  20.592  0.00  0.00    +0.000 C 
BRANCH  12  13
ATOM     13  C   UNL     1       1.807   8.358  21.358  0.00  0.00    +0.000 C 
BRANCH  13  14
ATOM     14  N   UNL     1       1.027   9.514  21.813  0.00  0.00    +0.000 NA
ATOM     15  C   UNL     1       0.741  10.486  20.747  0.00  0.00    +0.000 C 
ATOM     16  C   UNL     1       0.099  11.741  21.354  0.00  0.00    +0.000 C 
ATOM     17  O   UNL     1      -1.123  11.416  22.035  0.00  0.00    +0.000 OA
ATOM     18  C   UNL     1      -0.880  10.440  23.062  0.00  0.00    +0.000 C 
ATOM     19  C   UNL     1      -0.237   9.164  22.487  0.00  0.00    +0.000 C 
ENDBRANCH  13  14
ENDBRANCH  12  13
ENDBRANCH   3  12
BRANCH  11  20
ATOM     20  C   UNL     1       4.023   5.349  16.971  0.00  0.00    +0.000 C 
BRANCH  20  21
ATOM     21  C   UNL     1       5.157   6.339  16.771  0.00  0.00    +0.000 C 
ATOM     22  O   UNL     1       5.106   7.258  15.955  0.00  0.00    +0.000 OA
ATOM     23  N   UNL     1       6.268   6.169  17.579  0.00  0.00    +0.000 N 
ATOM     24  C   UNL     1       6.543   5.105  18.530  0.00  0.00    +0.000 C 
ATOM     25  C   UNL     1       7.440   5.782  19.554  0.00  0.00    +0.000 C 
ATOM     26  C   UNL     1       8.272   6.746  18.713  0.00  0.00    +0.000 C 
ATOM     27  C   UNL     1       7.361   7.128  17.552  0.00  0.00    +0.000 C 
ENDBRANCH  20  21
ENDBRANCH  11  20
TORSDOF 5
ENDMDL
MODEL 6
REMARK VINA RESULT:      -7.3      2.290      8.000
REMARK  Name = 
REMARK  6 active torsions:
REMARK  status: ('A' for Active; 'I' for Inactive)
REMARK    1  A    between atoms: C_1  and  C_2
REMARK    2  A    between atoms: C_3  and  C_4
REMARK    3  A    between atoms: C_4  and  C_5
REMARK    4  A    between atoms: C_5  and  N_6
REMARK    5  A    between atoms: N_19  and  C_20
REMARK    6  A    between atoms: C_20  and  C_21
REMARK                            x       y       z     vdW  Elec       q    Type
REMARK                         _______ _______ _______ _____ _____    ______ ____
ROOT
ATOM      1  C   UNL     1       5.017   6.804  16.710  0.00  0.00    +0.000 C 
ATOM      2  C   UNL     1       4.069   5.791  17.267  0.00  0.00    +0.000 A 
ATOM      3  C   UNL     1       3.862   4.467  16.907  0.00  0.00    +0.000 A 
ATOM      4  C   UNL     1       2.850   3.947  17.775  0.00  0.00    +0.000 A 
ATOM      5  C   UNL     1       2.247   2.676  17.900  0.00  0.00    +0.000 A 
ATOM      6  C   UNL     1       1.236   2.486  18.836  0.00  0.00    +0.000 A 
ATOM      7  F   UNL     1       0.661   1.280  18.944  0.00  0.00    +0.000 F 
ATOM      8  C   UNL     1       0.815   3.520  19.656  0.00  0.00    +0.000 A 
ATOM      9  C   UNL     1       1.408   4.785  19.565  0.00  0.00    +0.000 A 
ATOM     10  C   UNL     1       2.431   4.979  18.617  0.00  0.00    +0.000 A 
ATOM     11  N   UNL     1       3.206   6.086  18.309  0.00  0.00    +0.000 N 
ENDROOT
BRANCH   3  12
ATOM     12  C   UNL     1       4.573   3.681  15.840  0.00  0.00    +0.000 C 
BRANCH  12  13
ATOM     13  C   UNL     1       6.095   3.911  15.824  0.00  0.00    +0.000 C 
BRANCH  13  14
ATOM     14  N   UNL     1       6.737   3.992  14.508  0.00  0.00    +0.000 NA
ATOM     15  C   UNL     1       5.856   3.596  13.399  0.00  0.00    +0.000 C 
ATOM     16  C   UNL     1       6.668   3.524  12.098  0.00  0.00    +0.000 C 
ATOM     17  O   UNL     1       7.267   4.793  11.794  0.00  0.00    +0.000 OA
ATOM     18  C   UNL     1       8.108   5.223  12.877  0.00  0.00    +0.000 C 
ATOM     19  C   UNL     1       7.324   5.309  14.201  0.00  0.00    +0.000 C 
ENDBRANCH  13  14
ENDBRANCH  12  13
ENDBRANCH   3  12
BRANCH  11  20
ATOM     20  C   UNL     1       3.209   7.335  19.073  0.00  0.00    +0.000 C 
BRANCH  20  21
ATOM     21  C   UNL     1       2.229   8.379  18.568  0.00  0.00    +0.000 C 
ATOM     22  O   UNL     1       2.176   8.732  17.390  0.00  0.00    +0.000 OA
ATOM     23  N   UNL     1       1.366   8.914  19.508  0.00  0.00    +0.000 N 
ATOM     24  C   UNL     1       1.334   8.686  20.943  0.00  0.00    +0.000 C 
ATOM     25  C   UNL     1      -0.130   8.902  21.293  0.00  0.00    +0.000 C 
ATOM     26  C   UNL     1      -0.558  10.021  20.349  0.00  0.00    +0.000 C 
ATOM     27  C   UNL     1       0.311   9.834  19.111  0.00  0.00    +0.000 C 
ENDBRANCH  20  21
ENDBRANCH  11  20
TORSDOF 5
ENDMDL
MODEL 7
REMARK VINA RESULT:      -7.2      2.061      2.545
REMARK  Name = 
REMARK  6 active torsions:
REMARK  status: ('A' for Active; 'I' for Inactive)
REMARK    1  A    between atoms: C_1  and  C_2
REMARK    2  A    between atoms: C_3  and  C_4
REMARK    3  A    between atoms: C_4  and  C_5
REMARK    4  A    between atoms: C_5  and  N_6
REMARK    5  A    between atoms: N_19  and  C_20
REMARK    6  A    between atoms: C_20  and  C_21
REMARK                            x       y       z     vdW  Elec       q    Type
REMARK                         _______ _______ _______ _____ _____    ______ ____
ROOT
ATOM      1  C   UNL     1       5.854   7.305  17.263  0.00  0.00    +0.000 C 
ATOM      2  C   UNL     1       4.849   6.218  17.468  0.00  0.00    +0.000 A 
ATOM      3  C   UNL     1       3.500   6.295  17.785  0.00  0.00    +0.000 A 
ATOM      4  C   UNL     1       3.003   4.955  17.846  0.00  0.00    +0.000 A 
ATOM      5  C   UNL     1       1.726   4.411  18.100  0.00  0.00    +0.000 A 
ATOM      6  C   UNL     1       1.562   3.030  18.132  0.00  0.00    +0.000 A 
ATOM      7  F   UNL     1       0.348   2.520  18.383  0.00  0.00    +0.000 F 
ATOM      8  C   UNL     1       2.630   2.177  17.911  0.00  0.00    +0.000 A 
ATOM      9  C   UNL     1       3.905   2.690  17.640  0.00  0.00    +0.000 A 
ATOM     10  C   UNL     1       4.071   4.088  17.607  0.00  0.00    +0.000 A 
ATOM     11  N   UNL     1       5.180   4.878  17.352  0.00  0.00    +0.000 N 
ENDROOT
BRANCH   3  12
ATOM     12  C   UNL     1       2.674   7.534  17.994  0.00  0.00    +0.000 C 
BRANCH  12  13
ATOM     13  C   UNL     1       2.136   7.674  19.430  0.00  0.00    +0.000 C 
BRANCH  13  14
ATOM     14  N   UNL     1       1.594   8.984  19.807  0.00  0.00    +0.000 NA
ATOM     15  C   UNL     1       0.847   9.645  18.726  0.00  0.00    +0.000 C 
ATOM     16  C   UNL     1       0.494  11.078  19.148  0.00  0.00    +0.000 C 
ATOM     17  O   UNL     1      -0.303  11.082  20.342  0.00  0.00    +0.000 OA
ATOM     18  C   UNL     1       0.389  10.411  21.409  0.00  0.00    +0.000 C 
ATOM     19  C   UNL     1       0.758   8.967  21.021  0.00  0.00    +0.000 C 
ENDBRANCH  13  14
ENDBRANCH  12  13
ENDBRANCH   3  12
BRANCH  11  20
ATOM     20  C   UNL     1       6.473   4.372  16.887  0.00  0.00    +0.000 C 
BRANCH  20  21
ATOM     21  C   UNL     1       7.052   5.127  15.705  0.00  0.00    +0.000 C 
ATOM     22  O   UNL     1       7.816   6.083  15.832  0.00  0.00    +0.000 OA
ATOM     23  N   UNL     1       6.690   4.670  14.449  0.00  0.00    +0.000 N 
ATOM     24  C   UNL     1       5.746   3.621  14.104  0.00  0.00    +0.000 C 
ATOM     25  C   UNL     1       6.279   3.100  12.779  0.00  0.00    +0.000 C 
ATOM     26  C   UNL     1       6.826   4.353  12.101  0.00  0.00    +0.000 C 
ATOM     27  C   UNL     1       7.279   5.246  13.250  0.00  0.00    +0.000 C 
ENDBRANCH  20  21
ENDBRANCH  11  20
TORSDOF 5
ENDMDL
MODEL 8
REMARK VINA RESULT:      -7.1      1.582      2.314
REMARK  Name = 
REMARK  6 active torsions:
REMARK  status: ('A' for Active; 'I' for Inactive)
REMARK    1  A    between atoms: C_1  and  C_2
REMARK    2  A    between atoms: C_3  and  C_4
REMARK    3  A    between atoms: C_4  and  C_5
REMARK    4  A    between atoms: C_5  and  N_6
REMARK    5  A    between atoms: N_19  and  C_20
REMARK    6  A    between atoms: C_20  and  C_21
REMARK                            x       y       z     vdW  Elec       q    Type
REMARK                         _______ _______ _______ _____ _____    ______ ____
ROOT
ATOM      1  C   UNL     1       2.028   9.196  18.434  0.00  0.00    +0.000 C 
ATOM      2  C   UNL     1       2.217   7.824  18.998  0.00  0.00    +0.000 A 
ATOM      3  C   UNL     1       1.679   7.244  20.138  0.00  0.00    +0.000 A 
ATOM      4  C   UNL     1       2.174   5.902  20.202  0.00  0.00    +0.000 A 
ATOM      5  C   UNL     1       1.962   4.839  21.106  0.00  0.00    +0.000 A 
ATOM      6  C   UNL     1       2.634   3.636  20.919  0.00  0.00    +0.000 A 
ATOM      7  F   UNL     1       2.436   2.633  21.787  0.00  0.00    +0.000 F 
ATOM      8  C   UNL     1       3.502   3.458  19.855  0.00  0.00    +0.000 A 
ATOM      9  C   UNL     1       3.717   4.490  18.933  0.00  0.00    +0.000 A 
ATOM     10  C   UNL     1       3.037   5.709  19.122  0.00  0.00    +0.000 A 
ATOM     11  N   UNL     1       3.028   6.883  18.386  0.00  0.00    +0.000 N 
ENDROOT
BRANCH   3  12
ATOM     12  C   UNL     1       0.725   7.861  21.122  0.00  0.00    +0.000 C 
BRANCH  12  13
ATOM     13  C   UNL     1       1.324   9.053  21.889  0.00  0.00    +0.000 C 
BRANCH  13  14
ATOM     14  N   UNL     1       0.475  10.240  22.034  0.00  0.00    +0.000 NA
ATOM     15  C   UNL     1      -0.053  10.744  20.758  0.00  0.00    +0.000 C 
ATOM     16  C   UNL     1      -0.758  12.088  20.988  0.00  0.00    +0.000 C 
ATOM     17  O   UNL     1      -1.839  11.949  21.923  0.00  0.00    +0.000 OA
ATOM     18  C   UNL     1      -1.357  11.425  23.172  0.00  0.00    +0.000 C 
ATOM     19  C   UNL     1      -0.644  10.072  22.978  0.00  0.00    +0.000 C 
ENDBRANCH  13  14
ENDBRANCH  12  13
ENDBRANCH   3  12
BRANCH  11  20
ATOM     20  C   UNL     1       3.667   7.049  17.080  0.00  0.00    +0.000 C 
BRANCH  20  21
ATOM     21  C   UNL     1       5.178   6.901  17.099  0.00  0.00    +0.000 C 
ATOM     22  O   UNL     1       5.914   7.641  17.751  0.00  0.00    +0.000 OA
ATOM     23  N   UNL     1       5.702   5.862  16.350  0.00  0.00    +0.000 N 
ATOM     24  C   UNL     1       5.007   4.946  15.460  0.00  0.00    +0.000 C 
ATOM     25  C   UNL     1       5.864   3.693  15.518  0.00  0.00    +0.000 C 
ATOM     26  C   UNL     1       7.283   4.239  15.642  0.00  0.00    +0.000 C 
ATOM     27  C   UNL     1       7.123   5.558  16.390  0.00  0.00    +0.000 C 
ENDBRANCH  20  21
ENDBRANCH  11  20
TORSDOF 5
ENDMDL
MODEL 9
REMARK VINA RESULT:      -7.1      4.062      6.843
REMARK  Name = 
REMARK  6 active torsions:
REMARK  status: ('A' for Active; 'I' for Inactive)
REMARK    1  A    between atoms: C_1  and  C_2
REMARK    2  A    between atoms: C_3  and  C_4
REMARK    3  A    between atoms: C_4  and  C_5
REMARK    4  A    between atoms: C_5  and  N_6
REMARK    5  A    between atoms: N_19  and  C_20
REMARK    6  A    between atoms: C_20  and  C_21
REMARK                            x       y       z     vdW  Elec       q    Type
REMARK                         _______ _______ _______ _____ _____    ______ ____
ROOT
ATOM      1  C   UNL     1       7.287   4.490  17.511  0.00  0.00    +0.000 C 
ATOM      2  C   UNL     1       6.095   5.390  17.569  0.00  0.00    +0.000 A 
ATOM      3  C   UNL     1       5.998   6.761  17.374  0.00  0.00    +0.000 A 
ATOM      4  C   UNL     1       4.620   7.113  17.528  0.00  0.00    +0.000 A 
ATOM      5  C   UNL     1       3.921   8.335  17.425  0.00  0.00    +0.000 A 
ATOM      6  C   UNL     1       2.553   8.366  17.677  0.00  0.00    +0.000 A 
ATOM      7  F   UNL     1       1.896   9.531  17.587  0.00  0.00    +0.000 F 
ATOM      8  C   UNL     1       1.862   7.216  18.019  0.00  0.00    +0.000 A 
ATOM      9  C   UNL     1       2.528   5.987  18.111  0.00  0.00    +0.000 A 
ATOM     10  C   UNL     1       3.913   5.956  17.856  0.00  0.00    +0.000 A 
ATOM     11  N   UNL     1       4.825   4.913  17.849  0.00  0.00    +0.000 N 
ENDROOT
BRANCH   3  12
ATOM     12  C   UNL     1       7.103   7.721  17.028  0.00  0.00    +0.000 C 
BRANCH  12  13
ATOM     13  C   UNL     1       8.037   8.030  18.211  0.00  0.00    +0.000 C 
BRANCH  13  14
ATOM     14  N   UNL     1       8.658   9.359  18.233  0.00  0.00    +0.000 NA
ATOM     15  C   UNL     1       7.773  10.429  17.749  0.00  0.00    +0.000 C 
ATOM     16  C   UNL     1       8.568  11.736  17.624  0.00  0.00    +0.000 C 
ATOM     17  O   UNL     1       9.128  12.122  18.889  0.00  0.00    +0.000 OA
ATOM     18  C   UNL     1       9.972  11.079  19.403  0.00  0.00    +0.000 C 
ATOM     19  C   UNL     1       9.204   9.751  19.545  0.00  0.00    +0.000 C 
ENDBRANCH  13  14
ENDBRANCH  12  13
ENDBRANCH   3  12
BRANCH  11  20
ATOM     20  C   UNL     1       4.471   3.498  17.976  0.00  0.00    +0.000 C 
BRANCH  20  21
ATOM     21  C   UNL     1       4.337   3.013  19.408  0.00  0.00    +0.000 C 
ATOM     22  O   UNL     1       5.306   2.755  20.121  0.00  0.00    +0.000 OA
ATOM     23  N   UNL     1       3.046   2.889  19.894  0.00  0.00    +0.000 N 
ATOM     24  C   UNL     1       1.790   3.065  19.186  0.00  0.00    +0.000 C 
ATOM     25  C   UNL     1       0.836   3.511  20.282  0.00  0.00    +0.000 C 
ATOM     26  C   UNL     1       1.308   2.726  21.503  0.00  0.00    +0.000 C 
ATOM     27  C   UNL     1       2.806   2.544  21.287  0.00  0.00    +0.000 C 
ENDBRANCH  20  21
ENDBRANCH  11  20
TORSDOF 5
ENDMDL
