MODEL 1
REMARK VINA RESULT:      -6.7      0.000      0.000
REMARK  Name = 
REMARK  9 active torsions:
REMARK  status: ('A' for Active; 'I' for Inactive)
REMARK    1  A    between atoms: C_1  and  C_2
REMARK    2  A    between atoms: C_5  and  N_6
REMARK    3  A    between atoms: C_10  and  N_11
REMARK    4  A    between atoms: N_11  and  C_12
REMARK    5  A    between atoms: C_12  and  C_13
REMARK    6  A    between atoms: C_13  and  C_14
REMARK    7  A    between atoms: C_14  and  N_15
REMARK    8  A    between atoms: N_15  and  C_16
REMARK    9  A    between atoms: N_15  and  C_17
REMARK                            x       y       z     vdW  Elec       q    Type
REMARK                         _______ _______ _______ _____ _____    ______ ____
ROOT
ATOM      1  C   UNL     1      -4.201  13.926  21.081  0.00  0.00    +0.000 C 
ATOM      2  C   UNL     1      -2.940  13.106  21.222  0.00  0.00    +0.000 A 
ATOM      3  C   UNL     1      -2.202  13.226  22.402  0.00  0.00    +0.000 A 
ATOM      4  C   UNL     1      -0.967  12.622  22.484  0.00  0.00    +0.000 A 
ATOM      5  C   UNL     1      -0.518  11.865  21.392  0.00  0.00    +0.000 A 
ATOM      6  C   UNL     1      -1.321  11.537  20.247  0.00  0.00    +0.000 A 
ATOM      7  C   UNL     1      -1.096  10.588  19.168  0.00  0.00    +0.000 A 
ATOM      8  C   UNL     1      -1.964  10.593  18.028  0.00  0.00    +0.000 A 
ATOM      9  C   UNL     1      -1.799   9.771  16.880  0.00  0.00    +0.000 A 
ATOM     10  C   UNL     1      -2.696   9.815  15.809  0.00  0.00    +0.000 A 
ATOM     11  C   UNL     1      -3.780  10.676  15.866  0.00  0.00    +0.000 A 
ATOM     12  C   UNL     1      -3.956  11.478  16.992  0.00  0.00    +0.000 A 
ATOM     13  C   UNL     1      -3.073  11.444  18.065  0.00  0.00    +0.000 A 
ATOM     14  N   UNL     1      -3.346  12.222  19.112  0.00  0.00    +0.000 NA
ATOM     15  C   UNL     1      -2.529  12.269  20.170  0.00  0.00    +0.000 A 
ENDROOT
BRANCH   5  16
ATOM     16  N   UNL     1       0.908  11.572  21.424  0.00  0.00    +0.000 N 
ATOM     17  O   UNL     1       1.239  10.458  21.854  0.00  0.00    +0.000 OA
ATOM     18  O   UNL     1       1.684  12.468  21.062  0.00  0.00    +0.000 OA
ENDBRANCH   5  16
BRANCH   7  19
ATOM     19  N   UNL     1      -0.043   9.646  19.117  0.00  0.00    +0.000 N 
ATOM     20  H   UNL     1      -0.402   8.703  18.959  0.00  0.00    +0.000 HD
BRANCH  19  21
ATOM     21  C   UNL     1       1.215   9.907  18.438  0.00  0.00    +0.000 C 
BRANCH  21  22
ATOM     22  C   UNL     1       1.830   8.678  17.784  0.00  0.00    +0.000 C 
BRANCH  22  23
ATOM     23  C   UNL     1       2.290   7.778  18.936  0.00  0.00    +0.000 C 
BRANCH  23  24
ATOM     24  N   UNL     1       3.031   6.514  18.560  0.00  0.00    +0.000 N 
ATOM     25  C   UNL     1       2.032   5.542  17.980  0.00  0.00    +0.000 C 
ATOM     26  C   UNL     1       4.089   6.794  17.529  0.00  0.00    +0.000 C 
ATOM     27  O   UNL     1       3.601   5.960  19.672  0.00  0.00    +0.000 OA
ENDBRANCH  23  24
ENDBRANCH  22  23
ENDBRANCH  21  22
ENDBRANCH  19  21
ENDBRANCH   7  19
TORSDOF 6
ENDMDL
MODEL 2
REMARK VINA RESULT:      -6.1      3.372      5.728
REMARK  Name = 
REMARK  9 active torsions:
REMARK  status: ('A' for Active; 'I' for Inactive)
REMARK    1  A    between atoms: C_1  and  C_2
REMARK    2  A    between atoms: C_5  and  N_6
REMARK    3  A    between atoms: C_10  and  N_11
REMARK    4  A    between atoms: N_11  and  C_12
REMARK    5  A    between atoms: C_12  and  C_13
REMARK    6  A    between atoms: C_13  and  C_14
REMARK    7  A    between atoms: C_14  and  N_15
REMARK    8  A    between atoms: N_15  and  C_16
REMARK    9  A    between atoms: N_15  and  C_17
REMARK                            x       y       z     vdW  Elec       q    Type
REMARK                         _______ _______ _______ _____ _____    ______ ____
ROOT
ATOM      1  C   UNL     1      -0.458   9.250  23.501  0.00  0.00    +0.000 C 
ATOM      2  C   UNL     1      -0.363  10.298  22.417  0.00  0.00    +0.000 A 
ATOM      3  C   UNL     1      -0.950  11.545  22.650  0.00  0.00    +0.000 A 
ATOM      4  C   UNL     1      -1.024  12.453  21.618  0.00  0.00    +0.000 A 
ATOM      5  C   UNL     1      -0.460  12.109  20.380  0.00  0.00    +0.000 A 
ATOM      6  C   UNL     1       0.335  10.935  20.150  0.00  0.00    +0.000 A 
ATOM      7  C   UNL     1       1.172  10.560  19.021  0.00  0.00    +0.000 A 
ATOM      8  C   UNL     1       1.708   9.234  18.947  0.00  0.00    +0.000 A 
ATOM      9  C   UNL     1       2.470   8.727  17.859  0.00  0.00    +0.000 A 
ATOM     10  C   UNL     1       2.978   7.425  17.860  0.00  0.00    +0.000 A 
ATOM     11  C   UNL     1       2.741   6.604  18.951  0.00  0.00    +0.000 A 
ATOM     12  C   UNL     1       2.003   7.095  20.027  0.00  0.00    +0.000 A 
ATOM     13  C   UNL     1       1.493   8.389  20.040  0.00  0.00    +0.000 A 
ATOM     14  N   UNL     1       0.832   8.778  21.129  0.00  0.00    +0.000 NA
ATOM     15  C   UNL     1       0.284   9.996  21.206  0.00  0.00    +0.000 A 
ENDROOT
BRANCH   5  16
ATOM     16  N   UNL     1      -0.891  12.958  19.279  0.00  0.00    +0.000 N 
ATOM     17  O   UNL     1      -1.359  12.387  18.284  0.00  0.00    +0.000 OA
ATOM     18  O   UNL     1      -0.717  14.179  19.397  0.00  0.00    +0.000 OA
ENDBRANCH   5  16
BRANCH   7  19
ATOM     19  N   UNL     1       1.493  11.400  17.930  0.00  0.00    +0.000 N 
ATOM     20  H   UNL     1       0.658  11.865  17.567  0.00  0.00    +0.000 HD
BRANCH  19  21
ATOM     21  C   UNL     1       2.679  12.239  17.904  0.00  0.00    +0.000 C 
BRANCH  21  22
ATOM     22  C   UNL     1       2.404  13.706  18.198  0.00  0.00    +0.000 C 
BRANCH  22  23
ATOM     23  C   UNL     1       2.897  13.945  19.629  0.00  0.00    +0.000 C 
BRANCH  23  24
ATOM     24  N   UNL     1       3.744  15.176  19.863  0.00  0.00    +0.000 N 
ATOM     25  C   UNL     1       4.751  14.853  20.942  0.00  0.00    +0.000 C 
ATOM     26  C   UNL     1       4.483  15.569  18.614  0.00  0.00    +0.000 C 
ATOM     27  O   UNL     1       2.956  16.211  20.282  0.00  0.00    +0.000 OA
ENDBRANCH  23  24
ENDBRANCH  22  23
ENDBRANCH  21  22
ENDBRANCH  19  21
ENDBRANCH   7  19
TORSDOF 6
ENDMDL
MODEL 3
REMARK VINA RESULT:      -6.1      3.363      5.850
REMARK  Name = 
REMARK  9 active torsions:
REMARK  status: ('A' for Active; 'I' for Inactive)
REMARK    1  A    between atoms: C_1  and  C_2
REMARK    2  A    between atoms: C_5  and  N_6
REMARK    3  A    between atoms: C_10  and  N_11
REMARK    4  A    between atoms: N_11  and  C_12
REMARK    5  A    between atoms: C_12  and  C_13
REMARK    6  A    between atoms: C_13  and  C_14
REMARK    7  A    between atoms: C_14  and  N_15
REMARK    8  A    between atoms: N_15  and  C_16
REMARK    9  A    between atoms: N_15  and  C_17
REMARK                            x       y       z     vdW  Elec       q    Type
REMARK                         _______ _______ _______ _____ _____    ______ ____
ROOT
ATOM      1  C   UNL     1      -0.383   9.112  23.594  0.00  0.00    +0.000 C 
ATOM      2  C   UNL     1      -0.337  10.161  22.508  0.00  0.00    +0.000 A 
ATOM      3  C   UNL     1      -0.947  11.394  22.753  0.00  0.00    +0.000 A 
ATOM      4  C   UNL     1      -1.065  12.299  21.722  0.00  0.00    +0.000 A 
ATOM      5  C   UNL     1      -0.521  11.967  20.472  0.00  0.00    +0.000 A 
ATOM      6  C   UNL     1       0.296  10.811  20.225  0.00  0.00    +0.000 A 
ATOM      7  C   UNL     1       1.115  10.454  19.078  0.00  0.00    +0.000 A 
ATOM      8  C   UNL     1       1.680   9.140  18.992  0.00  0.00    +0.000 A 
ATOM      9  C   UNL     1       2.429   8.650  17.888  0.00  0.00    +0.000 A 
ATOM     10  C   UNL     1       2.966   7.360  17.878  0.00  0.00    +0.000 A 
ATOM     11  C   UNL     1       2.773   6.535  18.975  0.00  0.00    +0.000 A 
ATOM     12  C   UNL     1       2.048   7.010  20.067  0.00  0.00    +0.000 A 
ATOM     13  C   UNL     1       1.509   8.292  20.090  0.00  0.00    +0.000 A 
ATOM     14  N   UNL     1       0.863   8.667  21.194  0.00  0.00    +0.000 NA
ATOM     15  C   UNL     1       0.290   9.872  21.282  0.00  0.00    +0.000 A 
ENDROOT
BRANCH   5  16
ATOM     16  N   UNL     1      -0.995  12.805  19.380  0.00  0.00    +0.000 N 
ATOM     17  O   UNL     1      -0.872  14.030  19.523  0.00  0.00    +0.000 OA
ATOM     18  O   UNL     1      -1.525  12.238  18.414  0.00  0.00    +0.000 OA
ENDBRANCH   5  16
BRANCH   7  19
ATOM     19  N   UNL     1       1.393  11.300  17.979  0.00  0.00    +0.000 N 
ATOM     20  H   UNL     1       0.543  11.760  17.647  0.00  0.00    +0.000 HD
BRANCH  19  21
ATOM     21  C   UNL     1       2.571  12.147  17.915  0.00  0.00    +0.000 C 
BRANCH  21  22
ATOM     22  C   UNL     1       2.636  13.200  19.011  0.00  0.00    +0.000 C 
BRANCH  22  23
ATOM     23  C   UNL     1       2.480  14.550  18.302  0.00  0.00    +0.000 C 
BRANCH  23  24
ATOM     24  N   UNL     1       3.639  15.516  18.412  0.00  0.00    +0.000 N 
ATOM     25  C   UNL     1       3.129  16.898  18.079  0.00  0.00    +0.000 C 
ATOM     26  C   UNL     1       4.200  15.531  19.806  0.00  0.00    +0.000 C 
ATOM     27  O   UNL     1       4.617  15.174  17.521  0.00  0.00    +0.000 OA
ENDBRANCH  23  24
ENDBRANCH  22  23
ENDBRANCH  21  22
ENDBRANCH  19  21
ENDBRANCH   7  19
TORSDOF 6
ENDMDL
MODEL 4
REMARK VINA RESULT:      -6.0      2.731      8.597
REMARK  Name = 
REMARK  9 active torsions:
REMARK  status: ('A' for Active; 'I' for Inactive)
REMARK    1  A    between atoms: C_1  and  C_2
REMARK    2  A    between atoms: C_5  and  N_6
REMARK    3  A    between atoms: C_10  and  N_11
REMARK    4  A    between atoms: N_11  and  C_12
REMARK    5  A    between atoms: C_12  and  C_13
REMARK    6  A    between atoms: C_13  and  C_14
REMARK    7  A    between atoms: C_14  and  N_15
REMARK    8  A    between atoms: N_15  and  C_16
REMARK    9  A    between atoms: N_15  and  C_17
REMARK                            x       y       z     vdW  Elec       q    Type
REMARK                         _______ _______ _______ _____ _____    ______ ____
ROOT
ATOM      1  C   UNL     1       4.421   1.196  19.629  0.00  0.00    +0.000 C 
ATOM      2  C   UNL     1       3.798   2.528  19.976  0.00  0.00    +0.000 A 
ATOM      3  C   UNL     1       3.091   2.635  21.176  0.00  0.00    +0.000 A 
ATOM      4  C   UNL     1       2.375   3.783  21.432  0.00  0.00    +0.000 A 
ATOM      5  C   UNL     1       2.424   4.826  20.495  0.00  0.00    +0.000 A 
ATOM      6  C   UNL     1       3.298   4.852  19.356  0.00  0.00    +0.000 A 
ATOM      7  C   UNL     1       3.639   5.932  18.443  0.00  0.00    +0.000 A 
ATOM      8  C   UNL     1       4.388   5.647  17.256  0.00  0.00    +0.000 A 
ATOM      9  C   UNL     1       4.713   6.601  16.253  0.00  0.00    +0.000 A 
ATOM     10  C   UNL     1       5.464   6.256  15.126  0.00  0.00    +0.000 A 
ATOM     11  C   UNL     1       5.912   4.953  14.980  0.00  0.00    +0.000 A 
ATOM     12  C   UNL     1       5.608   4.013  15.963  0.00  0.00    +0.000 A 
ATOM     13  C   UNL     1       4.863   4.342  17.091  0.00  0.00    +0.000 A 
ATOM     14  N   UNL     1       4.654   3.383  17.992  0.00  0.00    +0.000 NA
ATOM     15  C   UNL     1       3.922   3.611  19.087  0.00  0.00    +0.000 A 
ENDROOT
BRANCH   5  16
ATOM     16  N   UNL     1       1.381   5.826  20.671  0.00  0.00    +0.000 N 
ATOM     17  O   UNL     1       1.741   6.944  21.067  0.00  0.00    +0.000 OA
ATOM     18  O   UNL     1       0.212   5.476  20.455  0.00  0.00    +0.000 OA
ENDBRANCH   5  16
BRANCH   7  19
ATOM     19  N   UNL     1       3.261   7.285  18.604  0.00  0.00    +0.000 N 
ATOM     20  H   UNL     1       4.080   7.896  18.613  0.00  0.00    +0.000 HD
BRANCH  19  21
ATOM     21  C   UNL     1       2.113   7.867  17.930  0.00  0.00    +0.000 C 
BRANCH  21  22
ATOM     22  C   UNL     1       2.073   9.387  17.981  0.00  0.00    +0.000 C 
BRANCH  22  23
ATOM     23  C   UNL     1       0.593   9.762  18.121  0.00  0.00    +0.000 C 
BRANCH  23  24
ATOM     24  N   UNL     1       0.220  10.642  19.293  0.00  0.00    +0.000 N 
ATOM     25  C   UNL     1       1.061  11.894  19.225  0.00  0.00    +0.000 C 
ATOM     26  C   UNL     1      -1.231  11.030  19.237  0.00  0.00    +0.000 C 
ATOM     27  O   UNL     1       0.481   9.991  20.467  0.00  0.00    +0.000 OA
ENDBRANCH  23  24
ENDBRANCH  22  23
ENDBRANCH  21  22
ENDBRANCH  19  21
ENDBRANCH   7  19
TORSDOF 6
ENDMDL
MODEL 5
REMARK VINA RESULT:      -6.0      2.863      8.628
REMARK  Name = 
REMARK  9 active torsions:
REMARK  status: ('A' for Active; 'I' for Inactive)
REMARK    1  A    between atoms: C_1  and  C_2
REMARK    2  A    between atoms: C_5  and  N_6
REMARK    3  A    between atoms: C_10  and  N_11
REMARK    4  A    between atoms: N_11  and  C_12
REMARK    5  A    between atoms: C_12  and  C_13
REMARK    6  A    between atoms: C_13  and  C_14
REMARK    7  A    between atoms: C_14  and  N_15
REMARK    8  A    between atoms: N_15  and  C_16
REMARK    9  A    between atoms: N_15  and  C_17
REMARK                            x       y       z     vdW  Elec       q    Type
REMARK                         _______ _______ _______ _____ _____    ______ ____
ROOT
ATOM      1  C   UNL     1       4.564   1.214  19.766  0.00  0.00    +0.000 C 
ATOM      2  C   UNL     1       3.885   2.524  20.094  0.00  0.00    +0.000 A 
ATOM      3  C   UNL     1       3.153   2.610  21.280  0.00  0.00    +0.000 A 
ATOM      4  C   UNL     1       2.390   3.732  21.517  0.00  0.00    +0.000 A 
ATOM      5  C   UNL     1       2.417   4.771  20.575  0.00  0.00    +0.000 A 
ATOM      6  C   UNL     1       3.309   4.823  19.451  0.00  0.00    +0.000 A 
ATOM      7  C   UNL     1       3.626   5.910  18.538  0.00  0.00    +0.000 A 
ATOM      8  C   UNL     1       4.406   5.647  17.366  0.00  0.00    +0.000 A 
ATOM      9  C   UNL     1       4.712   6.607  16.363  0.00  0.00    +0.000 A 
ATOM     10  C   UNL     1       5.495   6.285  15.251  0.00  0.00    +0.000 A 
ATOM     11  C   UNL     1       5.994   4.999  15.121  0.00  0.00    +0.000 A 
ATOM     12  C   UNL     1       5.708   4.053  16.105  0.00  0.00    +0.000 A 
ATOM     13  C   UNL     1       4.932   4.361  17.217  0.00  0.00    +0.000 A 
ATOM     14  N   UNL     1       4.744   3.399  18.120  0.00  0.00    +0.000 NA
ATOM     15  C   UNL     1       3.984   3.606  19.201  0.00  0.00    +0.000 A 
ENDROOT
BRANCH   5  16
ATOM     16  N   UNL     1       1.334   5.732  20.726  0.00  0.00    +0.000 N 
ATOM     17  O   UNL     1       0.194   5.338  20.438  0.00  0.00    +0.000 OA
ATOM     18  O   UNL     1       1.634   6.879  21.085  0.00  0.00    +0.000 OA
ENDBRANCH   5  16
BRANCH   7  19
ATOM     19  N   UNL     1       3.193   7.249  18.683  0.00  0.00    +0.000 N 
ATOM     20  H   UNL     1       3.990   7.889  18.728  0.00  0.00    +0.000 HD
BRANCH  19  21
ATOM     21  C   UNL     1       2.056   7.793  17.962  0.00  0.00    +0.000 C 
BRANCH  21  22
ATOM     22  C   UNL     1       2.039   9.313  17.890  0.00  0.00    +0.000 C 
BRANCH  22  23
ATOM     23  C   UNL     1       0.925   9.764  18.840  0.00  0.00    +0.000 C 
BRANCH  23  24
ATOM     24  N   UNL     1       0.878  11.236  19.186  0.00  0.00    +0.000 N 
ATOM     25  C   UNL     1      -0.418  11.799  18.653  0.00  0.00    +0.000 C 
ATOM     26  C   UNL     1       0.919  11.443  20.674  0.00  0.00    +0.000 C 
ATOM     27  O   UNL     1       1.925  11.887  18.597  0.00  0.00    +0.000 OA
ENDBRANCH  23  24
ENDBRANCH  22  23
ENDBRANCH  21  22
ENDBRANCH  19  21
ENDBRANCH   7  19
TORSDOF 6
ENDMDL
MODEL 6
REMARK VINA RESULT:      -5.8      2.401      3.453
REMARK  Name = 
REMARK  9 active torsions:
REMARK  status: ('A' for Active; 'I' for Inactive)
REMARK    1  A    between atoms: C_1  and  C_2
REMARK    2  A    between atoms: C_5  and  N_6
REMARK    3  A    between atoms: C_10  and  N_11
REMARK    4  A    between atoms: N_11  and  C_12
REMARK    5  A    between atoms: C_12  and  C_13
REMARK    6  A    between atoms: C_13  and  C_14
REMARK    7  A    between atoms: C_14  and  N_15
REMARK    8  A    between atoms: N_15  and  C_16
REMARK    9  A    between atoms: N_15  and  C_17
REMARK                            x       y       z     vdW  Elec       q    Type
REMARK                         _______ _______ _______ _____ _____    ______ ____
ROOT
ATOM      1  C   UNL     1      -4.111  13.079  24.354  0.00  0.00    +0.000 C 
ATOM      2  C   UNL     1      -3.054  13.124  23.274  0.00  0.00    +0.000 A 
ATOM      3  C   UNL     1      -1.755  13.488  23.636  0.00  0.00    +0.000 A 
ATOM      4  C   UNL     1      -0.819  13.699  22.649  0.00  0.00    +0.000 A 
ATOM      5  C   UNL     1      -1.195  13.493  21.313  0.00  0.00    +0.000 A 
ATOM      6  C   UNL     1      -2.447  12.919  20.904  0.00  0.00    +0.000 A 
ATOM      7  C   UNL     1      -2.889  12.428  19.608  0.00  0.00    +0.000 A 
ATOM      8  C   UNL     1      -4.265  12.085  19.412  0.00  0.00    +0.000 A 
ATOM      9  C   UNL     1      -4.830  11.670  18.174  0.00  0.00    +0.000 A 
ATOM     10  C   UNL     1      -6.181  11.334  18.058  0.00  0.00    +0.000 A 
ATOM     11  C   UNL     1      -6.996  11.398  19.177  0.00  0.00    +0.000 A 
ATOM     12  C   UNL     1      -6.449  11.793  20.397  0.00  0.00    +0.000 A 
ATOM     13  C   UNL     1      -5.106  12.129  20.527  0.00  0.00    +0.000 A 
ATOM     14  N   UNL     1      -4.670  12.460  21.742  0.00  0.00    +0.000 NA
ATOM     15  C   UNL     1      -3.399  12.826  21.944  0.00  0.00    +0.000 A 
ENDROOT
BRANCH   5  16
ATOM     16  N   UNL     1      -0.276  14.072  20.345  0.00  0.00    +0.000 N 
ATOM     17  O   UNL     1       0.896  13.670  20.379  0.00  0.00    +0.000 OA
ATOM     18  O   UNL     1      -0.718  14.951  19.591  0.00  0.00    +0.000 OA
ENDBRANCH   5  16
BRANCH   7  19
ATOM     19  N   UNL     1      -2.065  12.281  18.468  0.00  0.00    +0.000 N 
ATOM     20  H   UNL     1      -1.800  13.191  18.087  0.00  0.00    +0.000 HD
BRANCH  19  21
ATOM     21  C   UNL     1      -1.006  11.290  18.383  0.00  0.00    +0.000 C 
BRANCH  21  22
ATOM     22  C   UNL     1      -1.001  10.292  19.532  0.00  0.00    +0.000 C 
BRANCH  22  23
ATOM     23  C   UNL     1       0.450  10.224  20.020  0.00  0.00    +0.000 C 
BRANCH  23  24
ATOM     24  N   UNL     1       0.753   9.238  21.126  0.00  0.00    +0.000 N 
ATOM     25  C   UNL     1      -0.560   8.702  21.646  0.00  0.00    +0.000 C 
ATOM     26  C   UNL     1       1.577   8.089  20.617  0.00  0.00    +0.000 C 
ATOM     27  O   UNL     1       1.413   9.868  22.144  0.00  0.00    +0.000 OA
ENDBRANCH  23  24
ENDBRANCH  22  23
ENDBRANCH  21  22
ENDBRANCH  19  21
ENDBRANCH   7  19
TORSDOF 6
ENDMDL
MODEL 7
REMARK VINA RESULT:      -5.8      2.708      4.980
REMARK  Name = 
REMARK  9 active torsions:
REMARK  status: ('A' for Active; 'I' for Inactive)
REMARK    1  A    between atoms: C_1  and  C_2
REMARK    2  A    between atoms: C_5  and  N_6
REMARK    3  A    between atoms: C_10  and  N_11
REMARK    4  A    between atoms: N_11  and  C_12
REMARK    5  A    between atoms: C_12  and  C_13
REMARK    6  A    between atoms: C_13  and  C_14
REMARK    7  A    between atoms: C_14  and  N_15
REMARK    8  A    between atoms: N_15  and  C_16
REMARK    9  A    between atoms: N_15  and  C_17
REMARK                            x       y       z     vdW  Elec       q    Type
REMARK                         _______ _______ _______ _____ _____    ______ ____
ROOT
ATOM      1  C   UNL     1      -1.617  14.938  23.230  0.00  0.00    +0.000 C 
ATOM      2  C   UNL     1      -1.307  13.514  22.831  0.00  0.00    +0.000 A 
ATOM      3  C   UNL     1      -1.967  12.481  23.501  0.00  0.00    +0.000 A 
ATOM      4  C   UNL     1      -1.578  11.179  23.274  0.00  0.00    +0.000 A 
ATOM      5  C   UNL     1      -0.563  10.936  22.337  0.00  0.00    +0.000 A 
ATOM      6  C   UNL     1      -0.003  11.937  21.472  0.00  0.00    +0.000 A 
ATOM      7  C   UNL     1       0.863  11.813  20.309  0.00  0.00    +0.000 A 
ATOM      8  C   UNL     1       1.450  12.986  19.734  0.00  0.00    +0.000 A 
ATOM      9  C   UNL     1       2.371  12.984  18.650  0.00  0.00    +0.000 A 
ATOM     10  C   UNL     1       2.893  14.170  18.127  0.00  0.00    +0.000 A 
ATOM     11  C   UNL     1       2.501  15.383  18.671  0.00  0.00    +0.000 A 
ATOM     12  C   UNL     1       1.591  15.396  19.726  0.00  0.00    +0.000 A 
ATOM     13  C   UNL     1       1.063  14.223  20.256  0.00  0.00    +0.000 A 
ATOM     14  N   UNL     1       0.172  14.340  21.241  0.00  0.00    +0.000 NA
ATOM     15  C   UNL     1      -0.359  13.260  21.824  0.00  0.00    +0.000 A 
ENDROOT
BRANCH   5  16
ATOM     16  N   UNL     1       0.015   9.604  22.424  0.00  0.00    +0.000 N 
ATOM     17  O   UNL     1       1.234   9.537  22.640  0.00  0.00    +0.000 OA
ATOM     18  O   UNL     1      -0.740   8.640  22.233  0.00  0.00    +0.000 OA
ENDBRANCH   5  16
BRANCH   7  19
ATOM     19  N   UNL     1       1.221  10.595  19.686  0.00  0.00    +0.000 N 
ATOM     20  H   UNL     1       1.916  10.090  20.240  0.00  0.00    +0.000 HD
BRANCH  19  21
ATOM     21  C   UNL     1       0.252   9.724  19.044  0.00  0.00    +0.000 C 
BRANCH  21  22
ATOM     22  C   UNL     1      -0.419  10.340  17.825  0.00  0.00    +0.000 C 
BRANCH  22  23
ATOM     23  C   UNL     1      -1.772  10.866  18.315  0.00  0.00    +0.000 C 
BRANCH  23  24
ATOM     24  N   UNL     1      -2.980  10.545  17.462  0.00  0.00    +0.000 N 
ATOM     25  C   UNL     1      -4.079  11.514  17.825  0.00  0.00    +0.000 C 
ATOM     26  C   UNL     1      -2.665  10.694  16.001  0.00  0.00    +0.000 C 
ATOM     27  O   UNL     1      -3.405   9.271  17.718  0.00  0.00    +0.000 OA
ENDBRANCH  23  24
ENDBRANCH  22  23
ENDBRANCH  21  22
ENDBRANCH  19  21
ENDBRANCH   7  19
TORSDOF 6
ENDMDL
MODEL 8
REMARK VINA RESULT:      -5.7      3.383      5.760
REMARK  Name = 
REMARK  9 active torsions:
REMARK  status: ('A' for Active; 'I' for Inactive)
REMARK    1  A    between atoms: C_1  and  C_2
REMARK    2  A    between atoms: C_5  and  N_6
REMARK    3  A    between atoms: C_10  and  N_11
REMARK    4  A    between atoms: N_11  and  C_12
REMARK    5  A    between atoms: C_12  and  C_13
REMARK    6  A    between atoms: C_13  and  C_14
REMARK    7  A    between atoms: C_14  and  N_15
REMARK    8  A    between atoms: N_15  and  C_16
REMARK    9  A    between atoms: N_15  and  C_17
REMARK                            x       y       z     vdW  Elec       q    Type
REMARK                         _______ _______ _______ _____ _____    ______ ____
ROOT
ATOM      1  C   UNL     1      -0.279   9.257  23.700  0.00  0.00    +0.000 C 
ATOM      2  C   UNL     1      -0.427  10.362  22.680  0.00  0.00    +0.000 A 
ATOM      3  C   UNL     1      -1.123  11.515  23.051  0.00  0.00    +0.000 A 
ATOM      4  C   UNL     1      -1.416  12.458  22.092  0.00  0.00    +0.000 A 
ATOM      5  C   UNL     1      -0.960  12.247  20.782  0.00  0.00    +0.000 A 
ATOM      6  C   UNL     1      -0.066  11.190  20.396  0.00  0.00    +0.000 A 
ATOM      7  C   UNL     1       0.675  10.975  19.163  0.00  0.00    +0.000 A 
ATOM      8  C   UNL     1       1.348   9.729  18.949  0.00  0.00    +0.000 A 
ATOM      9  C   UNL     1       2.036   9.372  17.757  0.00  0.00    +0.000 A 
ATOM     10  C   UNL     1       2.686   8.143  17.623  0.00  0.00    +0.000 A 
ATOM     11  C   UNL     1       2.669   7.246  18.679  0.00  0.00    +0.000 A 
ATOM     12  C   UNL     1       2.006   7.591  19.856  0.00  0.00    +0.000 A 
ATOM     13  C   UNL     1       1.356   8.811  20.004  0.00  0.00    +0.000 A 
ATOM     14  N   UNL     1       0.781   9.063  21.179  0.00  0.00    +0.000 NA
ATOM     15  C   UNL     1       0.110  10.201  21.391  0.00  0.00    +0.000 A 
ENDROOT
BRANCH   5  16
ATOM     16  N   UNL     1      -1.606  13.091  19.788  0.00  0.00    +0.000 N 
ATOM     17  O   UNL     1      -1.432  14.314  19.897  0.00  0.00    +0.000 OA
ATOM     18  O   UNL     1      -2.314  12.533  18.938  0.00  0.00    +0.000 OA
ENDBRANCH   5  16
BRANCH   7  19
ATOM     19  N   UNL     1       0.774  11.901  18.099  0.00  0.00    +0.000 N 
ATOM     20  H   UNL     1      -0.137  12.054  17.660  0.00  0.00    +0.000 HD
BRANCH  19  21
ATOM     21  C   UNL     1       1.588  13.102  18.172  0.00  0.00    +0.000 C 
BRANCH  21  22
ATOM     22  C   UNL     1       2.446  13.191  19.425  0.00  0.00    +0.000 C 
BRANCH  22  23
ATOM     23  C   UNL     1       2.186  14.583  20.011  0.00  0.00    +0.000 C 
BRANCH  23  24
ATOM     24  N   UNL     1       3.398  15.384  20.431  0.00  0.00    +0.000 N 
ATOM     25  C   UNL     1       2.953  16.805  20.686  0.00  0.00    +0.000 C 
ATOM     26  C   UNL     1       4.003  14.832  21.691  0.00  0.00    +0.000 C 
ATOM     27  O   UNL     1       4.328  15.381  19.429  0.00  0.00    +0.000 OA
ENDBRANCH  23  24
ENDBRANCH  22  23
ENDBRANCH  21  22
ENDBRANCH  19  21
ENDBRANCH   7  19
TORSDOF 6
ENDMDL
MODEL 9
REMARK VINA RESULT:      -5.7      3.210      5.667
REMARK  Name = 
REMARK  9 active torsions:
REMARK  status: ('A' for Active; 'I' for Inactive)
REMARK    1  A    between atoms: C_1  and  C_2
REMARK    2  A    between atoms: C_5  and  N_6
REMARK    3  A    between atoms: C_10  and  N_11
REMARK    4  A    between atoms: N_11  and  C_12
REMARK    5  A    between atoms: C_12  and  C_13
REMARK    6  A    between atoms: C_13  and  C_14
REMARK    7  A    between atoms: C_14  and  N_15
REMARK    8  A    between atoms: N_15  and  C_16
REMARK    9  A    between atoms: N_15  and  C_17
REMARK                            x       y       z     vdW  Elec       q    Type
REMARK                         _______ _______ _______ _____ _____    ______ ____
ROOT
ATOM      1  C   UNL     1      -2.511  10.603  16.108  0.00  0.00    +0.000 C 
ATOM      2  C   UNL     1      -3.192  11.025  17.389  0.00  0.00    +0.000 A 
ATOM      3  C   UNL     1      -4.480  10.546  17.642  0.00  0.00    +0.000 A 
ATOM      4  C   UNL     1      -5.183  11.048  18.714  0.00  0.00    +0.000 A 
ATOM      5  C   UNL     1      -4.556  11.989  19.545  0.00  0.00    +0.000 A 
ATOM      6  C   UNL     1      -3.170  12.354  19.454  0.00  0.00    +0.000 A 
ATOM      7  C   UNL     1      -2.325  13.113  20.363  0.00  0.00    +0.000 A 
ATOM      8  C   UNL     1      -1.016  13.515  19.945  0.00  0.00    +0.000 A 
ATOM      9  C   UNL     1      -0.131  14.322  20.712  0.00  0.00    +0.000 A 
ATOM     10  C   UNL     1       1.142  14.663  20.248  0.00  0.00    +0.000 A 
ATOM     11  C   UNL     1       1.562  14.197  19.013  0.00  0.00    +0.000 A 
ATOM     12  C   UNL     1       0.707  13.396  18.258  0.00  0.00    +0.000 A 
ATOM     13  C   UNL     1      -0.563  13.048  18.708  0.00  0.00    +0.000 A 
ATOM     14  N   UNL     1      -1.292  12.249  17.931  0.00  0.00    +0.000 NA
ATOM     15  C   UNL     1      -2.535  11.894  18.278  0.00  0.00    +0.000 A 
ENDROOT
BRANCH   5  16
ATOM     16  N   UNL     1      -5.473  12.712  20.414  0.00  0.00    +0.000 N 
ATOM     17  O   UNL     1      -6.039  12.053  21.299  0.00  0.00    +0.000 OA
ATOM     18  O   UNL     1      -5.654  13.915  20.180  0.00  0.00    +0.000 OA
ENDBRANCH   5  16
BRANCH   7  19
ATOM     19  N   UNL     1      -2.699  13.538  21.660  0.00  0.00    +0.000 N 
ATOM     20  H   UNL     1      -3.511  14.157  21.623  0.00  0.00    +0.000 HD
BRANCH  19  21
ATOM     21  C   UNL     1      -2.700  12.651  22.810  0.00  0.00    +0.000 C 
BRANCH  21  22
ATOM     22  C   UNL     1      -1.320  12.147  23.203  0.00  0.00    +0.000 C 
BRANCH  22  23
ATOM     23  C   UNL     1      -1.380  10.621  23.072  0.00  0.00    +0.000 C 
BRANCH  23  24
ATOM     24  N   UNL     1      -0.122   9.926  22.600  0.00  0.00    +0.000 N 
ATOM     25  C   UNL     1      -0.523   8.616  21.964  0.00  0.00    +0.000 C 
ATOM     26  C   UNL     1       0.604  10.757  21.580  0.00  0.00    +0.000 C 
ATOM     27  O   UNL     1       0.699   9.674  23.663  0.00  0.00    +0.000 OA
ENDBRANCH  23  24
ENDBRANCH  22  23
ENDBRANCH  21  22
ENDBRANCH  19  21
ENDBRANCH   7  19
TORSDOF 6
ENDMDL
