MODEL 1
REMARK VINA RESULT:      -6.9      0.000      0.000
REMARK  Name = 
REMARK  7 active torsions:
REMARK  status: ('A' for Active; 'I' for Inactive)
REMARK    1  A    between atoms: O_1  and  C_2
REMARK    2  A    between atoms: C_3  and  C_4
REMARK    3  A    between atoms: C_4  and  N_5
REMARK    4  A    between atoms: N_5  and  C_6
REMARK    5  A    between atoms: C_6  and  C_7
REMARK    6  A    between atoms: C_7  and  C_8
REMARK    7  A    between atoms: C_8  and  N_9
REMARK                            x       y       z     vdW  Elec       q    Type
REMARK                         _______ _______ _______ _____ _____    ______ ____
ROOT
ATOM      1  C   UNL     1       5.121   3.673  18.757  0.00  0.00    +0.000 A 
ATOM      2  C   UNL     1       4.169   3.386  17.764  0.00  0.00    +0.000 A 
ATOM      3  C   UNL     1       4.238   4.092  16.559  0.00  0.00    +0.000 A 
ATOM      4  C   UNL     1       5.190   5.096  16.392  0.00  0.00    +0.000 A 
ATOM      5 CL   UNL     1       5.200   5.897  14.853  0.00  0.00    +0.000 Cl
ATOM      6  C   UNL     1       6.099   5.430  17.421  0.00  0.00    +0.000 A 
ATOM      7  C   UNL     1       7.048   6.471  17.321  0.00  0.00    +0.000 A 
ATOM      8  C   UNL     1       7.900   6.758  18.375  0.00  0.00    +0.000 A 
ATOM      9  C   UNL     1       7.799   5.987  19.510  0.00  0.00    +0.000 A 
ATOM     10  N   UNL     1       6.919   4.978  19.644  0.00  0.00    +0.000 NA
ATOM     11  C   UNL     1       6.070   4.698  18.628  0.00  0.00    +0.000 A 
ENDROOT
BRANCH   1  12
ATOM     12  O   UNL     1       5.138   2.921  19.915  0.00  0.00    +0.000 OA
ATOM     13  H   UNL     1       6.035   2.996  20.307  0.00  0.00    +0.000 HD
ENDBRANCH   1  12
BRANCH   2  14
ATOM     14  C   UNL     1       3.155   2.276  17.879  0.00  0.00    +0.000 C 
BRANCH  14  15
ATOM     15  N   UNL     1       2.471   2.279  19.181  0.00  0.00    +0.000 NA
ATOM     16  H   UNL     1       3.179   2.360  19.916  0.00  0.00    +0.000 HD
BRANCH  15  17
ATOM     17  C   UNL     1       1.530   3.404  19.313  0.00  0.00    +0.000 C 
BRANCH  17  18
ATOM     18  C   UNL     1       2.027   4.405  20.349  0.00  0.00    +0.000 C 
BRANCH  18  19
ATOM     19  C   UNL     1       1.291   5.744  20.350  0.00  0.00    +0.000 C 
BRANCH  19  20
ATOM     20  N   UNL     1       2.262   6.808  20.054  0.00  0.00    +0.000 NA
ATOM     21  C   UNL     1       1.725   8.157  20.242  0.00  0.00    +0.000 C 
ATOM     22  C   UNL     1       1.542   8.725  18.849  0.00  0.00    +0.000 C 
ATOM     23  C   UNL     1       2.678   8.097  18.071  0.00  0.00    +0.000 C 
ATOM     24  C   UNL     1       2.796   6.717  18.682  0.00  0.00    +0.000 C 
ENDBRANCH  19  20
ENDBRANCH  18  19
ENDBRANCH  17  18
ENDBRANCH  15  17
ENDBRANCH  14  15
ENDBRANCH   2  14
TORSDOF 7
ENDMDL
MODEL 2
REMARK VINA RESULT:      -6.7      3.479      6.374
REMARK  Name = 
REMARK  7 active torsions:
REMARK  status: ('A' for Active; 'I' for Inactive)
REMARK    1  A    between atoms: O_1  and  C_2
REMARK    2  A    between atoms: C_3  and  C_4
REMARK    3  A    between atoms: C_4  and  N_5
REMARK    4  A    between atoms: N_5  and  C_6
REMARK    5  A    between atoms: C_6  and  C_7
REMARK    6  A    between atoms: C_7  and  C_8
REMARK    7  A    between atoms: C_8  and  N_9
REMARK                            x       y       z     vdW  Elec       q    Type
REMARK                         _______ _______ _______ _____ _____    ______ ____
ROOT
ATOM      1  C   UNL     1       5.309   4.824  18.239  0.00  0.00    +0.000 A 
ATOM      2  C   UNL     1       5.430   5.931  17.382  0.00  0.00    +0.000 A 
ATOM      3  C   UNL     1       4.395   6.872  17.368  0.00  0.00    +0.000 A 
ATOM      4  C   UNL     1       3.253   6.664  18.139  0.00  0.00    +0.000 A 
ATOM      5 CL   UNL     1       2.039   7.901  18.060  0.00  0.00    +0.000 Cl
ATOM      6  C   UNL     1       3.105   5.512  18.943  0.00  0.00    +0.000 A 
ATOM      7  C   UNL     1       1.948   5.231  19.703  0.00  0.00    +0.000 A 
ATOM      8  C   UNL     1       1.860   4.073  20.459  0.00  0.00    +0.000 A 
ATOM      9  C   UNL     1       2.940   3.221  20.455  0.00  0.00    +0.000 A 
ATOM     10  N   UNL     1       4.067   3.455  19.757  0.00  0.00    +0.000 NA
ATOM     11  C   UNL     1       4.158   4.574  19.002  0.00  0.00    +0.000 A 
ENDROOT
BRANCH   1  12
ATOM     12  O   UNL     1       6.360   3.934  18.348  0.00  0.00    +0.000 OA
ATOM     13  H   UNL     1       6.954   4.080  17.580  0.00  0.00    +0.000 HD
ENDBRANCH   1  12
BRANCH   2  14
ATOM     14  C   UNL     1       6.666   6.224  16.571  0.00  0.00    +0.000 C 
BRANCH  14  15
ATOM     15  N   UNL     1       7.754   6.776  17.392  0.00  0.00    +0.000 NA
ATOM     16  H   UNL     1       8.643   6.581  16.922  0.00  0.00    +0.000 HD
BRANCH  15  17
ATOM     17  C   UNL     1       7.631   8.232  17.573  0.00  0.00    +0.000 C 
BRANCH  17  18
ATOM     18  C   UNL     1       8.655   8.739  18.582  0.00  0.00    +0.000 C 
BRANCH  18  19
ATOM     19  C   UNL     1       8.983  10.226  18.469  0.00  0.00    +0.000 C 
BRANCH  19  20
ATOM     20  N   UNL     1       9.924  10.578  19.543  0.00  0.00    +0.000 NA
ATOM     21  C   UNL     1       9.269  11.075  20.755  0.00  0.00    +0.000 C 
ATOM     22  C   UNL     1       9.556  12.562  20.798  0.00  0.00    +0.000 C 
ATOM     23  C   UNL     1      10.932  12.663  20.177  0.00  0.00    +0.000 C 
ATOM     24  C   UNL     1      10.915  11.584  19.116  0.00  0.00    +0.000 C 
ENDBRANCH  19  20
ENDBRANCH  18  19
ENDBRANCH  17  18
ENDBRANCH  15  17
ENDBRANCH  14  15
ENDBRANCH   2  14
TORSDOF 7
ENDMDL
MODEL 3
REMARK VINA RESULT:      -6.7      4.025      7.054
REMARK  Name = 
REMARK  7 active torsions:
REMARK  status: ('A' for Active; 'I' for Inactive)
REMARK    1  A    between atoms: O_1  and  C_2
REMARK    2  A    between atoms: C_3  and  C_4
REMARK    3  A    between atoms: C_4  and  N_5
REMARK    4  A    between atoms: N_5  and  C_6
REMARK    5  A    between atoms: C_6  and  C_7
REMARK    6  A    between atoms: C_7  and  C_8
REMARK    7  A    between atoms: C_8  and  N_9
REMARK                            x       y       z     vdW  Elec       q    Type
REMARK                         _______ _______ _______ _____ _____    ______ ____
ROOT
ATOM      1  C   UNL     1       5.596   4.900  17.918  0.00  0.00    +0.000 A 
ATOM      2  C   UNL     1       6.019   6.215  17.658  0.00  0.00    +0.000 A 
ATOM      3  C   UNL     1       5.049   7.219  17.584  0.00  0.00    +0.000 A 
ATOM      4  C   UNL     1       3.699   6.895  17.701  0.00  0.00    +0.000 A 
ATOM      5 CL   UNL     1       2.581   8.219  17.611  0.00  0.00    +0.000 Cl
ATOM      6  C   UNL     1       3.274   5.560  17.889  0.00  0.00    +0.000 A 
ATOM      7  C   UNL     1       1.917   5.173  17.963  0.00  0.00    +0.000 A 
ATOM      8  C   UNL     1       1.568   3.843  18.132  0.00  0.00    +0.000 A 
ATOM      9  C   UNL     1       2.583   2.922  18.242  0.00  0.00    +0.000 A 
ATOM     10  N   UNL     1       3.888   3.247  18.191  0.00  0.00    +0.000 NA
ATOM     11  C   UNL     1       4.242   4.541  18.009  0.00  0.00    +0.000 A 
ENDROOT
BRANCH   1  12
ATOM     12  O   UNL     1       6.539   3.908  18.097  0.00  0.00    +0.000 OA
ATOM     13  H   UNL     1       6.275   3.382  18.882  0.00  0.00    +0.000 HD
ENDBRANCH   1  12
BRANCH   2  14
ATOM     14  C   UNL     1       7.468   6.621  17.577  0.00  0.00    +0.000 C 
BRANCH  14  15
ATOM     15  N   UNL     1       7.630   8.060  17.319  0.00  0.00    +0.000 NA
ATOM     16  H   UNL     1       6.702   8.492  17.311  0.00  0.00    +0.000 HD
BRANCH  15  17
ATOM     17  C   UNL     1       8.445   8.723  18.350  0.00  0.00    +0.000 C 
BRANCH  17  18
ATOM     18  C   UNL     1       8.569  10.215  18.064  0.00  0.00    +0.000 C 
BRANCH  18  19
ATOM     19  C   UNL     1       9.387  10.997  19.090  0.00  0.00    +0.000 C 
BRANCH  19  20
ATOM     20  N   UNL     1      10.656  11.398  18.466  0.00  0.00    +0.000 NA
ATOM     21  C   UNL     1      11.732  11.638  19.430  0.00  0.00    +0.000 C 
ATOM     22  C   UNL     1      11.932  13.140  19.456  0.00  0.00    +0.000 C 
ATOM     23  C   UNL     1      11.625  13.552  18.033  0.00  0.00    +0.000 C 
ATOM     24  C   UNL     1      10.515  12.604  17.629  0.00  0.00    +0.000 C 
ENDBRANCH  19  20
ENDBRANCH  18  19
ENDBRANCH  17  18
ENDBRANCH  15  17
ENDBRANCH  14  15
ENDBRANCH   2  14
TORSDOF 7
ENDMDL
MODEL 4
REMARK VINA RESULT:      -6.6      3.532      6.564
REMARK  Name = 
REMARK  7 active torsions:
REMARK  status: ('A' for Active; 'I' for Inactive)
REMARK    1  A    between atoms: O_1  and  C_2
REMARK    2  A    between atoms: C_3  and  C_4
REMARK    3  A    between atoms: C_4  and  N_5
REMARK    4  A    between atoms: N_5  and  C_6
REMARK    5  A    between atoms: C_6  and  C_7
REMARK    6  A    between atoms: C_7  and  C_8
REMARK    7  A    between atoms: C_8  and  N_9
REMARK                            x       y       z     vdW  Elec       q    Type
REMARK                         _______ _______ _______ _____ _____    ______ ____
ROOT
ATOM      1  C   UNL     1       5.037   4.587  18.670  0.00  0.00    +0.000 A 
ATOM      2  C   UNL     1       5.357   5.551  17.699  0.00  0.00    +0.000 A 
ATOM      3  C   UNL     1       4.461   6.604  17.492  0.00  0.00    +0.000 A 
ATOM      4  C   UNL     1       3.257   6.643  18.191  0.00  0.00    +0.000 A 
ATOM      5 CL   UNL     1       2.227   8.002  17.871  0.00  0.00    +0.000 Cl
ATOM      6  C   UNL     1       2.906   5.632  19.114  0.00  0.00    +0.000 A 
ATOM      7  C   UNL     1       1.677   5.598  19.809  0.00  0.00    +0.000 A 
ATOM      8  C   UNL     1       1.388   4.568  20.689  0.00  0.00    +0.000 A 
ATOM      9  C   UNL     1       2.342   3.594  20.871  0.00  0.00    +0.000 A 
ATOM     10  N   UNL     1       3.531   3.592  20.240  0.00  0.00    +0.000 NA
ATOM     11  C   UNL     1       3.818   4.585  19.366  0.00  0.00    +0.000 A 
ENDROOT
BRANCH   1  12
ATOM     12  O   UNL     1       5.950   3.594  18.966  0.00  0.00    +0.000 OA
ATOM     13  H   UNL     1       6.822   3.877  18.614  0.00  0.00    +0.000 HD
ENDBRANCH   1  12
BRANCH   2  14
ATOM     14  C   UNL     1       6.669   5.579  16.956  0.00  0.00    +0.000 C 
BRANCH  14  15
ATOM     15  N   UNL     1       7.088   4.241  16.514  0.00  0.00    +0.000 NA
ATOM     16  H   UNL     1       7.166   3.639  17.339  0.00  0.00    +0.000 HD
BRANCH  15  17
ATOM     17  C   UNL     1       6.122   3.634  15.583  0.00  0.00    +0.000 C 
BRANCH  17  18
ATOM     18  C   UNL     1       6.354   4.134  14.162  0.00  0.00    +0.000 C 
BRANCH  18  19
ATOM     19  C   UNL     1       5.159   3.974  13.225  0.00  0.00    +0.000 C 
BRANCH  19  20
ATOM     20  N   UNL     1       5.660   3.619  11.889  0.00  0.00    +0.000 NA
ATOM     21  C   UNL     1       4.980   2.465  11.297  0.00  0.00    +0.000 C 
ATOM     22  C   UNL     1       5.980   1.328  11.345  0.00  0.00    +0.000 C 
ATOM     23  C   UNL     1       7.307   2.032  11.159  0.00  0.00    +0.000 C 
ATOM     24  C   UNL     1       7.109   3.345  11.885  0.00  0.00    +0.000 C 
ENDBRANCH  19  20
ENDBRANCH  18  19
ENDBRANCH  17  18
ENDBRANCH  15  17
ENDBRANCH  14  15
ENDBRANCH   2  14
TORSDOF 7
ENDMDL
MODEL 5
REMARK VINA RESULT:      -6.6      3.289      6.267
REMARK  Name = 
REMARK  7 active torsions:
REMARK  status: ('A' for Active; 'I' for Inactive)
REMARK    1  A    between atoms: O_1  and  C_2
REMARK    2  A    between atoms: C_3  and  C_4
REMARK    3  A    between atoms: C_4  and  N_5
REMARK    4  A    between atoms: N_5  and  C_6
REMARK    5  A    between atoms: C_6  and  C_7
REMARK    6  A    between atoms: C_7  and  C_8
REMARK    7  A    between atoms: C_8  and  N_9
REMARK                            x       y       z     vdW  Elec       q    Type
REMARK                         _______ _______ _______ _____ _____    ______ ____
ROOT
ATOM      1  C   UNL     1       5.278   4.734  18.372  0.00  0.00    +0.000 A 
ATOM      2  C   UNL     1       5.590   5.669  17.370  0.00  0.00    +0.000 A 
ATOM      3  C   UNL     1       4.717   6.743  17.173  0.00  0.00    +0.000 A 
ATOM      4  C   UNL     1       3.540   6.831  17.914  0.00  0.00    +0.000 A 
ATOM      5 CL   UNL     1       2.537   8.212  17.602  0.00  0.00    +0.000 Cl
ATOM      6  C   UNL     1       3.195   5.848  18.869  0.00  0.00    +0.000 A 
ATOM      7  C   UNL     1       1.992   5.864  19.608  0.00  0.00    +0.000 A 
ATOM      8  C   UNL     1       1.706   4.860  20.519  0.00  0.00    +0.000 A 
ATOM      9  C   UNL     1       2.638   3.862  20.687  0.00  0.00    +0.000 A 
ATOM     10  N   UNL     1       3.803   3.814  20.014  0.00  0.00    +0.000 NA
ATOM     11  C   UNL     1       4.086   4.781  19.110  0.00  0.00    +0.000 A 
ENDROOT
BRANCH   1  12
ATOM     12  O   UNL     1       6.173   3.722  18.655  0.00  0.00    +0.000 OA
ATOM     13  H   UNL     1       6.123   3.540  19.618  0.00  0.00    +0.000 HD
ENDBRANCH   1  12
BRANCH   2  14
ATOM     14  C   UNL     1       6.875   5.645  16.581  0.00  0.00    +0.000 C 
BRANCH  14  15
ATOM     15  N   UNL     1       7.562   6.945  16.595  0.00  0.00    +0.000 NA
ATOM     16  H   UNL     1       7.104   7.559  15.916  0.00  0.00    +0.000 HD
BRANCH  15  17
ATOM     17  C   UNL     1       7.508   7.589  17.918  0.00  0.00    +0.000 C 
BRANCH  17  18
ATOM     18  C   UNL     1       8.150   8.971  17.872  0.00  0.00    +0.000 C 
BRANCH  18  19
ATOM     19  C   UNL     1       9.110   9.269  19.023  0.00  0.00    +0.000 C 
BRANCH  19  20
ATOM     20  N   UNL     1       9.171  10.726  19.212  0.00  0.00    +0.000 NA
ATOM     21  C   UNL     1      10.240  11.370  18.447  0.00  0.00    +0.000 C 
ATOM     22  C   UNL     1      11.290  11.770  19.464  0.00  0.00    +0.000 C 
ATOM     23  C   UNL     1      10.470  12.101  20.691  0.00  0.00    +0.000 C 
ATOM     24  C   UNL     1       9.333  11.102  20.629  0.00  0.00    +0.000 C 
ENDBRANCH  19  20
ENDBRANCH  18  19
ENDBRANCH  17  18
ENDBRANCH  15  17
ENDBRANCH  14  15
ENDBRANCH   2  14
TORSDOF 7
ENDMDL
MODEL 6
REMARK VINA RESULT:      -6.5      3.781      6.698
REMARK  Name = 
REMARK  7 active torsions:
REMARK  status: ('A' for Active; 'I' for Inactive)
REMARK    1  A    between atoms: O_1  and  C_2
REMARK    2  A    between atoms: C_3  and  C_4
REMARK    3  A    between atoms: C_4  and  N_5
REMARK    4  A    between atoms: N_5  and  C_6
REMARK    5  A    between atoms: C_6  and  C_7
REMARK    6  A    between atoms: C_7  and  C_8
REMARK    7  A    between atoms: C_8  and  N_9
REMARK                            x       y       z     vdW  Elec       q    Type
REMARK                         _______ _______ _______ _____ _____    ______ ____
ROOT
ATOM      1  C   UNL     1       5.519   4.772  17.465  0.00  0.00    +0.000 A 
ATOM      2  C   UNL     1       5.843   6.136  17.358  0.00  0.00    +0.000 A 
ATOM      3  C   UNL     1       4.824   7.074  17.546  0.00  0.00    +0.000 A 
ATOM      4  C   UNL     1       3.516   6.649  17.766  0.00  0.00    +0.000 A 
ATOM      5 CL   UNL     1       2.333   7.896  18.004  0.00  0.00    +0.000 Cl
ATOM      6  C   UNL     1       3.182   5.276  17.801  0.00  0.00    +0.000 A 
ATOM      7  C   UNL     1       1.865   4.795  17.970  0.00  0.00    +0.000 A 
ATOM      8  C   UNL     1       1.603   3.434  17.977  0.00  0.00    +0.000 A 
ATOM      9  C   UNL     1       2.667   2.575  17.831  0.00  0.00    +0.000 A 
ATOM     10  N   UNL     1       3.939   2.989  17.680  0.00  0.00    +0.000 NA
ATOM     11  C   UNL     1       4.206   4.315  17.655  0.00  0.00    +0.000 A 
ENDROOT
BRANCH   1  12
ATOM     12  O   UNL     1       6.524   3.829  17.384  0.00  0.00    +0.000 OA
ATOM     13  H   UNL     1       7.113   4.083  16.641  0.00  0.00    +0.000 HD
ENDBRANCH   1  12
BRANCH   2  14
ATOM     14  C   UNL     1       7.251   6.643  17.173  0.00  0.00    +0.000 C 
BRANCH  14  15
ATOM     15  N   UNL     1       7.330   8.109  17.255  0.00  0.00    +0.000 NA
ATOM     16  H   UNL     1       6.441   8.459  17.625  0.00  0.00    +0.000 HD
BRANCH  15  17
ATOM     17  C   UNL     1       8.415   8.560  18.143  0.00  0.00    +0.000 C 
BRANCH  17  18
ATOM     18  C   UNL     1       8.359  10.071  18.339  0.00  0.00    +0.000 C 
BRANCH  18  19
ATOM     19  C   UNL     1       9.684  10.795  18.103  0.00  0.00    +0.000 C 
BRANCH  19  20
ATOM     20  N   UNL     1      10.299  11.075  19.409  0.00  0.00    +0.000 NA
ATOM     21  C   UNL     1       9.338  11.115  20.512  0.00  0.00    +0.000 C 
ATOM     22  C   UNL     1       9.216  12.575  20.899  0.00  0.00    +0.000 C 
ATOM     23  C   UNL     1      10.604  13.116  20.636  0.00  0.00    +0.000 C 
ATOM     24  C   UNL     1      11.053  12.343  19.414  0.00  0.00    +0.000 C 
ENDBRANCH  19  20
ENDBRANCH  18  19
ENDBRANCH  17  18
ENDBRANCH  15  17
ENDBRANCH  14  15
ENDBRANCH   2  14
TORSDOF 7
ENDMDL
MODEL 7
REMARK VINA RESULT:      -6.5      3.572      6.288
REMARK  Name = 
REMARK  7 active torsions:
REMARK  status: ('A' for Active; 'I' for Inactive)
REMARK    1  A    between atoms: O_1  and  C_2
REMARK    2  A    between atoms: C_3  and  C_4
REMARK    3  A    between atoms: C_4  and  N_5
REMARK    4  A    between atoms: N_5  and  C_6
REMARK    5  A    between atoms: C_6  and  C_7
REMARK    6  A    between atoms: C_7  and  C_8
REMARK    7  A    between atoms: C_8  and  N_9
REMARK                            x       y       z     vdW  Elec       q    Type
REMARK                         _______ _______ _______ _____ _____    ______ ____
ROOT
ATOM      1  C   UNL     1       5.409   4.740  17.984  0.00  0.00    +0.000 A 
ATOM      2  C   UNL     1       5.202   6.008  17.414  0.00  0.00    +0.000 A 
ATOM      3  C   UNL     1       4.170   6.801  17.924  0.00  0.00    +0.000 A 
ATOM      4  C   UNL     1       3.337   6.304  18.924  0.00  0.00    +0.000 A 
ATOM      5 CL   UNL     1       2.099   7.377  19.496  0.00  0.00    +0.000 Cl
ATOM      6  C   UNL     1       3.503   5.001  19.443  0.00  0.00    +0.000 A 
ATOM      7  C   UNL     1       2.656   4.432  20.420  0.00  0.00    +0.000 A 
ATOM      8  C   UNL     1       2.865   3.140  20.875  0.00  0.00    +0.000 A 
ATOM      9  C   UNL     1       3.930   2.442  20.355  0.00  0.00    +0.000 A 
ATOM     10  N   UNL     1       4.770   2.948  19.434  0.00  0.00    +0.000 NA
ATOM     11  C   UNL     1       4.567   4.202  18.970  0.00  0.00    +0.000 A 
ENDROOT
BRANCH   1  12
ATOM     12  O   UNL     1       6.483   3.978  17.569  0.00  0.00    +0.000 OA
ATOM     13  H   UNL     1       7.094   4.567  17.075  0.00  0.00    +0.000 HD
ENDBRANCH   1  12
BRANCH   2  14
ATOM     14  C   UNL     1       6.108   6.607  16.369  0.00  0.00    +0.000 C 
BRANCH  14  15
ATOM     15  N   UNL     1       7.510   6.661  16.810  0.00  0.00    +0.000 NA
ATOM     16  H   UNL     1       8.075   7.032  16.041  0.00  0.00    +0.000 HD
BRANCH  15  17
ATOM     17  C   UNL     1       7.691   7.529  17.985  0.00  0.00    +0.000 C 
BRANCH  17  18
ATOM     18  C   UNL     1       8.203   8.902  17.568  0.00  0.00    +0.000 C 
BRANCH  18  19
ATOM     19  C   UNL     1       8.757   9.753  18.710  0.00  0.00    +0.000 C 
BRANCH  19  20
ATOM     20  N   UNL     1       9.537  10.857  18.132  0.00  0.00    +0.000 NA
ATOM     21  C   UNL     1      10.659  11.283  18.972  0.00  0.00    +0.000 C 
ATOM     22  C   UNL     1      10.257  12.627  19.544  0.00  0.00    +0.000 C 
ATOM     23  C   UNL     1       9.425  13.236  18.436  0.00  0.00    +0.000 C 
ATOM     24  C   UNL     1       8.708  12.041  17.844  0.00  0.00    +0.000 C 
ENDBRANCH  19  20
ENDBRANCH  18  19
ENDBRANCH  17  18
ENDBRANCH  15  17
ENDBRANCH  14  15
ENDBRANCH   2  14
TORSDOF 7
ENDMDL
MODEL 8
REMARK VINA RESULT:      -6.4      3.946      6.772
REMARK  Name = 
REMARK  7 active torsions:
REMARK  status: ('A' for Active; 'I' for Inactive)
REMARK    1  A    between atoms: O_1  and  C_2
REMARK    2  A    between atoms: C_3  and  C_4
REMARK    3  A    between atoms: C_4  and  N_5
REMARK    4  A    between atoms: N_5  and  C_6
REMARK    5  A    between atoms: C_6  and  C_7
REMARK    6  A    between atoms: C_7  and  C_8
REMARK    7  A    between atoms: C_8  and  N_9
REMARK                            x       y       z     vdW  Elec       q    Type
REMARK                         _______ _______ _______ _____ _____    ______ ____
ROOT
ATOM      1  C   UNL     1       5.467   4.818  17.968  0.00  0.00    +0.000 A 
ATOM      2  C   UNL     1       5.903   6.130  17.711  0.00  0.00    +0.000 A 
ATOM      3  C   UNL     1       4.939   7.137  17.604  0.00  0.00    +0.000 A 
ATOM      4  C   UNL     1       3.585   6.818  17.684  0.00  0.00    +0.000 A 
ATOM      5 CL   UNL     1       2.475   8.146  17.555  0.00  0.00    +0.000 Cl
ATOM      6  C   UNL     1       3.150   5.487  17.869  0.00  0.00    +0.000 A 
ATOM      7  C   UNL     1       1.790   5.105  17.907  0.00  0.00    +0.000 A 
ATOM      8  C   UNL     1       1.431   3.778  18.075  0.00  0.00    +0.000 A 
ATOM      9  C   UNL     1       2.439   2.854  18.219  0.00  0.00    +0.000 A 
ATOM     10  N   UNL     1       3.747   3.173  18.202  0.00  0.00    +0.000 NA
ATOM     11  C   UNL     1       4.111   4.464  18.023  0.00  0.00    +0.000 A 
ENDROOT
BRANCH   1  12
ATOM     12  O   UNL     1       6.402   3.824  18.179  0.00  0.00    +0.000 OA
ATOM     13  H   UNL     1       7.236   4.101  17.744  0.00  0.00    +0.000 HD
ENDBRANCH   1  12
BRANCH   2  14
ATOM     14  C   UNL     1       7.355   6.530  17.668  0.00  0.00    +0.000 C 
BRANCH  14  15
ATOM     15  N   UNL     1       7.533   7.946  17.313  0.00  0.00    +0.000 NA
ATOM     16  H   UNL     1       6.616   8.401  17.337  0.00  0.00    +0.000 HD
BRANCH  15  17
ATOM     17  C   UNL     1       8.428   8.647  18.249  0.00  0.00    +0.000 C 
BRANCH  17  18
ATOM     18  C   UNL     1       8.365  10.154  18.029  0.00  0.00    +0.000 C 
BRANCH  18  19
ATOM     19  C   UNL     1       9.648  10.905  18.381  0.00  0.00    +0.000 C 
BRANCH  19  20
ATOM     20  N   UNL     1       9.290  12.094  19.169  0.00  0.00    +0.000 NA
ATOM     21  C   UNL     1      10.147  13.251  18.904  0.00  0.00    +0.000 C 
ATOM     22  C   UNL     1      11.020  13.407  20.133  0.00  0.00    +0.000 C 
ATOM     23  C   UNL     1      10.116  12.948  21.256  0.00  0.00    +0.000 C 
ATOM     24  C   UNL     1       9.311  11.834  20.621  0.00  0.00    +0.000 C 
ENDBRANCH  19  20
ENDBRANCH  18  19
ENDBRANCH  17  18
ENDBRANCH  15  17
ENDBRANCH  14  15
ENDBRANCH   2  14
TORSDOF 7
ENDMDL
MODEL 9
REMARK VINA RESULT:      -6.4      2.756      6.141
REMARK  Name = 
REMARK  7 active torsions:
REMARK  status: ('A' for Active; 'I' for Inactive)
REMARK    1  A    between atoms: O_1  and  C_2
REMARK    2  A    between atoms: C_3  and  C_4
REMARK    3  A    between atoms: C_4  and  N_5
REMARK    4  A    between atoms: N_5  and  C_6
REMARK    5  A    between atoms: C_6  and  C_7
REMARK    6  A    between atoms: C_7  and  C_8
REMARK    7  A    between atoms: C_8  and  N_9
REMARK                            x       y       z     vdW  Elec       q    Type
REMARK                         _______ _______ _______ _____ _____    ______ ____
ROOT
ATOM      1  C   UNL     1       4.718   3.684  19.290  0.00  0.00    +0.000 A 
ATOM      2  C   UNL     1       5.334   4.927  19.062  0.00  0.00    +0.000 A 
ATOM      3  C   UNL     1       4.530   6.001  18.670  0.00  0.00    +0.000 A 
ATOM      4  C   UNL     1       3.167   5.809  18.451  0.00  0.00    +0.000 A 
ATOM      5 CL   UNL     1       2.260   7.213  17.984  0.00  0.00    +0.000 Cl
ATOM      6  C   UNL     1       2.566   4.541  18.611  0.00  0.00    +0.000 A 
ATOM      7  C   UNL     1       1.201   4.283  18.354  0.00  0.00    +0.000 A 
ATOM      8  C   UNL     1       0.676   3.011  18.515  0.00  0.00    +0.000 A 
ATOM      9  C   UNL     1       1.525   2.018  18.947  0.00  0.00    +0.000 A 
ATOM     10  N   UNL     1       2.828   2.221  19.217  0.00  0.00    +0.000 NA
ATOM     11  C   UNL     1       3.355   3.455  19.048  0.00  0.00    +0.000 A 
ENDROOT
BRANCH   1  12
ATOM     12  O   UNL     1       5.472   2.634  19.775  0.00  0.00    +0.000 OA
ATOM     13  H   UNL     1       4.884   1.852  19.844  0.00  0.00    +0.000 HD
ENDBRANCH   1  12
BRANCH   2  14
ATOM     14  C   UNL     1       6.792   5.194  19.334  0.00  0.00    +0.000 C 
BRANCH  14  15
ATOM     15  N   UNL     1       7.526   5.574  18.118  0.00  0.00    +0.000 NA
ATOM     16  H   UNL     1       8.495   5.780  18.378  0.00  0.00    +0.000 HD
BRANCH  15  17
ATOM     17  C   UNL     1       7.530   4.500  17.111  0.00  0.00    +0.000 C 
BRANCH  17  18
ATOM     18  C   UNL     1       6.983   5.004  15.781  0.00  0.00    +0.000 C 
BRANCH  18  19
ATOM     19  C   UNL     1       5.918   4.112  15.148  0.00  0.00    +0.000 C 
BRANCH  19  20
ATOM     20  N   UNL     1       5.790   4.474  13.728  0.00  0.00    +0.000 NA
ATOM     21  C   UNL     1       5.020   3.506  12.945  0.00  0.00    +0.000 C 
ATOM     22  C   UNL     1       6.029   2.782  12.078  0.00  0.00    +0.000 C 
ATOM     23  C   UNL     1       7.063   3.849  11.790  0.00  0.00    +0.000 C 
ATOM     24  C   UNL     1       7.100   4.651  13.074  0.00  0.00    +0.000 C 
ENDBRANCH  19  20
ENDBRANCH  18  19
ENDBRANCH  17  18
ENDBRANCH  15  17
ENDBRANCH  14  15
ENDBRANCH   2  14
TORSDOF 7
ENDMDL
