MODEL 1
REMARK VINA RESULT:      -7.4      0.000      0.000
REMARK  Name = 
REMARK  5 active torsions:
REMARK  status: ('A' for Active; 'I' for Inactive)
REMARK    1  A    between atoms: C_1  and  C_2
REMARK    2  A    between atoms: C_2  and  C_3
REMARK    3  A    between atoms: C_2  and  N_4
REMARK    4  A    between atoms: N_13  and  C_14
REMARK    5  A    between atoms: N_22  and  C_23
REMARK                            x       y       z     vdW  Elec       q    Type
REMARK                         _______ _______ _______ _____ _____    ______ ____
ROOT
ATOM      1  N   UNL     1       5.620   3.936  13.891  0.00  0.00    +0.000 N 
ATOM      2  C   UNL     1       6.426   4.703  14.696  0.00  0.00    +0.000 C 
ATOM      3  O   UNL     1       7.445   5.242  14.282  0.00  0.00    +0.000 OA
ATOM      4  N   UNL     1       5.925   4.865  15.969  0.00  0.00    +0.000 N 
ATOM      5  C   UNL     1       6.561   5.701  16.970  0.00  0.00    +0.000 C 
ATOM      6  C   UNL     1       5.414   6.226  17.827  0.00  0.00    +0.000 C 
ATOM      7  C   UNL     1       4.289   5.163  17.722  0.00  0.00    +0.000 C 
ATOM      8  C   UNL     1       4.594   4.457  16.380  0.00  0.00    +0.000 C 
ATOM      9  C   UNL     1       2.906   5.844  17.545  0.00  0.00    +0.000 C 
ATOM     10  N   UNL     1       2.444   6.474  18.765  0.00  0.00    +0.000 N 
ATOM     11  C   UNL     1       2.422   5.677  19.912  0.00  0.00    +0.000 C 
ATOM     12  O   UNL     1       1.609   5.799  20.829  0.00  0.00    +0.000 OA
ATOM     13  C   UNL     1       3.632   4.761  20.079  0.00  0.00    +0.000 C 
ATOM     14  N   UNL     1       4.191   4.186  18.835  0.00  0.00    +0.000 NA
ATOM     15  C   UNL     1       5.443   3.499  19.168  0.00  0.00    +0.000 C 
ATOM     16  H   UNL     1       5.177   3.155  14.351  0.00  0.00    +0.000 HD
ENDROOT
BRANCH  10  17
ATOM     17  C   UNL     1       2.076   7.828  18.852  0.00  0.00    +0.000 A 
ATOM     18  C   UNL     1       2.172   8.767  17.775  0.00  0.00    +0.000 A 
ATOM     19  C   UNL     1       1.609   9.987  18.071  0.00  0.00    +0.000 A 
ATOM     20  S   UNL     1       1.035  10.048  19.676  0.00  0.00    +0.000 S 
ATOM     21  C   UNL     1       1.490   8.420  19.955  0.00  0.00    +0.000 A 
ENDBRANCH  10  17
BRANCH   1  23
ATOM     22  C   UNL     1       6.903   2.904  12.060  0.00  0.00    +0.000 C 
ATOM     23  C   UNL     1       5.758   3.839  12.448  0.00  0.00    +0.000 C 
ATOM     24  C   UNL     1       4.451   3.466  11.759  0.00  0.00    +0.000 C 
ENDBRANCH   1  23
TORSDOF 2
ENDMDL
MODEL 2
REMARK VINA RESULT:      -7.4      0.925      1.126
REMARK  Name = 
REMARK  5 active torsions:
REMARK  status: ('A' for Active; 'I' for Inactive)
REMARK    1  A    between atoms: C_1  and  C_2
REMARK    2  A    between atoms: C_2  and  C_3
REMARK    3  A    between atoms: C_2  and  N_4
REMARK    4  A    between atoms: N_13  and  C_14
REMARK    5  A    between atoms: N_22  and  C_23
REMARK                            x       y       z     vdW  Elec       q    Type
REMARK                         _______ _______ _______ _____ _____    ______ ____
ROOT
ATOM      1  N   UNL     1       6.067   3.619  14.513  0.00  0.00    +0.000 N 
ATOM      2  C   UNL     1       6.762   4.198  15.546  0.00  0.00    +0.000 C 
ATOM      3  O   UNL     1       7.890   4.652  15.405  0.00  0.00    +0.000 OA
ATOM      4  N   UNL     1       6.030   4.288  16.709  0.00  0.00    +0.000 N 
ATOM      5  C   UNL     1       6.525   4.936  17.909  0.00  0.00    +0.000 C 
ATOM      6  C   UNL     1       5.284   5.504  18.589  0.00  0.00    +0.000 C 
ATOM      7  C   UNL     1       4.106   4.598  18.140  0.00  0.00    +0.000 C 
ATOM      8  C   UNL     1       4.610   4.000  16.804  0.00  0.00    +0.000 C 
ATOM      9  C   UNL     1       2.861   5.452  17.786  0.00  0.00    +0.000 C 
ATOM     10  N   UNL     1       2.222   6.005  18.964  0.00  0.00    +0.000 N 
ATOM     11  C   UNL     1       1.891   5.103  19.977  0.00  0.00    +0.000 C 
ATOM     12  O   UNL     1       0.923   5.227  20.730  0.00  0.00    +0.000 OA
ATOM     13  C   UNL     1       2.948   4.038  20.259  0.00  0.00    +0.000 C 
ATOM     14  N   UNL     1       3.691   3.531  19.084  0.00  0.00    +0.000 NA
ATOM     15  C   UNL     1       4.777   2.670  19.564  0.00  0.00    +0.000 C 
ATOM     16  H   UNL     1       5.467   2.853  14.779  0.00  0.00    +0.000 HD
ENDROOT
BRANCH  10  17
ATOM     17  C   UNL     1       1.975   7.376  19.145  0.00  0.00    +0.000 A 
ATOM     18  C   UNL     1       1.978   8.349  18.093  0.00  0.00    +0.000 A 
ATOM     19  C   UNL     1       1.561   9.593  18.507  0.00  0.00    +0.000 A 
ATOM     20  S   UNL     1       1.244   9.631  20.182  0.00  0.00    +0.000 S 
ATOM     21  C   UNL     1       1.611   7.965  20.341  0.00  0.00    +0.000 A 
ENDBRANCH  10  17
BRANCH   1  23
ATOM     22  C   UNL     1       5.325   3.331  12.183  0.00  0.00    +0.000 C 
ATOM     23  C   UNL     1       6.486   3.653  13.123  0.00  0.00    +0.000 C 
ATOM     24  C   UNL     1       7.182   4.957  12.752  0.00  0.00    +0.000 C 
ENDBRANCH   1  23
TORSDOF 2
ENDMDL
MODEL 3
REMARK VINA RESULT:      -6.5      4.219      7.328
REMARK  Name = 
REMARK  5 active torsions:
REMARK  status: ('A' for Active; 'I' for Inactive)
REMARK    1  A    between atoms: C_1  and  C_2
REMARK    2  A    between atoms: C_2  and  C_3
REMARK    3  A    between atoms: C_2  and  N_4
REMARK    4  A    between atoms: N_13  and  C_14
REMARK    5  A    between atoms: N_22  and  C_23
REMARK                            x       y       z     vdW  Elec       q    Type
REMARK                         _______ _______ _______ _____ _____    ______ ____
ROOT
ATOM      1  N   UNL     1       2.785   7.261  18.126  0.00  0.00    +0.000 N 
ATOM      2  C   UNL     1       2.195   7.469  19.348  0.00  0.00    +0.000 C 
ATOM      3  O   UNL     1       2.370   6.717  20.298  0.00  0.00    +0.000 OA
ATOM      4  N   UNL     1       1.473   8.641  19.409  0.00  0.00    +0.000 N 
ATOM      5  C   UNL     1       0.830   9.112  20.622  0.00  0.00    +0.000 C 
ATOM      6  C   UNL     1       0.864  10.634  20.516  0.00  0.00    +0.000 C 
ATOM      7  C   UNL     1       0.891  10.950  18.997  0.00  0.00    +0.000 C 
ATOM      8  C   UNL     1       1.487   9.663  18.379  0.00  0.00    +0.000 C 
ATOM      9  C   UNL     1       1.904  12.084  18.691  0.00  0.00    +0.000 C 
ATOM     10  N   UNL     1       1.429  13.379  19.135  0.00  0.00    +0.000 N 
ATOM     11  C   UNL     1       0.160  13.763  18.697  0.00  0.00    +0.000 C 
ATOM     12  O   UNL     1      -0.178  14.929  18.480  0.00  0.00    +0.000 OA
ATOM     13  C   UNL     1      -0.888  12.654  18.715  0.00  0.00    +0.000 C 
ATOM     14  N   UNL     1      -0.407  11.298  18.367  0.00  0.00    +0.000 NA
ATOM     15  C   UNL     1      -1.494  10.346  18.620  0.00  0.00    +0.000 C 
ATOM     16  H   UNL     1       2.231   7.541  17.331  0.00  0.00    +0.000 HD
ENDROOT
BRANCH  10  17
ATOM     17  C   UNL     1       2.149  14.218  20.002  0.00  0.00    +0.000 A 
ATOM     18  C   UNL     1       1.784  14.489  21.361  0.00  0.00    +0.000 A 
ATOM     19  C   UNL     1       2.732  15.219  22.040  0.00  0.00    +0.000 A 
ATOM     20  S   UNL     1       4.033  15.663  21.030  0.00  0.00    +0.000 S 
ATOM     21  C   UNL     1       3.352  14.827  19.699  0.00  0.00    +0.000 A 
ENDBRANCH  10  17
BRANCH   1  23
ATOM     22  C   UNL     1       3.213   4.889  17.620  0.00  0.00    +0.000 C 
ATOM     23  C   UNL     1       3.817   6.270  17.872  0.00  0.00    +0.000 C 
ATOM     24  C   UNL     1       4.774   6.691  16.764  0.00  0.00    +0.000 C 
ENDBRANCH   1  23
TORSDOF 2
ENDMDL
MODEL 4
REMARK VINA RESULT:      -6.5      3.735      5.573
REMARK  Name = 
REMARK  5 active torsions:
REMARK  status: ('A' for Active; 'I' for Inactive)
REMARK    1  A    between atoms: C_1  and  C_2
REMARK    2  A    between atoms: C_2  and  C_3
REMARK    3  A    between atoms: C_2  and  N_4
REMARK    4  A    between atoms: N_13  and  C_14
REMARK    5  A    between atoms: N_22  and  C_23
REMARK                            x       y       z     vdW  Elec       q    Type
REMARK                         _______ _______ _______ _____ _____    ______ ____
ROOT
ATOM      1  N   UNL     1       8.014   9.881  17.659  0.00  0.00    +0.000 N 
ATOM      2  C   UNL     1       8.494   8.813  18.375  0.00  0.00    +0.000 C 
ATOM      3  O   UNL     1       9.362   8.934  19.231  0.00  0.00    +0.000 OA
ATOM      4  N   UNL     1       7.843   7.632  18.092  0.00  0.00    +0.000 N 
ATOM      5  C   UNL     1       8.122   6.388  18.785  0.00  0.00    +0.000 C 
ATOM      6  C   UNL     1       6.796   5.636  18.788  0.00  0.00    +0.000 C 
ATOM      7  C   UNL     1       6.021   6.143  17.543  0.00  0.00    +0.000 C 
ATOM      8  C   UNL     1       6.641   7.537  17.285  0.00  0.00    +0.000 C 
ATOM      9  C   UNL     1       4.530   6.393  17.889  0.00  0.00    +0.000 C 
ATOM     10  N   UNL     1       3.793   5.158  18.068  0.00  0.00    +0.000 N 
ATOM     11  C   UNL     1       3.876   4.225  17.032  0.00  0.00    +0.000 C 
ATOM     12  O   UNL     1       2.972   3.446  16.724  0.00  0.00    +0.000 OA
ATOM     13  C   UNL     1       5.267   4.062  16.426  0.00  0.00    +0.000 C 
ATOM     14  N   UNL     1       6.084   5.293  16.328  0.00  0.00    +0.000 NA
ATOM     15  C   UNL     1       7.436   4.914  15.906  0.00  0.00    +0.000 C 
ATOM     16  H   UNL     1       7.758   9.674  16.705  0.00  0.00    +0.000 HD
ENDROOT
BRANCH  10  17
ATOM     17  C   UNL     1       3.061   4.848  19.227  0.00  0.00    +0.000 A 
ATOM     18  C   UNL     1       1.945   5.604  19.711  0.00  0.00    +0.000 A 
ATOM     19  C   UNL     1       1.310   5.009  20.777  0.00  0.00    +0.000 A 
ATOM     20  S   UNL     1       2.099   3.577  21.265  0.00  0.00    +0.000 S 
ATOM     21  C   UNL     1       3.257   3.727  20.011  0.00  0.00    +0.000 A 
ENDBRANCH  10  17
BRANCH   1  23
ATOM     22  C   UNL     1       9.819  11.538  17.896  0.00  0.00    +0.000 C 
ATOM     23  C   UNL     1       8.316  11.270  17.956  0.00  0.00    +0.000 C 
ATOM     24  C   UNL     1       7.523  12.241  17.090  0.00  0.00    +0.000 C 
ENDBRANCH   1  23
TORSDOF 2
ENDMDL
MODEL 5
REMARK VINA RESULT:      -6.4      5.904      9.162
REMARK  Name = 
REMARK  5 active torsions:
REMARK  status: ('A' for Active; 'I' for Inactive)
REMARK    1  A    between atoms: C_1  and  C_2
REMARK    2  A    between atoms: C_2  and  C_3
REMARK    3  A    between atoms: C_2  and  N_4
REMARK    4  A    between atoms: N_13  and  C_14
REMARK    5  A    between atoms: N_22  and  C_23
REMARK                            x       y       z     vdW  Elec       q    Type
REMARK                         _______ _______ _______ _____ _____    ______ ____
ROOT
ATOM      1  N   UNL     1       1.627   8.726  19.617  0.00  0.00    +0.000 N 
ATOM      2  C   UNL     1       0.945   9.620  18.829  0.00  0.00    +0.000 C 
ATOM      3  O   UNL     1       0.629   9.368  17.673  0.00  0.00    +0.000 OA
ATOM      4  N   UNL     1       0.589  10.770  19.498  0.00  0.00    +0.000 N 
ATOM      5  C   UNL     1      -0.208  11.823  18.895  0.00  0.00    +0.000 C 
ATOM      6  C   UNL     1      -0.996  12.428  20.052  0.00  0.00    +0.000 C 
ATOM      7  C   UNL     1      -0.139  12.180  21.321  0.00  0.00    +0.000 C 
ATOM      8  C   UNL     1       0.723  10.955  20.932  0.00  0.00    +0.000 C 
ATOM      9  C   UNL     1      -1.032  11.718  22.503  0.00  0.00    +0.000 C 
ATOM     10  N   UNL     1      -1.836  12.799  23.038  0.00  0.00    +0.000 N 
ATOM     11  C   UNL     1      -1.157  13.964  23.400  0.00  0.00    +0.000 C 
ATOM     12  O   UNL     1      -1.498  14.711  24.319  0.00  0.00    +0.000 OA
ATOM     13  C   UNL     1      -0.063  14.397  22.428  0.00  0.00    +0.000 C 
ATOM     14  N   UNL     1       0.706  13.308  21.785  0.00  0.00    +0.000 NA
ATOM     15  C   UNL     1       1.568  13.900  20.756  0.00  0.00    +0.000 C 
ATOM     16  H   UNL     1       2.276   9.139  20.269  0.00  0.00    +0.000 HD
ENDROOT
BRANCH  10  17
ATOM     17  C   UNL     1      -3.235  12.743  23.158  0.00  0.00    +0.000 A 
ATOM     18  C   UNL     1      -3.937  12.474  24.377  0.00  0.00    +0.000 A 
ATOM     19  C   UNL     1      -5.300  12.624  24.260  0.00  0.00    +0.000 A 
ATOM     20  S   UNL     1      -5.761  13.005  22.663  0.00  0.00    +0.000 S 
ATOM     21  C   UNL     1      -4.129  13.025  22.142  0.00  0.00    +0.000 A 
ENDBRANCH  10  17
BRANCH   1  23
ATOM     22  C   UNL     1       3.119   7.200  18.388  0.00  0.00    +0.000 C 
ATOM     23  C   UNL     1       1.871   7.339  19.259  0.00  0.00    +0.000 C 
ATOM     24  C   UNL     1       1.911   6.419  20.473  0.00  0.00    +0.000 C 
ENDBRANCH   1  23
TORSDOF 2
ENDMDL
MODEL 6
REMARK VINA RESULT:      -6.3      6.322     11.318
REMARK  Name = 
REMARK  5 active torsions:
REMARK  status: ('A' for Active; 'I' for Inactive)
REMARK    1  A    between atoms: C_1  and  C_2
REMARK    2  A    between atoms: C_2  and  C_3
REMARK    3  A    between atoms: C_2  and  N_4
REMARK    4  A    between atoms: N_13  and  C_14
REMARK    5  A    between atoms: N_22  and  C_23
REMARK                            x       y       z     vdW  Elec       q    Type
REMARK                         _______ _______ _______ _____ _____    ______ ____
ROOT
ATOM      1  N   UNL     1      -5.072  12.915  21.480  0.00  0.00    +0.000 N 
ATOM      2  C   UNL     1      -4.163  12.631  22.470  0.00  0.00    +0.000 C 
ATOM      3  O   UNL     1      -4.503  12.256  23.585  0.00  0.00    +0.000 OA
ATOM      4  N   UNL     1      -2.855  12.727  22.049  0.00  0.00    +0.000 N 
ATOM      5  C   UNL     1      -1.724  12.393  22.895  0.00  0.00    +0.000 C 
ATOM      6  C   UNL     1      -0.656  11.878  21.935  0.00  0.00    +0.000 C 
ATOM      7  C   UNL     1      -0.947  12.563  20.574  0.00  0.00    +0.000 C 
ATOM      8  C   UNL     1      -2.454  12.904  20.665  0.00  0.00    +0.000 C 
ATOM      9  C   UNL     1      -0.806  11.549  19.409  0.00  0.00    +0.000 C 
ATOM     10  N   UNL     1       0.577  11.205  19.144  0.00  0.00    +0.000 N 
ATOM     11  C   UNL     1       1.457  12.270  18.939  0.00  0.00    +0.000 C 
ATOM     12  O   UNL     1       2.443  12.225  18.200  0.00  0.00    +0.000 OA
ATOM     13  C   UNL     1       1.258  13.457  19.877  0.00  0.00    +0.000 C 
ATOM     14  N   UNL     1      -0.142  13.766  20.249  0.00  0.00    +0.000 NA
ATOM     15  C   UNL     1      -0.123  14.799  21.289  0.00  0.00    +0.000 C 
ATOM     16  H   UNL     1      -4.806  13.665  20.860  0.00  0.00    +0.000 HD
ENDROOT
BRANCH  10  17
ATOM     17  C   UNL     1       1.065   9.887  19.136  0.00  0.00    +0.000 A 
ATOM     18  C   UNL     1       1.684   9.257  18.008  0.00  0.00    +0.000 A 
ATOM     19  C   UNL     1       2.209   8.019  18.303  0.00  0.00    +0.000 A 
ATOM     20  S   UNL     1       1.888   7.561  19.914  0.00  0.00    +0.000 S 
ATOM     21  C   UNL     1       1.096   9.047  20.232  0.00  0.00    +0.000 A 
ENDBRANCH  10  17
BRANCH   1  23
ATOM     22  C   UNL     1      -7.330  13.897  21.474  0.00  0.00    +0.000 C 
ATOM     23  C   UNL     1      -6.492  12.623  21.563  0.00  0.00    +0.000 C 
ATOM     24  C   UNL     1      -6.934  11.571  20.553  0.00  0.00    +0.000 C 
ENDBRANCH   1  23
TORSDOF 2
ENDMDL
MODEL 7
REMARK VINA RESULT:      -6.3      6.001     10.763
REMARK  Name = 
REMARK  5 active torsions:
REMARK  status: ('A' for Active; 'I' for Inactive)
REMARK    1  A    between atoms: C_1  and  C_2
REMARK    2  A    between atoms: C_2  and  C_3
REMARK    3  A    between atoms: C_2  and  N_4
REMARK    4  A    between atoms: N_13  and  C_14
REMARK    5  A    between atoms: N_22  and  C_23
REMARK                            x       y       z     vdW  Elec       q    Type
REMARK                         _______ _______ _______ _____ _____    ______ ____
ROOT
ATOM      1  N   UNL     1      -5.406  12.299  19.270  0.00  0.00    +0.000 N 
ATOM      2  C   UNL     1      -4.749  12.352  20.475  0.00  0.00    +0.000 C 
ATOM      3  O   UNL     1      -5.327  12.207  21.544  0.00  0.00    +0.000 OA
ATOM      4  N   UNL     1      -3.385  12.494  20.343  0.00  0.00    +0.000 N 
ATOM      5  C   UNL     1      -2.476  12.491  21.474  0.00  0.00    +0.000 C 
ATOM      6  C   UNL     1      -1.181  11.892  20.934  0.00  0.00    +0.000 C 
ATOM      7  C   UNL     1      -1.171  12.210  19.415  0.00  0.00    +0.000 C 
ATOM      8  C   UNL     1      -2.672  12.393  19.083  0.00  0.00    +0.000 C 
ATOM      9  C   UNL     1      -0.698  10.978  18.601  0.00  0.00    +0.000 C 
ATOM     10  N   UNL     1       0.724  10.739  18.743  0.00  0.00    +0.000 N 
ATOM     11  C   UNL     1       1.569  11.819  18.479  0.00  0.00    +0.000 C 
ATOM     12  O   UNL     1       2.705  11.716  18.012  0.00  0.00    +0.000 OA
ATOM     13  C   UNL     1       1.085  13.160  19.024  0.00  0.00    +0.000 C 
ATOM     14  N   UNL     1      -0.378  13.388  18.988  0.00  0.00    +0.000 NA
ATOM     15  C   UNL     1      -0.668  14.628  19.715  0.00  0.00    +0.000 C 
ATOM     16  H   UNL     1      -5.039  12.911  18.557  0.00  0.00    +0.000 HD
ENDROOT
BRANCH  10  17
ATOM     17  C   UNL     1       1.271   9.517  19.171  0.00  0.00    +0.000 A 
ATOM     18  C   UNL     1       1.134   8.984  20.494  0.00  0.00    +0.000 A 
ATOM     19  C   UNL     1       1.631   7.707  20.616  0.00  0.00    +0.000 A 
ATOM     20  S   UNL     1       2.347   7.164  19.166  0.00  0.00    +0.000 S 
ATOM     21  C   UNL     1       1.939   8.620  18.360  0.00  0.00    +0.000 A 
ENDBRANCH  10  17
BRANCH   1  23
ATOM     22  C   UNL     1      -7.478  12.655  17.989  0.00  0.00    +0.000 C 
ATOM     23  C   UNL     1      -6.786  11.877  19.107  0.00  0.00    +0.000 C 
ATOM     24  C   UNL     1      -6.921  10.369  18.927  0.00  0.00    +0.000 C 
ENDBRANCH   1  23
TORSDOF 2
ENDMDL
MODEL 8
REMARK VINA RESULT:      -6.1      8.794     11.709
REMARK  Name = 
REMARK  5 active torsions:
REMARK  status: ('A' for Active; 'I' for Inactive)
REMARK    1  A    between atoms: C_1  and  C_2
REMARK    2  A    between atoms: C_2  and  C_3
REMARK    3  A    between atoms: C_2  and  N_4
REMARK    4  A    between atoms: N_13  and  C_14
REMARK    5  A    between atoms: N_22  and  C_23
REMARK                            x       y       z     vdW  Elec       q    Type
REMARK                         _______ _______ _______ _____ _____    ______ ____
ROOT
ATOM      1  N   UNL     1       3.088  14.152  19.762  0.00  0.00    +0.000 N 
ATOM      2  C   UNL     1       3.875  14.355  20.869  0.00  0.00    +0.000 C 
ATOM      3  O   UNL     1       3.530  14.005  21.991  0.00  0.00    +0.000 OA
ATOM      4  N   UNL     1       5.103  14.900  20.569  0.00  0.00    +0.000 N 
ATOM      5  C   UNL     1       6.133  15.127  21.565  0.00  0.00    +0.000 C 
ATOM      6  C   UNL     1       7.449  14.959  20.813  0.00  0.00    +0.000 C 
ATOM      7  C   UNL     1       7.139  15.321  19.336  0.00  0.00    +0.000 C 
ATOM      8  C   UNL     1       5.617  15.062  19.221  0.00  0.00    +0.000 C 
ATOM      9  C   UNL     1       7.820  14.316  18.371  0.00  0.00    +0.000 C 
ATOM     10  N   UNL     1       9.255  14.506  18.303  0.00  0.00    +0.000 N 
ATOM     11  C   UNL     1       9.702  15.797  18.016  0.00  0.00    +0.000 C 
ATOM     12  O   UNL     1      10.735  16.054  17.395  0.00  0.00    +0.000 OA
ATOM     13  C   UNL     1       8.938  16.913  18.725  0.00  0.00    +0.000 C 
ATOM     14  N   UNL     1       7.484  16.697  18.901  0.00  0.00    +0.000 NA
ATOM     15  C   UNL     1       6.961  17.767  19.757  0.00  0.00    +0.000 C 
ATOM     16  H   UNL     1       3.150  14.872  19.057  0.00  0.00    +0.000 HD
ENDROOT
BRANCH  10  17
ATOM     17  C   UNL     1      10.189  13.487  18.557  0.00  0.00    +0.000 A 
ATOM     18  C   UNL     1      10.625  12.524  17.590  0.00  0.00    +0.000 A 
ATOM     19  C   UNL     1      11.653  11.730  18.044  0.00  0.00    +0.000 A 
ATOM     20  S   UNL     1      12.048  12.071  19.668  0.00  0.00    +0.000 S 
ATOM     21  C   UNL     1      10.880  13.322  19.742  0.00  0.00    +0.000 A 
ENDBRANCH  10  17
BRANCH   1  23
ATOM     22  C   UNL     1       0.626  14.218  19.762  0.00  0.00    +0.000 C 
ATOM     23  C   UNL     1       1.880  13.346  19.751  0.00  0.00    +0.000 C 
ATOM     24  C   UNL     1       1.864  12.331  18.614  0.00  0.00    +0.000 C 
ENDBRANCH   1  23
TORSDOF 2
ENDMDL
MODEL 9
REMARK VINA RESULT:      -6.1      8.529     11.608
REMARK  Name = 
REMARK  5 active torsions:
REMARK  status: ('A' for Active; 'I' for Inactive)
REMARK    1  A    between atoms: C_1  and  C_2
REMARK    2  A    between atoms: C_2  and  C_3
REMARK    3  A    between atoms: C_2  and  N_4
REMARK    4  A    between atoms: N_13  and  C_14
REMARK    5  A    between atoms: N_22  and  C_23
REMARK                            x       y       z     vdW  Elec       q    Type
REMARK                         _______ _______ _______ _____ _____    ______ ____
ROOT
ATOM      1  N   UNL     1       2.783  13.969  19.405  0.00  0.00    +0.000 N 
ATOM      2  C   UNL     1       3.521  14.172  20.545  0.00  0.00    +0.000 C 
ATOM      3  O   UNL     1       3.171  13.743  21.638  0.00  0.00    +0.000 OA
ATOM      4  N   UNL     1       4.713  14.821  20.312  0.00  0.00    +0.000 N 
ATOM      5  C   UNL     1       5.694  15.072  21.350  0.00  0.00    +0.000 C 
ATOM      6  C   UNL     1       7.040  15.040  20.633  0.00  0.00    +0.000 C 
ATOM      7  C   UNL     1       6.746  15.451  19.166  0.00  0.00    +0.000 C 
ATOM      8  C   UNL     1       5.252  15.087  18.991  0.00  0.00    +0.000 C 
ATOM      9  C   UNL     1       7.527  14.549  18.177  0.00  0.00    +0.000 C 
ATOM     10  N   UNL     1       8.946  14.847  18.165  0.00  0.00    +0.000 N 
ATOM     11  C   UNL     1       9.303  16.180  17.954  0.00  0.00    +0.000 C 
ATOM     12  O   UNL     1      10.331  16.543  17.380  0.00  0.00    +0.000 OA
ATOM     13  C   UNL     1       8.438  17.200  18.691  0.00  0.00    +0.000 C 
ATOM     14  N   UNL     1       7.000  16.869  18.810  0.00  0.00    +0.000 NA
ATOM     15  C   UNL     1       6.374  17.854  19.698  0.00  0.00    +0.000 C 
ATOM     16  H   UNL     1       2.811  14.726  18.738  0.00  0.00    +0.000 HD
ENDROOT
BRANCH  10  17
ATOM     17  C   UNL     1       9.946  13.888  18.399  0.00  0.00    +0.000 A 
ATOM     18  C   UNL     1      10.524  13.613  19.681  0.00  0.00    +0.000 A 
ATOM     19  C   UNL     1      11.371  12.528  19.669  0.00  0.00    +0.000 A 
ATOM     20  S   UNL     1      11.551  11.881  18.102  0.00  0.00    +0.000 S 
ATOM     21  C   UNL     1      10.448  13.018  17.450  0.00  0.00    +0.000 A 
ENDBRANCH  10  17
BRANCH   1  23
ATOM     22  C   UNL     1       0.393  13.816  18.833  0.00  0.00    +0.000 C 
ATOM     23  C   UNL     1       1.640  13.077  19.316  0.00  0.00    +0.000 C 
ATOM     24  C   UNL     1       1.930  11.833  18.485  0.00  0.00    +0.000 C 
ENDBRANCH   1  23
TORSDOF 2
ENDMDL
