MODEL 1
REMARK VINA RESULT:      -8.2      0.000      0.000
REMARK  Name = 
REMARK  6 active torsions:
REMARK  status: ('A' for Active; 'I' for Inactive)
REMARK    1  A    between atoms: N_2  and  C_4
REMARK    2  A    between atoms: C_5  and  C_6
REMARK    3  A    between atoms: C_6  and  S_7
REMARK    4  A    between atoms: S_7  and  C_10
REMARK    5  A    between atoms: C_18  and  C_19
REMARK    6  A    between atoms: C_20  and  C_21
REMARK                            x       y       z     vdW  Elec       q    Type
REMARK                         _______ _______ _______ _____ _____    ______ ____
ROOT
ATOM      1  C   UNL     1       4.342   3.524  17.772  0.00  0.00    +0.000 A 
ATOM      2  C   UNL     1       4.394   4.343  18.888  0.00  0.00    +0.000 A 
ATOM      3  N   UNL     1       5.299   5.362  18.661  0.00  0.00    +0.000 NA
ATOM      4  C   UNL     1       5.743   5.210  17.427  0.00  0.00    +0.000 A 
ATOM      5  C   UNL     1       6.671   5.986  16.647  0.00  0.00    +0.000 A 
ATOM      6  C   UNL     1       6.979   5.604  15.392  0.00  0.00    +0.000 A 
ATOM      7  C   UNL     1       6.394   4.417  14.807  0.00  0.00    +0.000 A 
ATOM      8 CL   UNL     1       6.827   3.980  13.202  0.00  0.00    +0.000 Cl
ATOM      9  C   UNL     1       5.527   3.683  15.520  0.00  0.00    +0.000 A 
ATOM     10  N   UNL     1       5.188   4.069  16.823  0.00  0.00    +0.000 N 
ENDROOT
BRANCH   1  12
ATOM     11  O   UNL     1       2.612   2.385  16.859  0.00  0.00    +0.000 OA
ATOM     12  N   UNL     1       3.601   2.317  17.592  0.00  0.00    +0.000 N 
ATOM     13  O   UNL     1       3.961   1.308  18.203  0.00  0.00    +0.000 OA
ENDBRANCH   1  12
BRANCH   5  14
ATOM     14  C   UNL     1       7.309   7.246  17.210  0.00  0.00    +0.000 C 
ATOM     15  C   UNL     1       7.856   8.326  17.693  0.00  0.00    +0.000 C 
BRANCH  15  16
ATOM     16  C   UNL     1       8.443   9.531  18.188  0.00  0.00    +0.000 A 
ATOM     17  C   UNL     1       9.151   9.536  19.388  0.00  0.00    +0.000 A 
ATOM     18  C   UNL     1       9.680  10.734  19.868  0.00  0.00    +0.000 A 
ATOM     19  C   UNL     1       9.479  11.887  19.126  0.00  0.00    +0.000 A 
ATOM     20  N   UNL     1       8.817  11.914  17.948  0.00  0.00    +0.000 NA
ATOM     21  C   UNL     1       8.319  10.733  17.504  0.00  0.00    +0.000 A 
ENDBRANCH  15  16
ENDBRANCH   5  14
BRANCH   2  22
ATOM     22  C   UNL     1       3.720   4.234  20.222  0.00  0.00    +0.000 C 
BRANCH  22  23
ATOM     23  S   UNL     1       1.960   4.590  20.145  0.00  0.00    +0.000 S 
ATOM     24  O   UNL     1       1.360   3.841  19.053  0.00  0.00    +0.000 OA
ATOM     25  O   UNL     1       1.396   4.502  21.480  0.00  0.00    +0.000 OA
BRANCH  23  26
ATOM     26  C   UNL     1       1.914   6.310  19.665  0.00  0.00    +0.000 A 
ATOM     27  C   UNL     1       1.592   7.295  20.605  0.00  0.00    +0.000 A 
ATOM     28  C   UNL     1       1.545   8.636  20.209  0.00  0.00    +0.000 A 
ATOM     29  C   UNL     1       1.849   8.986  18.893  0.00  0.00    +0.000 A 
ATOM     30  C   UNL     1       2.218   8.004  17.973  0.00  0.00    +0.000 A 
ATOM     31  C   UNL     1       2.251   6.663  18.355  0.00  0.00    +0.000 A 
ENDBRANCH  23  26
ENDBRANCH  22  23
ENDBRANCH   2  22
TORSDOF 6
ENDMDL
MODEL 2
REMARK VINA RESULT:      -8.1      0.519      1.230
REMARK  Name = 
REMARK  6 active torsions:
REMARK  status: ('A' for Active; 'I' for Inactive)
REMARK    1  A    between atoms: N_2  and  C_4
REMARK    2  A    between atoms: C_5  and  C_6
REMARK    3  A    between atoms: C_6  and  S_7
REMARK    4  A    between atoms: S_7  and  C_10
REMARK    5  A    between atoms: C_18  and  C_19
REMARK    6  A    between atoms: C_20  and  C_21
REMARK                            x       y       z     vdW  Elec       q    Type
REMARK                         _______ _______ _______ _____ _____    ______ ____
ROOT
ATOM      1  C   UNL     1       4.363   3.606  17.742  0.00  0.00    +0.000 A 
ATOM      2  C   UNL     1       4.425   4.408  18.869  0.00  0.00    +0.000 A 
ATOM      3  N   UNL     1       5.330   5.428  18.651  0.00  0.00    +0.000 NA
ATOM      4  C   UNL     1       5.766   5.294  17.412  0.00  0.00    +0.000 A 
ATOM      5  C   UNL     1       6.691   6.080  16.637  0.00  0.00    +0.000 A 
ATOM      6  C   UNL     1       6.989   5.716  15.375  0.00  0.00    +0.000 A 
ATOM      7  C   UNL     1       6.398   4.539  14.777  0.00  0.00    +0.000 A 
ATOM      8 CL   UNL     1       6.819   4.125  13.162  0.00  0.00    +0.000 Cl
ATOM      9  C   UNL     1       5.534   3.796  15.484  0.00  0.00    +0.000 A 
ATOM     10  N   UNL     1       5.204   4.163  16.795  0.00  0.00    +0.000 N 
ENDROOT
BRANCH   1  12
ATOM     11  O   UNL     1       2.632   2.482  16.812  0.00  0.00    +0.000 OA
ATOM     12  N   UNL     1       3.619   2.403  17.548  0.00  0.00    +0.000 N 
ATOM     13  O   UNL     1       3.973   1.388  18.151  0.00  0.00    +0.000 OA
ENDBRANCH   1  12
BRANCH   5  14
ATOM     14  C   UNL     1       7.335   7.330  17.215  0.00  0.00    +0.000 C 
ATOM     15  C   UNL     1       7.888   8.401  17.711  0.00  0.00    +0.000 C 
BRANCH  15  16
ATOM     16  C   UNL     1       8.477   9.599  18.222  0.00  0.00    +0.000 A 
ATOM     17  C   UNL     1       8.378  10.796  17.518  0.00  0.00    +0.000 A 
ATOM     18  C   UNL     1       8.997  11.941  18.020  0.00  0.00    +0.000 A 
ATOM     19  C   UNL     1       9.693  11.842  19.214  0.00  0.00    +0.000 A 
ATOM     20  N   UNL     1       9.792  10.703  19.934  0.00  0.00    +0.000 NA
ATOM     21  C   UNL     1       9.175   9.608  19.423  0.00  0.00    +0.000 A 
ENDBRANCH  15  16
ENDBRANCH   5  14
BRANCH   2  22
ATOM     22  C   UNL     1       3.759   4.281  20.205  0.00  0.00    +0.000 C 
BRANCH  22  23
ATOM     23  S   UNL     1       2.002   4.652  20.148  0.00  0.00    +0.000 S 
ATOM     24  O   UNL     1       1.374   3.870  19.095  0.00  0.00    +0.000 OA
ATOM     25  O   UNL     1       1.462   4.619  21.495  0.00  0.00    +0.000 OA
BRANCH  23  26
ATOM     26  C   UNL     1       1.964   6.354  19.607  0.00  0.00    +0.000 A 
ATOM     27  C   UNL     1       2.226   6.675  18.270  0.00  0.00    +0.000 A 
ATOM     28  C   UNL     1       2.206   8.014  17.867  0.00  0.00    +0.000 A 
ATOM     29  C   UNL     1       1.896   9.017  18.787  0.00  0.00    +0.000 A 
ATOM     30  C   UNL     1       1.586   8.685  20.107  0.00  0.00    +0.000 A 
ATOM     31  C   UNL     1       1.619   7.354  20.522  0.00  0.00    +0.000 A 
ENDBRANCH  23  26
ENDBRANCH  22  23
ENDBRANCH   2  22
TORSDOF 6
ENDMDL
MODEL 3
REMARK VINA RESULT:      -7.7      6.558      9.299
REMARK  Name = 
REMARK  6 active torsions:
REMARK  status: ('A' for Active; 'I' for Inactive)
REMARK    1  A    between atoms: N_2  and  C_4
REMARK    2  A    between atoms: C_5  and  C_6
REMARK    3  A    between atoms: C_6  and  S_7
REMARK    4  A    between atoms: S_7  and  C_10
REMARK    5  A    between atoms: C_18  and  C_19
REMARK    6  A    between atoms: C_20  and  C_21
REMARK                            x       y       z     vdW  Elec       q    Type
REMARK                         _______ _______ _______ _____ _____    ______ ____
ROOT
ATOM      1  C   UNL     1      -1.584  11.540  19.752  0.00  0.00    +0.000 A 
ATOM      2  C   UNL     1      -1.278  11.228  18.438  0.00  0.00    +0.000 A 
ATOM      3  N   UNL     1      -0.282  10.270  18.418  0.00  0.00    +0.000 NA
ATOM      4  C   UNL     1      -0.027   9.961  19.677  0.00  0.00    +0.000 A 
ATOM      5  C   UNL     1       0.889   9.012  20.256  0.00  0.00    +0.000 A 
ATOM      6  C   UNL     1       0.977   8.895  21.595  0.00  0.00    +0.000 A 
ATOM      7  C   UNL     1       0.167   9.713  22.472  0.00  0.00    +0.000 A 
ATOM      8 CL   UNL     1       0.325   9.519  24.172  0.00  0.00    +0.000 Cl
ATOM      9  C   UNL     1      -0.691  10.601  21.948  0.00  0.00    +0.000 A 
ATOM     10  N   UNL     1      -0.803  10.731  20.558  0.00  0.00    +0.000 N 
ENDROOT
BRANCH   1  12
ATOM     11  O   UNL     1      -2.040  13.653  20.423  0.00  0.00    +0.000 OA
ATOM     12  N   UNL     1      -2.497  12.522  20.241  0.00  0.00    +0.000 N 
ATOM     13  O   UNL     1      -3.655  12.177  20.489  0.00  0.00    +0.000 OA
ENDBRANCH   1  12
BRANCH   5  14
ATOM     14  C   UNL     1       1.757   8.123  19.381  0.00  0.00    +0.000 C 
ATOM     15  C   UNL     1       2.501   7.360  18.630  0.00  0.00    +0.000 C 
BRANCH  15  16
ATOM     16  C   UNL     1       3.340   6.513  17.842  0.00  0.00    +0.000 A 
ATOM     17  C   UNL     1       4.372   7.050  17.076  0.00  0.00    +0.000 A 
ATOM     18  C   UNL     1       5.150   6.206  16.284  0.00  0.00    +0.000 A 
ATOM     19  C   UNL     1       4.864   4.850  16.289  0.00  0.00    +0.000 A 
ATOM     20  N   UNL     1       3.885   4.293  17.035  0.00  0.00    +0.000 NA
ATOM     21  C   UNL     1       3.149   5.139  17.800  0.00  0.00    +0.000 A 
ENDBRANCH  15  16
ENDBRANCH   5  14
BRANCH   2  22
ATOM     22  C   UNL     1      -1.782  11.799  17.147  0.00  0.00    +0.000 C 
BRANCH  22  23
ATOM     23  S   UNL     1      -2.963  10.724  16.323  0.00  0.00    +0.000 S 
ATOM     24  O   UNL     1      -3.110  11.136  14.936  0.00  0.00    +0.000 OA
ATOM     25  O   UNL     1      -2.654   9.342  16.640  0.00  0.00    +0.000 OA
BRANCH  23  26
ATOM     26  C   UNL     1      -4.506  11.118  17.134  0.00  0.00    +0.000 A 
ATOM     27  C   UNL     1      -5.224  12.261  16.766  0.00  0.00    +0.000 A 
ATOM     28  C   UNL     1      -6.422  12.562  17.421  0.00  0.00    +0.000 A 
ATOM     29  C   UNL     1      -6.909  11.710  18.413  0.00  0.00    +0.000 A 
ATOM     30  C   UNL     1      -6.214  10.545  18.740  0.00  0.00    +0.000 A 
ATOM     31  C   UNL     1      -5.010  10.245  18.103  0.00  0.00    +0.000 A 
ENDBRANCH  23  26
ENDBRANCH  22  23
ENDBRANCH   2  22
TORSDOF 6
ENDMDL
MODEL 4
REMARK VINA RESULT:      -7.5      6.482      9.668
REMARK  Name = 
REMARK  6 active torsions:
REMARK  status: ('A' for Active; 'I' for Inactive)
REMARK    1  A    between atoms: N_2  and  C_4
REMARK    2  A    between atoms: C_5  and  C_6
REMARK    3  A    between atoms: C_6  and  S_7
REMARK    4  A    between atoms: S_7  and  C_10
REMARK    5  A    between atoms: C_18  and  C_19
REMARK    6  A    between atoms: C_20  and  C_21
REMARK                            x       y       z     vdW  Elec       q    Type
REMARK                         _______ _______ _______ _____ _____    ______ ____
ROOT
ATOM      1  C   UNL     1       0.288  13.559  19.194  0.00  0.00    +0.000 A 
ATOM      2  C   UNL     1       1.609  13.263  19.483  0.00  0.00    +0.000 A 
ATOM      3  N   UNL     1       1.846  11.929  19.211  0.00  0.00    +0.000 NA
ATOM      4  C   UNL     1       0.726  11.437  18.716  0.00  0.00    +0.000 A 
ATOM      5  C   UNL     1       0.396  10.120  18.233  0.00  0.00    +0.000 A 
ATOM      6  C   UNL     1      -0.848   9.861  17.785  0.00  0.00    +0.000 A 
ATOM      7  C   UNL     1      -1.870  10.884  17.784  0.00  0.00    +0.000 A 
ATOM      8 CL   UNL     1      -3.439  10.492  17.203  0.00  0.00    +0.000 Cl
ATOM      9  C   UNL     1      -1.580  12.115  18.230  0.00  0.00    +0.000 A 
ATOM     10  N   UNL     1      -0.290  12.407  18.690  0.00  0.00    +0.000 N 
ENDROOT
BRANCH   1  12
ATOM     11  O   UNL     1      -1.114  14.866  20.398  0.00  0.00    +0.000 OA
ATOM     12  N   UNL     1      -0.408  14.789  19.389  0.00  0.00    +0.000 N 
ATOM     13  O   UNL     1      -0.301  15.669  18.531  0.00  0.00    +0.000 OA
ENDBRANCH   1  12
BRANCH   5  14
ATOM     14  C   UNL     1       1.435   9.011  18.205  0.00  0.00    +0.000 C 
ATOM     15  C   UNL     1       2.326   8.060  18.182  0.00  0.00    +0.000 C 
BRANCH  15  16
ATOM     16  C   UNL     1       3.296   7.012  18.116  0.00  0.00    +0.000 A 
ATOM     17  C   UNL     1       4.250   6.990  17.102  0.00  0.00    +0.000 A 
ATOM     18  C   UNL     1       5.159   5.935  17.036  0.00  0.00    +0.000 A 
ATOM     19  C   UNL     1       5.078   4.936  17.993  0.00  0.00    +0.000 A 
ATOM     20  N   UNL     1       4.179   4.936  19.003  0.00  0.00    +0.000 NA
ATOM     21  C   UNL     1       3.312   5.979  19.043  0.00  0.00    +0.000 A 
ENDBRANCH  15  16
ENDBRANCH   5  14
BRANCH   2  22
ATOM     22  C   UNL     1       2.700  14.103  20.076  0.00  0.00    +0.000 C 
BRANCH  22  23
ATOM     23  S   UNL     1       3.347  15.321  18.924  0.00  0.00    +0.000 S 
ATOM     24  O   UNL     1       2.926  14.984  17.574  0.00  0.00    +0.000 OA
ATOM     25  O   UNL     1       3.102  16.652  19.449  0.00  0.00    +0.000 OA
BRANCH  23  26
ATOM     26  C   UNL     1       5.111  15.045  18.988  0.00  0.00    +0.000 A 
ATOM     27  C   UNL     1       5.797  15.157  20.203  0.00  0.00    +0.000 A 
ATOM     28  C   UNL     1       7.181  14.952  20.232  0.00  0.00    +0.000 A 
ATOM     29  C   UNL     1       7.862  14.609  19.063  0.00  0.00    +0.000 A 
ATOM     30  C   UNL     1       7.163  14.450  17.866  0.00  0.00    +0.000 A 
ATOM     31  C   UNL     1       5.785  14.668  17.824  0.00  0.00    +0.000 A 
ENDBRANCH  23  26
ENDBRANCH  22  23
ENDBRANCH   2  22
TORSDOF 6
ENDMDL
MODEL 5
REMARK VINA RESULT:      -7.4      6.476      9.719
REMARK  Name = 
REMARK  6 active torsions:
REMARK  status: ('A' for Active; 'I' for Inactive)
REMARK    1  A    between atoms: N_2  and  C_4
REMARK    2  A    between atoms: C_5  and  C_6
REMARK    3  A    between atoms: C_6  and  S_7
REMARK    4  A    between atoms: S_7  and  C_10
REMARK    5  A    between atoms: C_18  and  C_19
REMARK    6  A    between atoms: C_20  and  C_21
REMARK                            x       y       z     vdW  Elec       q    Type
REMARK                         _______ _______ _______ _____ _____    ______ ____
ROOT
ATOM      1  C   UNL     1       0.390  13.562  19.304  0.00  0.00    +0.000 A 
ATOM      2  C   UNL     1       1.712  13.202  19.505  0.00  0.00    +0.000 A 
ATOM      3  N   UNL     1       1.877  11.873  19.167  0.00  0.00    +0.000 NA
ATOM      4  C   UNL     1       0.711  11.446  18.717  0.00  0.00    +0.000 A 
ATOM      5  C   UNL     1       0.301  10.166  18.202  0.00  0.00    +0.000 A 
ATOM      6  C   UNL     1      -0.976   9.974  17.817  0.00  0.00    +0.000 A 
ATOM      7  C   UNL     1      -1.954  11.036  17.915  0.00  0.00    +0.000 A 
ATOM      8 CL   UNL     1      -3.568  10.731  17.410  0.00  0.00    +0.000 Cl
ATOM      9  C   UNL     1      -1.588  12.235  18.392  0.00  0.00    +0.000 A 
ATOM     10  N   UNL     1      -0.263  12.456  18.789  0.00  0.00    +0.000 N 
ENDROOT
BRANCH   1  12
ATOM     11  O   UNL     1      -0.284  15.626  18.664  0.00  0.00    +0.000 OA
ATOM     12  N   UNL     1      -0.243  14.810  19.588  0.00  0.00    +0.000 N 
ATOM     13  O   UNL     1      -0.662  15.010  20.730  0.00  0.00    +0.000 OA
ENDBRANCH   1  12
BRANCH   5  14
ATOM     14  C   UNL     1       1.289   9.018  18.070  0.00  0.00    +0.000 C 
ATOM     15  C   UNL     1       2.137   8.034  17.957  0.00  0.00    +0.000 C 
BRANCH  15  16
ATOM     16  C   UNL     1       3.034   6.929  17.828  0.00  0.00    +0.000 A 
ATOM     17  C   UNL     1       2.632   5.643  18.180  0.00  0.00    +0.000 A 
ATOM     18  C   UNL     1       3.540   4.589  18.082  0.00  0.00    +0.000 A 
ATOM     19  C   UNL     1       4.822   4.864  17.633  0.00  0.00    +0.000 A 
ATOM     20  N   UNL     1       5.239   6.096  17.264  0.00  0.00    +0.000 NA
ATOM     21  C   UNL     1       4.332   7.099  17.364  0.00  0.00    +0.000 A 
ENDBRANCH  15  16
ENDBRANCH   5  14
BRANCH   2  22
ATOM     22  C   UNL     1       2.868  13.973  20.067  0.00  0.00    +0.000 C 
BRANCH  22  23
ATOM     23  S   UNL     1       3.457  15.256  18.957  0.00  0.00    +0.000 S 
ATOM     24  O   UNL     1       3.008  14.972  17.603  0.00  0.00    +0.000 OA
ATOM     25  O   UNL     1       3.196  16.557  19.548  0.00  0.00    +0.000 OA
BRANCH  23  26
ATOM     26  C   UNL     1       5.227  15.020  18.964  0.00  0.00    +0.000 A 
ATOM     27  C   UNL     1       5.953  15.166  20.152  0.00  0.00    +0.000 A 
ATOM     28  C   UNL     1       7.341  14.992  20.136  0.00  0.00    +0.000 A 
ATOM     29  C   UNL     1       7.988  14.644  18.950  0.00  0.00    +0.000 A 
ATOM     30  C   UNL     1       7.252  14.450  17.780  0.00  0.00    +0.000 A 
ATOM     31  C   UNL     1       5.870  14.638  17.782  0.00  0.00    +0.000 A 
ENDBRANCH  23  26
ENDBRANCH  22  23
ENDBRANCH   2  22
TORSDOF 6
ENDMDL
MODEL 6
REMARK VINA RESULT:      -7.4      6.751     10.136
REMARK  Name = 
REMARK  6 active torsions:
REMARK  status: ('A' for Active; 'I' for Inactive)
REMARK    1  A    between atoms: N_2  and  C_4
REMARK    2  A    between atoms: C_5  and  C_6
REMARK    3  A    between atoms: C_6  and  S_7
REMARK    4  A    between atoms: S_7  and  C_10
REMARK    5  A    between atoms: C_18  and  C_19
REMARK    6  A    between atoms: C_20  and  C_21
REMARK                            x       y       z     vdW  Elec       q    Type
REMARK                         _______ _______ _______ _____ _____    ______ ____
ROOT
ATOM      1  C   UNL     1       0.760  13.972  19.266  0.00  0.00    +0.000 A 
ATOM      2  C   UNL     1       2.081  13.558  19.293  0.00  0.00    +0.000 A 
ATOM      3  N   UNL     1       2.137  12.201  19.036  0.00  0.00    +0.000 NA
ATOM      4  C   UNL     1       0.899  11.807  18.800  0.00  0.00    +0.000 A 
ATOM      5  C   UNL     1       0.362  10.517  18.450  0.00  0.00    +0.000 A 
ATOM      6  C   UNL     1      -0.966  10.367  18.276  0.00  0.00    +0.000 A 
ATOM      7  C   UNL     1      -1.872  11.483  18.439  0.00  0.00    +0.000 A 
ATOM      8 CL   UNL     1      -3.555  11.230  18.205  0.00  0.00    +0.000 Cl
ATOM      9  C   UNL     1      -1.388  12.691  18.763  0.00  0.00    +0.000 A 
ATOM     10  N   UNL     1      -0.009  12.869  18.940  0.00  0.00    +0.000 N 
ENDROOT
BRANCH   1  12
ATOM     11  O   UNL     1      -0.064  15.962  18.570  0.00  0.00    +0.000 OA
ATOM     12  N   UNL     1       0.231  15.268  19.546  0.00  0.00    +0.000 N 
ATOM     13  O   UNL     1       0.143  15.626  20.723  0.00  0.00    +0.000 OA
ENDBRANCH   1  12
BRANCH   5  14
ATOM     14  C   UNL     1       1.269   9.313  18.260  0.00  0.00    +0.000 C 
ATOM     15  C   UNL     1       2.049   8.280  18.097  0.00  0.00    +0.000 C 
BRANCH  15  16
ATOM     16  C   UNL     1       2.901   7.155  17.877  0.00  0.00    +0.000 A 
ATOM     17  C   UNL     1       2.478   5.869  18.204  0.00  0.00    +0.000 A 
ATOM     18  C   UNL     1       3.345   4.793  18.016  0.00  0.00    +0.000 A 
ATOM     19  C   UNL     1       4.609   5.046  17.506  0.00  0.00    +0.000 A 
ATOM     20  N   UNL     1       5.044   6.278  17.159  0.00  0.00    +0.000 NA
ATOM     21  C   UNL     1       4.176   7.303  17.347  0.00  0.00    +0.000 A 
ENDBRANCH  15  16
ENDBRANCH   5  14
BRANCH   2  22
ATOM     22  C   UNL     1       3.340  14.303  19.617  0.00  0.00    +0.000 C 
BRANCH  22  23
ATOM     23  S   UNL     1       3.618  15.707  18.530  0.00  0.00    +0.000 S 
ATOM     24  O   UNL     1       3.142  15.389  17.194  0.00  0.00    +0.000 OA
ATOM     25  O   UNL     1       3.167  16.919  19.190  0.00  0.00    +0.000 OA
BRANCH  23  26
ATOM     26  C   UNL     1       5.399  15.795  18.427  0.00  0.00    +0.000 A 
ATOM     27  C   UNL     1       6.127  14.733  17.877  0.00  0.00    +0.000 A 
ATOM     28  C   UNL     1       7.521  14.813  17.817  0.00  0.00    +0.000 A 
ATOM     29  C   UNL     1       8.177  15.957  18.275  0.00  0.00    +0.000 A 
ATOM     30  C   UNL     1       7.442  17.033  18.775  0.00  0.00    +0.000 A 
ATOM     31  C   UNL     1       6.051  16.956  18.854  0.00  0.00    +0.000 A 
ENDBRANCH  23  26
ENDBRANCH  22  23
ENDBRANCH   2  22
TORSDOF 6
ENDMDL
MODEL 7
REMARK VINA RESULT:      -7.4      6.793     10.222
REMARK  Name = 
REMARK  6 active torsions:
REMARK  status: ('A' for Active; 'I' for Inactive)
REMARK    1  A    between atoms: N_2  and  C_4
REMARK    2  A    between atoms: C_5  and  C_6
REMARK    3  A    between atoms: C_6  and  S_7
REMARK    4  A    between atoms: S_7  and  C_10
REMARK    5  A    between atoms: C_18  and  C_19
REMARK    6  A    between atoms: C_20  and  C_21
REMARK                            x       y       z     vdW  Elec       q    Type
REMARK                         _______ _______ _______ _____ _____    ______ ____
ROOT
ATOM      1  C   UNL     1       0.839  14.133  19.200  0.00  0.00    +0.000 A 
ATOM      2  C   UNL     1       2.153  13.703  19.270  0.00  0.00    +0.000 A 
ATOM      3  N   UNL     1       2.198  12.339  19.054  0.00  0.00    +0.000 NA
ATOM      4  C   UNL     1       0.960  11.953  18.801  0.00  0.00    +0.000 A 
ATOM      5  C   UNL     1       0.414  10.661  18.477  0.00  0.00    +0.000 A 
ATOM      6  C   UNL     1      -0.911  10.523  18.276  0.00  0.00    +0.000 A 
ATOM      7  C   UNL     1      -1.806  11.655  18.385  0.00  0.00    +0.000 A 
ATOM      8 CL   UNL     1      -3.487  11.416  18.119  0.00  0.00    +0.000 Cl
ATOM      9  C   UNL     1      -1.313  12.866  18.684  0.00  0.00    +0.000 A 
ATOM     10  N   UNL     1       0.063  13.031  18.888  0.00  0.00    +0.000 N 
ENDROOT
BRANCH   1  12
ATOM     11  O   UNL     1       0.214  15.793  20.607  0.00  0.00    +0.000 OA
ATOM     12  N   UNL     1       0.321  15.443  19.429  0.00  0.00    +0.000 N 
ATOM     13  O   UNL     1      -0.025  16.117  18.456  0.00  0.00    +0.000 OA
ENDBRANCH   1  12
BRANCH   5  14
ATOM     14  C   UNL     1       1.310   9.440  18.343  0.00  0.00    +0.000 C 
ATOM     15  C   UNL     1       2.078   8.393  18.230  0.00  0.00    +0.000 C 
BRANCH  15  16
ATOM     16  C   UNL     1       2.953   7.270  18.107  0.00  0.00    +0.000 A 
ATOM     17  C   UNL     1       4.071   7.328  17.279  0.00  0.00    +0.000 A 
ATOM     18  C   UNL     1       4.887   6.205  17.146  0.00  0.00    +0.000 A 
ATOM     19  C   UNL     1       4.550   5.060  17.852  0.00  0.00    +0.000 A 
ATOM     20  N   UNL     1       3.486   4.976  18.680  0.00  0.00    +0.000 NA
ATOM     21  C   UNL     1       2.715   6.087  18.793  0.00  0.00    +0.000 A 
ENDBRANCH  15  16
ENDBRANCH   5  14
BRANCH   2  22
ATOM     22  C   UNL     1       3.415  14.442  19.601  0.00  0.00    +0.000 C 
BRANCH  22  23
ATOM     23  S   UNL     1       3.749  15.795  18.466  0.00  0.00    +0.000 S 
ATOM     24  O   UNL     1       3.288  15.437  17.134  0.00  0.00    +0.000 OA
ATOM     25  O   UNL     1       3.318  17.042  19.071  0.00  0.00    +0.000 OA
BRANCH  23  26
ATOM     26  C   UNL     1       5.533  15.833  18.393  0.00  0.00    +0.000 A 
ATOM     27  C   UNL     1       6.241  14.737  17.888  0.00  0.00    +0.000 A 
ATOM     28  C   UNL     1       7.639  14.778  17.851  0.00  0.00    +0.000 A 
ATOM     29  C   UNL     1       8.316  15.918  18.287  0.00  0.00    +0.000 A 
ATOM     30  C   UNL     1       7.601  17.028  18.742  0.00  0.00    +0.000 A 
ATOM     31  C   UNL     1       6.208  16.989  18.797  0.00  0.00    +0.000 A 
ENDBRANCH  23  26
ENDBRANCH  22  23
ENDBRANCH   2  22
TORSDOF 6
ENDMDL
MODEL 8
REMARK VINA RESULT:      -7.4      7.057      9.767
REMARK  Name = 
REMARK  6 active torsions:
REMARK  status: ('A' for Active; 'I' for Inactive)
REMARK    1  A    between atoms: N_2  and  C_4
REMARK    2  A    between atoms: C_5  and  C_6
REMARK    3  A    between atoms: C_6  and  S_7
REMARK    4  A    between atoms: S_7  and  C_10
REMARK    5  A    between atoms: C_18  and  C_19
REMARK    6  A    between atoms: C_20  and  C_21
REMARK                            x       y       z     vdW  Elec       q    Type
REMARK                         _______ _______ _______ _____ _____    ______ ____
ROOT
ATOM      1  C   UNL     1       0.162  13.356  19.490  0.00  0.00    +0.000 A 
ATOM      2  C   UNL     1       1.465  13.050  19.845  0.00  0.00    +0.000 A 
ATOM      3  N   UNL     1       1.743  11.749  19.474  0.00  0.00    +0.000 NA
ATOM      4  C   UNL     1       0.669  11.290  18.859  0.00  0.00    +0.000 A 
ATOM      5  C   UNL     1       0.397  10.019  18.239  0.00  0.00    +0.000 A 
ATOM      6  C   UNL     1      -0.808   9.786  17.684  0.00  0.00    +0.000 A 
ATOM      7  C   UNL     1      -1.846  10.794  17.700  0.00  0.00    +0.000 A 
ATOM      8 CL   UNL     1      -3.363  10.438  16.976  0.00  0.00    +0.000 Cl
ATOM      9  C   UNL     1      -1.609  11.984  18.272  0.00  0.00    +0.000 A 
ATOM     10  N   UNL     1      -0.359  12.248  18.847  0.00  0.00    +0.000 N 
ENDROOT
BRANCH   1  12
ATOM     11  O   UNL     1      -0.692  15.333  18.793  0.00  0.00    +0.000 OA
ATOM     12  N   UNL     1      -0.568  14.557  19.743  0.00  0.00    +0.000 N 
ATOM     13  O   UNL     1      -0.984  14.763  20.885  0.00  0.00    +0.000 OA
ENDBRANCH   1  12
BRANCH   5  14
ATOM     14  C   UNL     1       1.454   8.928  18.188  0.00  0.00    +0.000 C 
ATOM     15  C   UNL     1       2.361   7.992  18.145  0.00  0.00    +0.000 C 
BRANCH  15  16
ATOM     16  C   UNL     1       3.346   6.961  18.056  0.00  0.00    +0.000 A 
ATOM     17  C   UNL     1       4.306   6.981  17.047  0.00  0.00    +0.000 A 
ATOM     18  C   UNL     1       5.231   5.941  16.959  0.00  0.00    +0.000 A 
ATOM     19  C   UNL     1       5.160   4.916  17.889  0.00  0.00    +0.000 A 
ATOM     20  N   UNL     1       4.256   4.876  18.893  0.00  0.00    +0.000 NA
ATOM     21  C   UNL     1       3.373   5.904  18.956  0.00  0.00    +0.000 A 
ENDBRANCH  15  16
ENDBRANCH   5  14
BRANCH   2  22
ATOM     22  C   UNL     1       2.497  13.846  20.586  0.00  0.00    +0.000 C 
BRANCH  22  23
ATOM     23  S   UNL     1       3.572  14.783  19.494  0.00  0.00    +0.000 S 
ATOM     24  O   UNL     1       4.738  15.239  20.233  0.00  0.00    +0.000 OA
ATOM     25  O   UNL     1       3.742  14.053  18.250  0.00  0.00    +0.000 OA
BRANCH  23  26
ATOM     26  C   UNL     1       2.606  16.239  19.122  0.00  0.00    +0.000 A 
ATOM     27  C   UNL     1       2.358  16.600  17.793  0.00  0.00    +0.000 A 
ATOM     28  C   UNL     1       1.612  17.751  17.520  0.00  0.00    +0.000 A 
ATOM     29  C   UNL     1       1.095  18.514  18.568  0.00  0.00    +0.000 A 
ATOM     30  C   UNL     1       1.303  18.120  19.891  0.00  0.00    +0.000 A 
ATOM     31  C   UNL     1       2.059  16.982  20.173  0.00  0.00    +0.000 A 
ENDBRANCH  23  26
ENDBRANCH  22  23
ENDBRANCH   2  22
TORSDOF 6
ENDMDL
MODEL 9
REMARK VINA RESULT:      -7.4      6.771     10.201
REMARK  Name = 
REMARK  6 active torsions:
REMARK  status: ('A' for Active; 'I' for Inactive)
REMARK    1  A    between atoms: N_2  and  C_4
REMARK    2  A    between atoms: C_5  and  C_6
REMARK    3  A    between atoms: C_6  and  S_7
REMARK    4  A    between atoms: S_7  and  C_10
REMARK    5  A    between atoms: C_18  and  C_19
REMARK    6  A    between atoms: C_20  and  C_21
REMARK                            x       y       z     vdW  Elec       q    Type
REMARK                         _______ _______ _______ _____ _____    ______ ____
ROOT
ATOM      1  C   UNL     1       0.906  14.128  19.356  0.00  0.00    +0.000 A 
ATOM      2  C   UNL     1       2.219  13.691  19.336  0.00  0.00    +0.000 A 
ATOM      3  N   UNL     1       2.243  12.337  19.061  0.00  0.00    +0.000 NA
ATOM      4  C   UNL     1       0.992  11.967  18.859  0.00  0.00    +0.000 A 
ATOM      5  C   UNL     1       0.420  10.692  18.510  0.00  0.00    +0.000 A 
ATOM      6  C   UNL     1      -0.914  10.568  18.376  0.00  0.00    +0.000 A 
ATOM      7  C   UNL     1      -1.795  11.698  18.582  0.00  0.00    +0.000 A 
ATOM      8 CL   UNL     1      -3.489  11.477  18.398  0.00  0.00    +0.000 Cl
ATOM      9  C   UNL     1      -1.279  12.893  18.905  0.00  0.00    +0.000 A 
ATOM     10  N   UNL     1       0.107  13.044  19.040  0.00  0.00    +0.000 N 
ENDROOT
BRANCH   1  12
ATOM     11  O   UNL     1       0.204  15.666  20.862  0.00  0.00    +0.000 OA
ATOM     12  N   UNL     1       0.409  15.429  19.669  0.00  0.00    +0.000 N 
ATOM     13  O   UNL     1       0.177  16.209  18.742  0.00  0.00    +0.000 OA
ENDBRANCH   1  12
BRANCH   5  14
ATOM     14  C   UNL     1       1.300   9.475  18.276  0.00  0.00    +0.000 C 
ATOM     15  C   UNL     1       2.054   8.430  18.075  0.00  0.00    +0.000 C 
BRANCH  15  16
ATOM     16  C   UNL     1       2.863   7.268  17.889  0.00  0.00    +0.000 A 
ATOM     17  C   UNL     1       2.387   6.007  18.239  0.00  0.00    +0.000 A 
ATOM     18  C   UNL     1       3.213   4.893  18.085  0.00  0.00    +0.000 A 
ATOM     19  C   UNL     1       4.490   5.086  17.583  0.00  0.00    +0.000 A 
ATOM     20  N   UNL     1       4.977   6.291  17.214  0.00  0.00    +0.000 NA
ATOM     21  C   UNL     1       4.149   7.354  17.370  0.00  0.00    +0.000 A 
ENDBRANCH  15  16
ENDBRANCH   5  14
BRANCH   2  22
ATOM     22  C   UNL     1       3.502  14.409  19.629  0.00  0.00    +0.000 C 
BRANCH  22  23
ATOM     23  S   UNL     1       3.822  15.758  18.486  0.00  0.00    +0.000 S 
ATOM     24  O   UNL     1       3.335  15.400  17.163  0.00  0.00    +0.000 OA
ATOM     25  O   UNL     1       3.409  17.009  19.095  0.00  0.00    +0.000 OA
BRANCH  23  26
ATOM     26  C   UNL     1       5.605  15.786  18.378  0.00  0.00    +0.000 A 
ATOM     27  C   UNL     1       6.318  16.916  18.796  0.00  0.00    +0.000 A 
ATOM     28  C   UNL     1       7.712  16.927  18.691  0.00  0.00    +0.000 A 
ATOM     29  C   UNL     1       8.385  15.806  18.203  0.00  0.00    +0.000 A 
ATOM     30  C   UNL     1       7.671  14.664  17.836  0.00  0.00    +0.000 A 
ATOM     31  C   UNL     1       6.279  14.650  17.922  0.00  0.00    +0.000 A 
ENDBRANCH  23  26
ENDBRANCH  22  23
ENDBRANCH   2  22
TORSDOF 6
ENDMDL
