MODEL 1
REMARK VINA RESULT:      -8.8      0.000      0.000
REMARK  Name = 
REMARK  5 active torsions:
REMARK  status: ('A' for Active; 'I' for Inactive)
REMARK    1  A    between atoms: C_1  and  O_2
REMARK    2  A    between atoms: O_2  and  C_3
REMARK    3  A    between atoms: C_11  and  C_13
REMARK    4  A    between atoms: C_19  and  C_20
REMARK    5  A    between atoms: C_25  and  C_26
REMARK                            x       y       z     vdW  Elec       q    Type
REMARK                         _______ _______ _______ _____ _____    ______ ____
ROOT
ATOM      1  C   UNL     1       1.360   9.607  19.045  0.00  0.00    +0.000 A 
ATOM      2  C   UNL     1       2.023   9.313  17.838  0.00  0.00    +0.000 A 
ATOM      3  N   UNL     1       2.622   8.122  17.839  0.00  0.00    +0.000 NA
ATOM      4  N   UNL     1       2.233   7.556  19.021  0.00  0.00    +0.000 N 
ATOM      5  C   UNL     1       2.649   6.239  19.302  0.00  0.00    +0.000 A 
ATOM      6  N   UNL     1       2.211   5.553  20.305  0.00  0.00    +0.000 NA
ATOM      7  C   UNL     1       2.720   4.293  20.466  0.00  0.00    +0.000 A 
ATOM      8  C   UNL     1       2.123   3.515  21.604  0.00  0.00    +0.000 C 
ATOM      9  C   UNL     1       3.678   3.774  19.686  0.00  0.00    +0.000 A 
ATOM     10  C   UNL     1       4.198   4.594  18.573  0.00  0.00    +0.000 A 
ATOM     11  O   UNL     1       5.129   4.208  17.877  0.00  0.00    +0.000 OA
ATOM     12  N   UNL     1       3.579   5.795  18.406  0.00  0.00    +0.000 N 
ATOM     13  C   UNL     1       1.473   8.433  19.780  0.00  0.00    +0.000 A 
ATOM     14  C   UNL     1       0.946   8.148  21.146  0.00  0.00    +0.000 C 
ATOM     15  H   UNL     1       3.884   6.413  17.662  0.00  0.00    +0.000 HD
ENDROOT
BRANCH   1  24
ATOM     16  C   UNL     1      -4.936  12.667  20.450  0.00  0.00    +0.000 A 
ATOM     17  C   UNL     1      -5.552  12.017  19.374  0.00  0.00    +0.000 A 
ATOM     18  C   UNL     1      -4.791  11.466  18.342  0.00  0.00    +0.000 A 
ATOM     19  C   UNL     1      -3.400  11.552  18.392  0.00  0.00    +0.000 A 
ATOM     20  C   UNL     1      -2.774  12.198  19.469  0.00  0.00    +0.000 A 
ATOM     21  C   UNL     1      -3.545  12.762  20.488  0.00  0.00    +0.000 A 
ATOM     22  C   UNL     1      -1.270  12.295  19.487  0.00  0.00    +0.000 C 
ATOM     23  N   UNL     1      -0.624  11.074  19.009  0.00  0.00    +0.000 N 
ATOM     24  C   UNL     1       0.654  10.804  19.505  0.00  0.00    +0.000 C 
ATOM     25  O   UNL     1       1.209  11.589  20.278  0.00  0.00    +0.000 OA
ATOM     26  C   UNL     1      -1.329  10.273  18.000  0.00  0.00    +0.000 C 
ATOM     27  C   UNL     1      -2.515  10.968  17.329  0.00  0.00    +0.000 C 
BRANCH  16  29
ATOM     28  C   UNL     1      -6.986  12.419  21.616  0.00  0.00    +0.000 C 
ATOM     29  O   UNL     1      -5.791  13.162  21.396  0.00  0.00    +0.000 OA
ENDBRANCH  16  29
ENDBRANCH   1  24
TORSDOF 2
ENDMDL
MODEL 2
REMARK VINA RESULT:      -8.2      1.211      2.254
REMARK  Name = 
REMARK  5 active torsions:
REMARK  status: ('A' for Active; 'I' for Inactive)
REMARK    1  A    between atoms: C_1  and  O_2
REMARK    2  A    between atoms: O_2  and  C_3
REMARK    3  A    between atoms: C_11  and  C_13
REMARK    4  A    between atoms: C_19  and  C_20
REMARK    5  A    between atoms: C_25  and  C_26
REMARK                            x       y       z     vdW  Elec       q    Type
REMARK                         _______ _______ _______ _____ _____    ______ ____
ROOT
ATOM      1  C   UNL     1       0.969   9.192  20.176  0.00  0.00    +0.000 A 
ATOM      2  C   UNL     1       1.036   8.137  21.106  0.00  0.00    +0.000 A 
ATOM      3  N   UNL     1       1.695   7.071  20.653  0.00  0.00    +0.000 NA
ATOM      4  N   UNL     1       2.194   7.478  19.447  0.00  0.00    +0.000 N 
ATOM      5  C   UNL     1       3.014   6.587  18.727  0.00  0.00    +0.000 A 
ATOM      6  N   UNL     1       3.667   6.920  17.663  0.00  0.00    +0.000 NA
ATOM      7  C   UNL     1       4.408   5.944  17.055  0.00  0.00    +0.000 A 
ATOM      8  C   UNL     1       5.202   6.405  15.867  0.00  0.00    +0.000 C 
ATOM      9  C   UNL     1       4.436   4.669  17.467  0.00  0.00    +0.000 A 
ATOM     10  C   UNL     1       3.645   4.298  18.659  0.00  0.00    +0.000 A 
ATOM     11  O   UNL     1       3.565   3.135  19.035  0.00  0.00    +0.000 OA
ATOM     12  N   UNL     1       3.014   5.335  19.274  0.00  0.00    +0.000 N 
ATOM     13  C   UNL     1       1.766   8.756  19.124  0.00  0.00    +0.000 A 
ATOM     14  C   UNL     1       2.080   9.468  17.851  0.00  0.00    +0.000 C 
ATOM     15  H   UNL     1       2.450   5.156  20.099  0.00  0.00    +0.000 HD
ENDROOT
BRANCH   1  24
ATOM     16  C   UNL     1      -5.196  12.739  19.556  0.00  0.00    +0.000 A 
ATOM     17  C   UNL     1      -5.642  11.891  18.536  0.00  0.00    +0.000 A 
ATOM     18  C   UNL     1      -4.743  11.094  17.825  0.00  0.00    +0.000 A 
ATOM     19  C   UNL     1      -3.388  11.132  18.147  0.00  0.00    +0.000 A 
ATOM     20  C   UNL     1      -2.931  11.976  19.171  0.00  0.00    +0.000 A 
ATOM     21  C   UNL     1      -3.836  12.784  19.864  0.00  0.00    +0.000 A 
ATOM     22  C   UNL     1      -1.458  12.015  19.483  0.00  0.00    +0.000 C 
ATOM     23  N   UNL     1      -0.837  10.692  19.418  0.00  0.00    +0.000 N 
ATOM     24  C   UNL     1       0.292  10.489  20.216  0.00  0.00    +0.000 C 
ATOM     25  O   UNL     1       0.750  11.403  20.906  0.00  0.00    +0.000 OA
ATOM     26  C   UNL     1      -1.396   9.716  18.475  0.00  0.00    +0.000 C 
ATOM     27  C   UNL     1      -2.364  10.291  17.440  0.00  0.00    +0.000 C 
BRANCH  16  29
ATOM     28  C   UNL     1      -7.507  12.993  20.018  0.00  0.00    +0.000 C 
ATOM     29  O   UNL     1      -6.174  13.466  20.177  0.00  0.00    +0.000 OA
ENDBRANCH  16  29
ENDBRANCH   1  24
TORSDOF 2
ENDMDL
MODEL 3
REMARK VINA RESULT:      -8.0      1.774      9.139
REMARK  Name = 
REMARK  5 active torsions:
REMARK  status: ('A' for Active; 'I' for Inactive)
REMARK    1  A    between atoms: C_1  and  O_2
REMARK    2  A    between atoms: O_2  and  C_3
REMARK    3  A    between atoms: C_11  and  C_13
REMARK    4  A    between atoms: C_19  and  C_20
REMARK    5  A    between atoms: C_25  and  C_26
REMARK                            x       y       z     vdW  Elec       q    Type
REMARK                         _______ _______ _______ _____ _____    ______ ____
ROOT
ATOM      1  C   UNL     1       0.120  10.851  19.097  0.00  0.00    +0.000 A 
ATOM      2  C   UNL     1       0.176  11.806  20.130  0.00  0.00    +0.000 A 
ATOM      3  N   UNL     1      -0.972  12.459  20.311  0.00  0.00    +0.000 NA
ATOM      4  N   UNL     1      -1.848  11.828  19.471  0.00  0.00    +0.000 N 
ATOM      5  C   UNL     1      -3.194  12.243  19.474  0.00  0.00    +0.000 A 
ATOM      6  N   UNL     1      -4.134  11.617  18.847  0.00  0.00    +0.000 NA
ATOM      7  C   UNL     1      -5.393  12.147  18.921  0.00  0.00    +0.000 A 
ATOM      8  C   UNL     1      -6.457  11.339  18.235  0.00  0.00    +0.000 C 
ATOM      9  C   UNL     1      -5.678  13.297  19.547  0.00  0.00    +0.000 A 
ATOM     10  C   UNL     1      -4.580  14.022  20.219  0.00  0.00    +0.000 A 
ATOM     11  O   UNL     1      -4.761  15.116  20.737  0.00  0.00    +0.000 OA
ATOM     12  N   UNL     1      -3.375  13.390  20.194  0.00  0.00    +0.000 N 
ATOM     13  C   UNL     1      -1.216  10.854  18.715  0.00  0.00    +0.000 A 
ATOM     14  C   UNL     1      -1.873  10.027  17.662  0.00  0.00    +0.000 C 
ATOM     15  H   UNL     1      -2.573  13.829  20.634  0.00  0.00    +0.000 HD
ENDROOT
BRANCH   1  24
ATOM     16  C   UNL     1       2.527   4.183  18.249  0.00  0.00    +0.000 A 
ATOM     17  C   UNL     1       2.138   3.822  19.544  0.00  0.00    +0.000 A 
ATOM     18  C   UNL     1       1.883   4.795  20.511  0.00  0.00    +0.000 A 
ATOM     19  C   UNL     1       2.001   6.143  20.177  0.00  0.00    +0.000 A 
ATOM     20  C   UNL     1       2.386   6.515  18.879  0.00  0.00    +0.000 A 
ATOM     21  C   UNL     1       2.657   5.532  17.924  0.00  0.00    +0.000 A 
ATOM     22  C   UNL     1       2.527   7.979  18.551  0.00  0.00    +0.000 C 
ATOM     23  N   UNL     1       1.483   8.795  19.169  0.00  0.00    +0.000 N 
ATOM     24  C   UNL     1       1.144   9.982  18.514  0.00  0.00    +0.000 C 
ATOM     25  O   UNL     1       1.735  10.327  17.488  0.00  0.00    +0.000 OA
ATOM     26  C   UNL     1       0.929   8.346  20.452  0.00  0.00    +0.000 C 
ATOM     27  C   UNL     1       1.726   7.247  21.157  0.00  0.00    +0.000 C 
BRANCH  16  29
ATOM     28  C   UNL     1       3.179   1.918  17.990  0.00  0.00    +0.000 C 
ATOM     29  O   UNL     1       2.746   3.137  17.395  0.00  0.00    +0.000 OA
ENDBRANCH  16  29
ENDBRANCH   1  24
TORSDOF 2
ENDMDL
MODEL 4
REMARK VINA RESULT:      -7.8      1.663      2.290
REMARK  Name = 
REMARK  5 active torsions:
REMARK  status: ('A' for Active; 'I' for Inactive)
REMARK    1  A    between atoms: C_1  and  O_2
REMARK    2  A    between atoms: O_2  and  C_3
REMARK    3  A    between atoms: C_11  and  C_13
REMARK    4  A    between atoms: C_19  and  C_20
REMARK    5  A    between atoms: C_25  and  C_26
REMARK                            x       y       z     vdW  Elec       q    Type
REMARK                         _______ _______ _______ _____ _____    ______ ____
ROOT
ATOM      1  C   UNL     1       0.434  10.969  20.160  0.00  0.00    +0.000 A 
ATOM      2  C   UNL     1       0.871  11.074  18.825  0.00  0.00    +0.000 A 
ATOM      3  N   UNL     1       1.565  10.015  18.410  0.00  0.00    +0.000 NA
ATOM      4  N   UNL     1       1.470   9.129  19.447  0.00  0.00    +0.000 N 
ATOM      5  C   UNL     1       2.051   7.854  19.294  0.00  0.00    +0.000 A 
ATOM      6  N   UNL     1       1.884   6.890  20.137  0.00  0.00    +0.000 NA
ATOM      7  C   UNL     1       2.528   5.712  19.870  0.00  0.00    +0.000 A 
ATOM      8  C   UNL     1       2.240   4.604  20.842  0.00  0.00    +0.000 C 
ATOM      9  C   UNL     1       3.357   5.538  18.831  0.00  0.00    +0.000 A 
ATOM     10  C   UNL     1       3.570   6.669  17.906  0.00  0.00    +0.000 A 
ATOM     11  O   UNL     1       4.377   6.598  16.987  0.00  0.00    +0.000 OA
ATOM     12  N   UNL     1       2.824   7.776  18.170  0.00  0.00    +0.000 N 
ATOM     13  C   UNL     1       0.798   9.679  20.527  0.00  0.00    +0.000 A 
ATOM     14  C   UNL     1       0.578   8.998  21.836  0.00  0.00    +0.000 C 
ATOM     15  H   UNL     1       2.918   8.594  17.577  0.00  0.00    +0.000 HD
ENDROOT
BRANCH   1  24
ATOM     16  C   UNL     1      -5.791  12.879  23.089  0.00  0.00    +0.000 A 
ATOM     17  C   UNL     1      -6.502  12.517  21.940  0.00  0.00    +0.000 A 
ATOM     18  C   UNL     1      -5.852  12.367  20.714  0.00  0.00    +0.000 A 
ATOM     19  C   UNL     1      -4.474  12.564  20.639  0.00  0.00    +0.000 A 
ATOM     20  C   UNL     1      -3.751  12.922  21.787  0.00  0.00    +0.000 A 
ATOM     21  C   UNL     1      -4.414  13.088  23.005  0.00  0.00    +0.000 A 
ATOM     22  C   UNL     1      -2.266  13.151  21.673  0.00  0.00    +0.000 C 
ATOM     23  N   UNL     1      -1.619  12.189  20.782  0.00  0.00    +0.000 N 
ATOM     24  C   UNL     1      -0.273  11.908  21.033  0.00  0.00    +0.000 C 
ATOM     25  O   UNL     1       0.332  12.480  21.942  0.00  0.00    +0.000 OA
ATOM     26  C   UNL     1      -2.401  11.657  19.660  0.00  0.00    +0.000 C 
ATOM     27  C   UNL     1      -3.703  12.403  19.361  0.00  0.00    +0.000 C 
BRANCH  16  29
ATOM     28  C   UNL     1      -7.759  13.720  24.107  0.00  0.00    +0.000 C 
ATOM     29  O   UNL     1      -6.542  12.992  24.226  0.00  0.00    +0.000 OA
ENDBRANCH  16  29
ENDBRANCH   1  24
TORSDOF 2
ENDMDL
MODEL 5
REMARK VINA RESULT:      -7.8      3.513      5.353
REMARK  Name = 
REMARK  5 active torsions:
REMARK  status: ('A' for Active; 'I' for Inactive)
REMARK    1  A    between atoms: C_1  and  O_2
REMARK    2  A    between atoms: O_2  and  C_3
REMARK    3  A    between atoms: C_11  and  C_13
REMARK    4  A    between atoms: C_19  and  C_20
REMARK    5  A    between atoms: C_25  and  C_26
REMARK                            x       y       z     vdW  Elec       q    Type
REMARK                         _______ _______ _______ _____ _____    ______ ____
ROOT
ATOM      1  C   UNL     1       0.473  10.218  19.981  0.00  0.00    +0.000 A 
ATOM      2  C   UNL     1       0.371   9.623  21.253  0.00  0.00    +0.000 A 
ATOM      3  N   UNL     1       0.882   8.393  21.306  0.00  0.00    +0.000 NA
ATOM      4  N   UNL     1       1.459   8.221  20.079  0.00  0.00    +0.000 N 
ATOM      5  C   UNL     1       2.160   7.024  19.830  0.00  0.00    +0.000 A 
ATOM      6  N   UNL     1       2.875   6.823  18.773  0.00  0.00    +0.000 NA
ATOM      7  C   UNL     1       3.483   5.603  18.655  0.00  0.00    +0.000 A 
ATOM      8  C   UNL     1       4.360   5.452  17.445  0.00  0.00    +0.000 C 
ATOM      9  C   UNL     1       3.323   4.606  19.535  0.00  0.00    +0.000 A 
ATOM     10  C   UNL     1       2.462   4.841  20.714  0.00  0.00    +0.000 A 
ATOM     11  O   UNL     1       2.211   3.944  21.509  0.00  0.00    +0.000 OA
ATOM     12  N   UNL     1       1.971   6.105  20.823  0.00  0.00    +0.000 N 
ATOM     13  C   UNL     1       1.223   9.305  19.248  0.00  0.00    +0.000 A 
ATOM     14  C   UNL     1       1.660   9.406  17.825  0.00  0.00    +0.000 C 
ATOM     15  H   UNL     1       1.371   6.340  21.607  0.00  0.00    +0.000 HD
ENDROOT
BRANCH   1  24
ATOM     16  C   UNL     1       2.070  16.935  18.163  0.00  0.00    +0.000 A 
ATOM     17  C   UNL     1       2.984  17.058  19.215  0.00  0.00    +0.000 A 
ATOM     18  C   UNL     1       2.948  16.180  20.300  0.00  0.00    +0.000 A 
ATOM     19  C   UNL     1       2.000  15.159  20.326  0.00  0.00    +0.000 A 
ATOM     20  C   UNL     1       1.081  15.024  19.273  0.00  0.00    +0.000 A 
ATOM     21  C   UNL     1       1.114  15.920  18.201  0.00  0.00    +0.000 A 
ATOM     22  C   UNL     1       0.053  13.925  19.337  0.00  0.00    +0.000 C 
ATOM     23  N   UNL     1       0.597  12.680  19.876  0.00  0.00    +0.000 N 
ATOM     24  C   UNL     1      -0.014  11.494  19.458  0.00  0.00    +0.000 C 
ATOM     25  O   UNL     1      -0.988  11.520  18.701  0.00  0.00    +0.000 OA
ATOM     26  C   UNL     1       1.683  12.773  20.859  0.00  0.00    +0.000 C 
ATOM     27  C   UNL     1       1.910  14.166  21.449  0.00  0.00    +0.000 C 
BRANCH  16  29
ATOM     28  C   UNL     1       1.007  18.305  16.546  0.00  0.00    +0.000 C 
ATOM     29  O   UNL     1       2.210  17.855  17.161  0.00  0.00    +0.000 OA
ENDBRANCH  16  29
ENDBRANCH   1  24
TORSDOF 2
ENDMDL
MODEL 6
REMARK VINA RESULT:      -7.7      3.183      4.874
REMARK  Name = 
REMARK  5 active torsions:
REMARK  status: ('A' for Active; 'I' for Inactive)
REMARK    1  A    between atoms: C_1  and  O_2
REMARK    2  A    between atoms: O_2  and  C_3
REMARK    3  A    between atoms: C_11  and  C_13
REMARK    4  A    between atoms: C_19  and  C_20
REMARK    5  A    between atoms: C_25  and  C_26
REMARK                            x       y       z     vdW  Elec       q    Type
REMARK                         _______ _______ _______ _____ _____    ______ ____
ROOT
ATOM      1  C   UNL     1       0.399   9.925  20.141  0.00  0.00    +0.000 A 
ATOM      2  C   UNL     1       0.500   9.077  21.260  0.00  0.00    +0.000 A 
ATOM      3  N   UNL     1       1.219   7.978  21.031  0.00  0.00    +0.000 NA
ATOM      4  N   UNL     1       1.720   8.168  19.773  0.00  0.00    +0.000 N 
ATOM      5  C   UNL     1       2.597   7.198  19.248  0.00  0.00    +0.000 A 
ATOM      6  N   UNL     1       3.252   7.351  18.146  0.00  0.00    +0.000 NA
ATOM      7  C   UNL     1       4.052   6.315  17.747  0.00  0.00    +0.000 A 
ATOM      8  C   UNL     1       4.845   6.577  16.499  0.00  0.00    +0.000 C 
ATOM      9  C   UNL     1       4.135   5.148  18.401  0.00  0.00    +0.000 A 
ATOM     10  C   UNL     1       3.341   4.976  19.635  0.00  0.00    +0.000 A 
ATOM     11  O   UNL     1       3.312   3.906  20.230  0.00  0.00    +0.000 OA
ATOM     12  N   UNL     1       2.648   6.078  20.030  0.00  0.00    +0.000 N 
ATOM     13  C   UNL     1       1.236   9.334  19.202  0.00  0.00    +0.000 A 
ATOM     14  C   UNL     1       1.538   9.800  17.817  0.00  0.00    +0.000 C 
ATOM     15  H   UNL     1       2.079   6.034  20.868  0.00  0.00    +0.000 HD
ENDROOT
BRANCH   1  24
ATOM     16  C   UNL     1       0.701  16.824  18.331  0.00  0.00    +0.000 A 
ATOM     17  C   UNL     1       1.928  16.996  18.982  0.00  0.00    +0.000 A 
ATOM     18  C   UNL     1       2.361  16.080  19.942  0.00  0.00    +0.000 A 
ATOM     19  C   UNL     1       1.569  14.973  20.243  0.00  0.00    +0.000 A 
ATOM     20  C   UNL     1       0.340  14.790  19.591  0.00  0.00    +0.000 A 
ATOM     21  C   UNL     1      -0.094  15.723  18.645  0.00  0.00    +0.000 A 
ATOM     22  C   UNL     1      -0.507  13.597  19.951  0.00  0.00    +0.000 C 
ATOM     23  N   UNL     1       0.290  12.390  20.167  0.00  0.00    +0.000 N 
ATOM     24  C   UNL     1      -0.342  11.168  19.921  0.00  0.00    +0.000 C 
ATOM     25  O   UNL     1      -1.526  11.128  19.576  0.00  0.00    +0.000 OA
ATOM     26  C   UNL     1       1.652  12.550  20.690  0.00  0.00    +0.000 C 
ATOM     27  C   UNL     1       1.976  13.936  21.250  0.00  0.00    +0.000 C 
BRANCH  16  29
ATOM     28  C   UNL     1      -0.908  18.362  17.513  0.00  0.00    +0.000 C 
ATOM     29  O   UNL     1       0.392  17.789  17.412  0.00  0.00    +0.000 OA
ENDBRANCH  16  29
ENDBRANCH   1  24
TORSDOF 2
ENDMDL
MODEL 7
REMARK VINA RESULT:      -7.4      2.756      9.299
REMARK  Name = 
REMARK  5 active torsions:
REMARK  status: ('A' for Active; 'I' for Inactive)
REMARK    1  A    between atoms: C_1  and  O_2
REMARK    2  A    between atoms: O_2  and  C_3
REMARK    3  A    between atoms: C_11  and  C_13
REMARK    4  A    between atoms: C_19  and  C_20
REMARK    5  A    between atoms: C_25  and  C_26
REMARK                            x       y       z     vdW  Elec       q    Type
REMARK                         _______ _______ _______ _____ _____    ______ ____
ROOT
ATOM      1  C   UNL     1       0.648  10.601  18.614  0.00  0.00    +0.000 A 
ATOM      2  C   UNL     1      -0.709  10.560  18.987  0.00  0.00    +0.000 A 
ATOM      3  N   UNL     1      -1.185  11.739  19.387  0.00  0.00    +0.000 NA
ATOM      4  N   UNL     1      -0.160  12.610  19.143  0.00  0.00    +0.000 N 
ATOM      5  C   UNL     1      -0.371  13.980  19.398  0.00  0.00    +0.000 A 
ATOM      6  N   UNL     1       0.464  14.904  19.055  0.00  0.00    +0.000 NA
ATOM      7  C   UNL     1       0.137  16.191  19.386  0.00  0.00    +0.000 A 
ATOM      8  C   UNL     1       1.106  17.231  18.900  0.00  0.00    +0.000 C 
ATOM      9  C   UNL     1      -0.954  16.522  20.090  0.00  0.00    +0.000 A 
ATOM     10  C   UNL     1      -1.871  15.444  20.513  0.00  0.00    +0.000 A 
ATOM     11  O   UNL     1      -2.839  15.674  21.227  0.00  0.00    +0.000 OA
ATOM     12  N   UNL     1      -1.542  14.202  20.065  0.00  0.00    +0.000 N 
ATOM     13  C   UNL     1       0.969  11.952  18.682  0.00  0.00    +0.000 A 
ATOM     14  C   UNL     1       2.278  12.602  18.382  0.00  0.00    +0.000 C 
ATOM     15  H   UNL     1      -2.125  13.411  20.316  0.00  0.00    +0.000 HD
ENDROOT
BRANCH   1  24
ATOM     16  C   UNL     1       2.212   3.635  18.666  0.00  0.00    +0.000 A 
ATOM     17  C   UNL     1       1.713   3.479  19.964  0.00  0.00    +0.000 A 
ATOM     18  C   UNL     1       1.537   4.583  20.799  0.00  0.00    +0.000 A 
ATOM     19  C   UNL     1       1.845   5.858  20.327  0.00  0.00    +0.000 A 
ATOM     20  C   UNL     1       2.341   6.025  19.025  0.00  0.00    +0.000 A 
ATOM     21  C   UNL     1       2.533   4.911  18.203  0.00  0.00    +0.000 A 
ATOM     22  C   UNL     1       2.688   7.412  18.548  0.00  0.00    +0.000 C 
ATOM     23  N   UNL     1       1.727   8.416  19.001  0.00  0.00    +0.000 N 
ATOM     24  C   UNL     1       1.579   9.551  18.199  0.00  0.00    +0.000 C 
ATOM     25  O   UNL     1       2.262   9.697  17.183  0.00  0.00    +0.000 OA
ATOM     26  C   UNL     1       1.055   8.193  20.287  0.00  0.00    +0.000 C 
ATOM     27  C   UNL     1       1.665   7.095  21.159  0.00  0.00    +0.000 C 
BRANCH  16  29
ATOM     28  C   UNL     1       3.476   1.674  18.243  0.00  0.00    +0.000 C 
ATOM     29  O   UNL     1       2.338   2.477  17.948  0.00  0.00    +0.000 OA
ENDBRANCH  16  29
ENDBRANCH   1  24
TORSDOF 2
ENDMDL
MODEL 8
REMARK VINA RESULT:      -7.2      2.186      9.201
REMARK  Name = 
REMARK  5 active torsions:
REMARK  status: ('A' for Active; 'I' for Inactive)
REMARK    1  A    between atoms: C_1  and  O_2
REMARK    2  A    between atoms: O_2  and  C_3
REMARK    3  A    between atoms: C_11  and  C_13
REMARK    4  A    between atoms: C_19  and  C_20
REMARK    5  A    between atoms: C_25  and  C_26
REMARK                            x       y       z     vdW  Elec       q    Type
REMARK                         _______ _______ _______ _____ _____    ______ ____
ROOT
ATOM      1  C   UNL     1       0.165  10.700  18.579  0.00  0.00    +0.000 A 
ATOM      2  C   UNL     1      -1.194  10.691  18.210  0.00  0.00    +0.000 A 
ATOM      3  N   UNL     1      -1.914  11.634  18.817  0.00  0.00    +0.000 NA
ATOM      4  N   UNL     1      -0.987  12.371  19.499  0.00  0.00    +0.000 N 
ATOM      5  C   UNL     1      -1.425  13.510  20.205  0.00  0.00    +0.000 A 
ATOM      6  N   UNL     1      -0.622  14.365  20.746  0.00  0.00    +0.000 NA
ATOM      7  C   UNL     1      -1.190  15.412  21.419  0.00  0.00    +0.000 A 
ATOM      8  C   UNL     1      -0.212  16.413  21.965  0.00  0.00    +0.000 C 
ATOM      9  C   UNL     1      -2.511  15.554  21.593  0.00  0.00    +0.000 A 
ATOM     10  C   UNL     1      -3.410  14.539  21.006  0.00  0.00    +0.000 A 
ATOM     11  O   UNL     1      -4.618  14.568  21.200  0.00  0.00    +0.000 OA
ATOM     12  N   UNL     1      -2.788  13.582  20.265  0.00  0.00    +0.000 N 
ATOM     13  C   UNL     1       0.282  11.828  19.383  0.00  0.00    +0.000 A 
ATOM     14  C   UNL     1       1.505  12.354  20.056  0.00  0.00    +0.000 C 
ATOM     15  H   UNL     1      -3.341  12.850  19.831  0.00  0.00    +0.000 HD
ENDROOT
BRANCH   1  24
ATOM     16  C   UNL     1       2.759   4.048  18.638  0.00  0.00    +0.000 A 
ATOM     17  C   UNL     1       2.178   3.777  19.882  0.00  0.00    +0.000 A 
ATOM     18  C   UNL     1       1.764   4.814  20.718  0.00  0.00    +0.000 A 
ATOM     19  C   UNL     1       1.915   6.136  20.301  0.00  0.00    +0.000 A 
ATOM     20  C   UNL     1       2.492   6.418  19.053  0.00  0.00    +0.000 A 
ATOM     21  C   UNL     1       2.921   5.373  18.231  0.00  0.00    +0.000 A 
ATOM     22  C   UNL     1       2.664   7.856  18.637  0.00  0.00    +0.000 C 
ATOM     23  N   UNL     1       1.526   8.690  19.020  0.00  0.00    +0.000 N 
ATOM     24  C   UNL     1       1.278   9.815  18.230  0.00  0.00    +0.000 C 
ATOM     25  O   UNL     1       2.016  10.096  17.283  0.00  0.00    +0.000 OA
ATOM     26  C   UNL     1       0.785   8.326  20.234  0.00  0.00    +0.000 C 
ATOM     27  C   UNL     1       1.477   7.303  21.138  0.00  0.00    +0.000 C 
BRANCH  16  29
ATOM     28  C   UNL     1       3.396   1.765  18.657  0.00  0.00    +0.000 C 
ATOM     29  O   UNL     1       3.121   2.947  17.913  0.00  0.00    +0.000 OA
ENDBRANCH  16  29
ENDBRANCH   1  24
TORSDOF 2
ENDMDL
