MODEL 1
REMARK VINA RESULT:      -8.7      0.000      0.000
REMARK  Name = 
REMARK  5 active torsions:
REMARK  status: ('A' for Active; 'I' for Inactive)
REMARK    1  A    between atoms: C_1  and  C_2
REMARK    2  A    between atoms: C_7  and  C_8
REMARK    3  A    between atoms: N_10  and  C_11
REMARK    4  A    between atoms: N_15  and  C_16
REMARK    5  A    between atoms: C_16  and  C_17
REMARK                            x       y       z     vdW  Elec       q    Type
REMARK                         _______ _______ _______ _____ _____    ______ ____
ROOT
ATOM      1  C   UNL     1       2.889   6.189  19.126  0.00  0.00    +0.000 C 
ATOM      2  O   UNL     1       3.867   5.968  19.820  0.00  0.00    +0.000 OA
ATOM      3  N   UNL     1       2.395   5.217  18.184  0.00  0.00    +0.000 N 
ATOM      4  H   UNL     1       1.694   5.504  17.511  0.00  0.00    +0.000 HD
ENDROOT
BRANCH   1  11
ATOM      5  C   UNL     1      -1.187  12.995  21.067  0.00  0.00    +0.000 C 
ATOM      6  C   UNL     1      -0.755  11.585  20.676  0.00  0.00    +0.000 C 
ATOM      7  S   UNL     1       0.383  11.703  19.263  0.00  0.00    +0.000 S 
ATOM      8  C   UNL     1       0.995  10.036  19.238  0.00  0.00    +0.000 A 
ATOM      9  C   UNL     1       1.535   9.554  18.039  0.00  0.00    +0.000 A 
ATOM     10  C   UNL     1       2.132   8.291  17.981  0.00  0.00    +0.000 A 
ATOM     11  C   UNL     1       2.217   7.512  19.136  0.00  0.00    +0.000 A 
ATOM     12  C   UNL     1       1.651   7.976  20.334  0.00  0.00    +0.000 A 
ATOM     13  C   UNL     1       1.039   9.235  20.385  0.00  0.00    +0.000 A 
ATOM     14  N   UNL     1       0.549   9.679  21.621  0.00  0.00    +0.000 N 
ATOM     15  C   UNL     1      -0.151  10.834  21.859  0.00  0.00    +0.000 C 
ATOM     16  O   UNL     1      -0.379  11.142  23.030  0.00  0.00    +0.000 OA
ATOM     17  H   UNL     1       0.764   9.158  22.463  0.00  0.00    +0.000 HD
ENDBRANCH   1  11
BRANCH   3  18
ATOM     18  C   UNL     1       2.873   3.907  18.111  0.00  0.00    +0.000 A 
ATOM     19  C   UNL     1       2.484   2.829  18.877  0.00  0.00    +0.000 A 
ATOM     20  C   UNL     1       3.237   1.740  18.404  0.00  0.00    +0.000 A 
ATOM     21  N   UNL     1       4.053   2.085  17.407  0.00  0.00    +0.000 NA
ATOM     22  N   UNL     1       3.825   3.408  17.241  0.00  0.00    +0.000 N 
BRANCH  22  23
ATOM     23  C   UNL     1       4.706   4.147  16.343  0.00  0.00    +0.000 C 
BRANCH  23  24
ATOM     24  C   UNL     1       5.751   4.942  17.093  0.00  0.00    +0.000 A 
ATOM     25  C   UNL     1       6.602   4.262  17.986  0.00  0.00    +0.000 A 
ATOM     26  C   UNL     1       7.606   4.937  18.682  0.00  0.00    +0.000 A 
ATOM     27  C   UNL     1       7.792   6.302  18.485  0.00  0.00    +0.000 A 
ATOM     28  C   UNL     1       6.958   7.000  17.610  0.00  0.00    +0.000 A 
ATOM     29 CL   UNL     1       7.258   8.691  17.403  0.00  0.00    +0.000 Cl
ATOM     30  C   UNL     1       5.929   6.329  16.927  0.00  0.00    +0.000 A 
ATOM     31 CL   UNL     1       4.850   7.216  15.899  0.00  0.00    +0.000 Cl
ENDBRANCH  23  24
ENDBRANCH  22  23
ENDBRANCH   3  18
TORSDOF 4
ENDMDL
MODEL 2
REMARK VINA RESULT:      -8.6      2.393      3.848
REMARK  Name = 
REMARK  5 active torsions:
REMARK  status: ('A' for Active; 'I' for Inactive)
REMARK    1  A    between atoms: C_1  and  C_2
REMARK    2  A    between atoms: C_7  and  C_8
REMARK    3  A    between atoms: N_10  and  C_11
REMARK    4  A    between atoms: N_15  and  C_16
REMARK    5  A    between atoms: C_16  and  C_17
REMARK                            x       y       z     vdW  Elec       q    Type
REMARK                         _______ _______ _______ _____ _____    ______ ____
ROOT
ATOM      1  C   UNL     1       2.603   7.239  17.904  0.00  0.00    +0.000 C 
ATOM      2  O   UNL     1       1.918   6.319  17.490  0.00  0.00    +0.000 OA
ATOM      3  N   UNL     1       4.042   7.175  17.896  0.00  0.00    +0.000 N 
ATOM      4  H   UNL     1       4.564   7.880  18.403  0.00  0.00    +0.000 HD
ENDROOT
BRANCH   1  11
ATOM      5  C   UNL     1      -1.049  12.559  22.911  0.00  0.00    +0.000 C 
ATOM      6  C   UNL     1      -0.703  11.458  21.913  0.00  0.00    +0.000 C 
ATOM      7  S   UNL     1       0.355  12.168  20.617  0.00  0.00    +0.000 S 
ATOM      8  C   UNL     1       0.890  10.673  19.822  0.00  0.00    +0.000 A 
ATOM      9  C   UNL     1       1.337  10.758  18.497  0.00  0.00    +0.000 A 
ATOM     10  C   UNL     1       1.873   9.642  17.850  0.00  0.00    +0.000 A 
ATOM     11  C   UNL     1       1.991   8.434  18.539  0.00  0.00    +0.000 A 
ATOM     12  C   UNL     1       1.517   8.332  19.857  0.00  0.00    +0.000 A 
ATOM     13  C   UNL     1       0.966   9.450  20.497  0.00  0.00    +0.000 A 
ATOM     14  N   UNL     1       0.569   9.312  21.834  0.00  0.00    +0.000 N 
ATOM     15  C   UNL     1      -0.065  10.256  22.602  0.00  0.00    +0.000 C 
ATOM     16  O   UNL     1      -0.210  10.022  23.803  0.00  0.00    +0.000 OA
ATOM     17  H   UNL     1       0.810   8.472  22.346  0.00  0.00    +0.000 HD
ENDBRANCH   1  11
BRANCH   3  18
ATOM     18  C   UNL     1       4.761   6.155  17.269  0.00  0.00    +0.000 A 
ATOM     19  C   UNL     1       5.064   6.046  15.928  0.00  0.00    +0.000 A 
ATOM     20  C   UNL     1       5.817   4.865  15.809  0.00  0.00    +0.000 A 
ATOM     21  N   UNL     1       5.992   4.255  16.982  0.00  0.00    +0.000 NA
ATOM     22  N   UNL     1       5.339   5.048  17.862  0.00  0.00    +0.000 N 
BRANCH  22  23
ATOM     23  C   UNL     1       5.170   4.561  19.227  0.00  0.00    +0.000 C 
BRANCH  23  24
ATOM     24  C   UNL     1       3.719   4.301  19.567  0.00  0.00    +0.000 A 
ATOM     25  C   UNL     1       3.096   5.124  20.525  0.00  0.00    +0.000 A 
ATOM     26  C   UNL     1       1.751   4.953  20.856  0.00  0.00    +0.000 A 
ATOM     27  C   UNL     1       0.997   3.970  20.222  0.00  0.00    +0.000 A 
ATOM     28  C   UNL     1       1.593   3.139  19.273  0.00  0.00    +0.000 A 
ATOM     29 CL   UNL     1       0.592   1.950  18.514  0.00  0.00    +0.000 Cl
ATOM     30  C   UNL     1       2.954   3.289  18.956  0.00  0.00    +0.000 A 
ATOM     31 CL   UNL     1       3.707   2.205  17.831  0.00  0.00    +0.000 Cl
ENDBRANCH  23  24
ENDBRANCH  22  23
ENDBRANCH   3  18
TORSDOF 4
ENDMDL
MODEL 3
REMARK VINA RESULT:      -8.6      2.336      3.826
REMARK  Name = 
REMARK  5 active torsions:
REMARK  status: ('A' for Active; 'I' for Inactive)
REMARK    1  A    between atoms: C_1  and  C_2
REMARK    2  A    between atoms: C_7  and  C_8
REMARK    3  A    between atoms: N_10  and  C_11
REMARK    4  A    between atoms: N_15  and  C_16
REMARK    5  A    between atoms: C_16  and  C_17
REMARK                            x       y       z     vdW  Elec       q    Type
REMARK                         _______ _______ _______ _____ _____    ______ ____
ROOT
ATOM      1  C   UNL     1       2.755   6.970  17.866  0.00  0.00    +0.000 C 
ATOM      2  O   UNL     1       2.198   5.917  17.606  0.00  0.00    +0.000 OA
ATOM      3  N   UNL     1       4.169   7.151  17.657  0.00  0.00    +0.000 N 
ATOM      4  H   UNL     1       4.617   7.973  18.045  0.00  0.00    +0.000 HD
ENDROOT
BRANCH   1  11
ATOM      5  C   UNL     1      -1.156  11.957  23.018  0.00  0.00    +0.000 C 
ATOM      6  C   UNL     1      -0.743  10.862  22.039  0.00  0.00    +0.000 C 
ATOM      7  S   UNL     1       0.029  11.644  20.592  0.00  0.00    +0.000 S 
ATOM      8  C   UNL     1       0.715  10.205  19.810  0.00  0.00    +0.000 A 
ATOM      9  C   UNL     1       0.992  10.272  18.439  0.00  0.00    +0.000 A 
ATOM     10  C   UNL     1       1.632   9.215  17.786  0.00  0.00    +0.000 A 
ATOM     11  C   UNL     1       2.026   8.091  18.513  0.00  0.00    +0.000 A 
ATOM     12  C   UNL     1       1.726   8.003  19.881  0.00  0.00    +0.000 A 
ATOM     13  C   UNL     1       1.070   9.058  20.529  0.00  0.00    +0.000 A 
ATOM     14  N   UNL     1       0.852   8.948  21.909  0.00  0.00    +0.000 N 
ATOM     15  C   UNL     1       0.159   9.827  22.703  0.00  0.00    +0.000 C 
ATOM     16  O   UNL     1       0.190   9.653  23.922  0.00  0.00    +0.000 OA
ATOM     17  H   UNL     1       1.287   8.193  22.428  0.00  0.00    +0.000 HD
ENDBRANCH   1  11
BRANCH   3  18
ATOM     18  C   UNL     1       4.971   6.221  16.993  0.00  0.00    +0.000 A 
ATOM     19  C   UNL     1       5.352   6.237  15.668  0.00  0.00    +0.000 A 
ATOM     20  C   UNL     1       6.169   5.106  15.499  0.00  0.00    +0.000 A 
ATOM     21  N   UNL     1       6.311   4.410  16.627  0.00  0.00    +0.000 NA
ATOM     22  N   UNL     1       5.572   5.096  17.529  0.00  0.00    +0.000 N 
BRANCH  22  23
ATOM     23  C   UNL     1       5.354   4.490  18.838  0.00  0.00    +0.000 C 
BRANCH  23  24
ATOM     24  C   UNL     1       4.127   3.606  18.863  0.00  0.00    +0.000 A 
ATOM     25  C   UNL     1       4.019   2.580  17.903  0.00  0.00    +0.000 A 
ATOM     26  C   UNL     1       2.926   1.712  17.896  0.00  0.00    +0.000 A 
ATOM     27  C   UNL     1       1.929   1.840  18.859  0.00  0.00    +0.000 A 
ATOM     28  C   UNL     1       2.011   2.852  19.816  0.00  0.00    +0.000 A 
ATOM     29 CL   UNL     1       0.745   2.940  20.991  0.00  0.00    +0.000 Cl
ATOM     30  C   UNL     1       3.096   3.745  19.811  0.00  0.00    +0.000 A 
ATOM     31 CL   UNL     1       3.154   5.046  20.957  0.00  0.00    +0.000 Cl
ENDBRANCH  23  24
ENDBRANCH  22  23
ENDBRANCH   3  18
TORSDOF 4
ENDMDL
MODEL 4
REMARK VINA RESULT:      -8.2      1.370      1.798
REMARK  Name = 
REMARK  5 active torsions:
REMARK  status: ('A' for Active; 'I' for Inactive)
REMARK    1  A    between atoms: C_1  and  C_2
REMARK    2  A    between atoms: C_7  and  C_8
REMARK    3  A    between atoms: N_10  and  C_11
REMARK    4  A    between atoms: N_15  and  C_16
REMARK    5  A    between atoms: C_16  and  C_17
REMARK                            x       y       z     vdW  Elec       q    Type
REMARK                         _______ _______ _______ _____ _____    ______ ____
ROOT
ATOM      1  C   UNL     1       2.172   5.990  19.644  0.00  0.00    +0.000 C 
ATOM      2  O   UNL     1       2.493   5.593  20.751  0.00  0.00    +0.000 OA
ATOM      3  N   UNL     1       2.095   5.099  18.514  0.00  0.00    +0.000 N 
ATOM      4  H   UNL     1       1.996   5.496  17.586  0.00  0.00    +0.000 HD
ENDROOT
BRANCH   1  11
ATOM      5  C   UNL     1       0.116  13.887  19.973  0.00  0.00    +0.000 C 
ATOM      6  C   UNL     1       0.154  12.369  19.831  0.00  0.00    +0.000 C 
ATOM      7  S   UNL     1       1.490  11.932  18.679  0.00  0.00    +0.000 S 
ATOM      8  C   UNL     1       1.557  10.179  18.956  0.00  0.00    +0.000 A 
ATOM      9  C   UNL     1       2.113   9.377  17.952  0.00  0.00    +0.000 A 
ATOM     10  C   UNL     1       2.295   8.006  18.151  0.00  0.00    +0.000 A 
ATOM     11  C   UNL     1       1.946   7.432  19.375  0.00  0.00    +0.000 A 
ATOM     12  C   UNL     1       1.360   8.224  20.376  0.00  0.00    +0.000 A 
ATOM     13  C   UNL     1       1.164   9.595  20.165  0.00  0.00    +0.000 A 
ATOM     14  N   UNL     1       0.637  10.353  21.221  0.00  0.00    +0.000 N 
ATOM     15  C   UNL     1       0.295  11.681  21.186  0.00  0.00    +0.000 C 
ATOM     16  O   UNL     1      -0.017  12.226  22.246  0.00  0.00    +0.000 OA
ATOM     17  H   UNL     1       0.540   9.936  22.140  0.00  0.00    +0.000 HD
ENDBRANCH   1  11
BRANCH   3  18
ATOM     18  C   UNL     1       2.209   3.712  18.621  0.00  0.00    +0.000 A 
ATOM     19  C   UNL     1       1.190   2.784  18.600  0.00  0.00    +0.000 A 
ATOM     20  C   UNL     1       1.819   1.532  18.717  0.00  0.00    +0.000 A 
ATOM     21  N   UNL     1       3.145   1.639  18.806  0.00  0.00    +0.000 NA
ATOM     22  N   UNL     1       3.370   2.972  18.751  0.00  0.00    +0.000 N 
BRANCH  22  23
ATOM     23  C   UNL     1       4.723   3.449  19.018  0.00  0.00    +0.000 C 
BRANCH  23  24
ATOM     24  C   UNL     1       5.279   4.262  17.870  0.00  0.00    +0.000 A 
ATOM     25  C   UNL     1       4.840   3.970  16.564  0.00  0.00    +0.000 A 
ATOM     26  C   UNL     1       5.293   4.707  15.469  0.00  0.00    +0.000 A 
ATOM     27  C   UNL     1       6.179   5.763  15.659  0.00  0.00    +0.000 A 
ATOM     28  C   UNL     1       6.634   6.068  16.943  0.00  0.00    +0.000 A 
ATOM     29 CL   UNL     1       7.721   7.404  17.106  0.00  0.00    +0.000 Cl
ATOM     30  C   UNL     1       6.201   5.312  18.045  0.00  0.00    +0.000 A 
ATOM     31 CL   UNL     1       6.826   5.649  19.628  0.00  0.00    +0.000 Cl
ENDBRANCH  23  24
ENDBRANCH  22  23
ENDBRANCH   3  18
TORSDOF 4
ENDMDL
MODEL 5
REMARK VINA RESULT:      -8.1      4.347      8.958
REMARK  Name = 
REMARK  5 active torsions:
REMARK  status: ('A' for Active; 'I' for Inactive)
REMARK    1  A    between atoms: C_1  and  C_2
REMARK    2  A    between atoms: C_7  and  C_8
REMARK    3  A    between atoms: N_10  and  C_11
REMARK    4  A    between atoms: N_15  and  C_16
REMARK    5  A    between atoms: C_16  and  C_17
REMARK                            x       y       z     vdW  Elec       q    Type
REMARK                         _______ _______ _______ _____ _____    ______ ____
ROOT
ATOM      1  C   UNL     1       1.132   9.035  21.337  0.00  0.00    +0.000 C 
ATOM      2  O   UNL     1       1.773   9.406  22.305  0.00  0.00    +0.000 OA
ATOM      3  N   UNL     1      -0.165   9.584  21.032  0.00  0.00    +0.000 N 
ATOM      4  H   UNL     1      -0.733   9.129  20.327  0.00  0.00    +0.000 HD
ENDROOT
BRANCH   1  11
ATOM      5  C   UNL     1       3.296   1.811  18.200  0.00  0.00    +0.000 C 
ATOM      6  C   UNL     1       3.212   3.140  18.945  0.00  0.00    +0.000 C 
ATOM      7  S   UNL     1       2.793   4.444  17.750  0.00  0.00    +0.000 S 
ATOM      8  C   UNL     1       2.414   5.764  18.875  0.00  0.00    +0.000 A 
ATOM      9  C   UNL     1       2.496   7.078  18.396  0.00  0.00    +0.000 A 
ATOM     10  C   UNL     1       2.107   8.156  19.196  0.00  0.00    +0.000 A 
ATOM     11  C   UNL     1       1.605   7.921  20.477  0.00  0.00    +0.000 A 
ATOM     12  C   UNL     1       1.547   6.610  20.975  0.00  0.00    +0.000 A 
ATOM     13  C   UNL     1       1.954   5.533  20.176  0.00  0.00    +0.000 A 
ATOM     14  N   UNL     1       1.815   4.239  20.696  0.00  0.00    +0.000 N 
ATOM     15  C   UNL     1       2.229   3.070  20.110  0.00  0.00    +0.000 C 
ATOM     16  O   UNL     1       1.896   2.008  20.638  0.00  0.00    +0.000 OA
ATOM     17  H   UNL     1       1.306   4.097  21.562  0.00  0.00    +0.000 HD
ENDBRANCH   1  11
BRANCH   3  18
ATOM     18  C   UNL     1      -0.709  10.682  21.701  0.00  0.00    +0.000 A 
ATOM     19  C   UNL     1      -1.138  10.737  23.011  0.00  0.00    +0.000 A 
ATOM     20  C   UNL     1      -1.575  12.059  23.207  0.00  0.00    +0.000 A 
ATOM     21  N   UNL     1      -1.439  12.805  22.111  0.00  0.00    +0.000 NA
ATOM     22  N   UNL     1      -0.916  11.954  21.199  0.00  0.00    +0.000 N 
BRANCH  22  23
ATOM     23  C   UNL     1      -0.819  12.407  19.815  0.00  0.00    +0.000 C 
BRANCH  23  24
ATOM     24  C   UNL     1      -1.706  11.606  18.888  0.00  0.00    +0.000 A 
ATOM     25  C   UNL     1      -1.101  10.693  18.003  0.00  0.00    +0.000 A 
ATOM     26  C   UNL     1      -1.869   9.903  17.146  0.00  0.00    +0.000 A 
ATOM     27  C   UNL     1      -3.257   9.996  17.170  0.00  0.00    +0.000 A 
ATOM     28  C   UNL     1      -3.880  10.898  18.034  0.00  0.00    +0.000 A 
ATOM     29 CL   UNL     1      -5.609  10.948  18.022  0.00  0.00    +0.000 Cl
ATOM     30  C   UNL     1      -3.110  11.714  18.880  0.00  0.00    +0.000 A 
ATOM     31 CL   UNL     1      -3.886  12.886  19.897  0.00  0.00    +0.000 Cl
ENDBRANCH  23  24
ENDBRANCH  22  23
ENDBRANCH   3  18
TORSDOF 4
ENDMDL
MODEL 6
REMARK VINA RESULT:      -8.1      2.707      4.164
REMARK  Name = 
REMARK  5 active torsions:
REMARK  status: ('A' for Active; 'I' for Inactive)
REMARK    1  A    between atoms: C_1  and  C_2
REMARK    2  A    between atoms: C_7  and  C_8
REMARK    3  A    between atoms: N_10  and  C_11
REMARK    4  A    between atoms: N_15  and  C_16
REMARK    5  A    between atoms: C_16  and  C_17
REMARK                            x       y       z     vdW  Elec       q    Type
REMARK                         _______ _______ _______ _____ _____    ______ ____
ROOT
ATOM      1  C   UNL     1       2.554   6.966  18.142  0.00  0.00    +0.000 C 
ATOM      2  O   UNL     1       1.875   6.105  17.610  0.00  0.00    +0.000 OA
ATOM      3  N   UNL     1       3.993   6.910  18.131  0.00  0.00    +0.000 N 
ATOM      4  H   UNL     1       4.511   7.545  18.728  0.00  0.00    +0.000 HD
ENDROOT
BRANCH   1  11
ATOM      5  C   UNL     1      -0.846  13.943  20.686  0.00  0.00    +0.000 C 
ATOM      6  C   UNL     1       0.093  12.828  20.234  0.00  0.00    +0.000 C 
ATOM      7  S   UNL     1      -0.228  11.358  21.254  0.00  0.00    +0.000 S 
ATOM      8  C   UNL     1       0.692  10.153  20.330  0.00  0.00    +0.000 A 
ATOM      9  C   UNL     1       1.108   8.993  20.995  0.00  0.00    +0.000 A 
ATOM     10  C   UNL     1       1.740   7.958  20.301  0.00  0.00    +0.000 A 
ATOM     11  C   UNL     1       1.934   8.066  18.924  0.00  0.00    +0.000 A 
ATOM     12  C   UNL     1       1.547   9.238  18.254  0.00  0.00    +0.000 A 
ATOM     13  C   UNL     1       0.929  10.280  18.956  0.00  0.00    +0.000 A 
ATOM     14  N   UNL     1       0.502  11.401  18.229  0.00  0.00    +0.000 N 
ATOM     15  C   UNL     1      -0.042  12.551  18.740  0.00  0.00    +0.000 C 
ATOM     16  O   UNL     1      -0.498  13.377  17.947  0.00  0.00    +0.000 OA
ATOM     17  H   UNL     1       0.519  11.379  17.216  0.00  0.00    +0.000 HD
ENDBRANCH   1  11
BRANCH   3  18
ATOM     18  C   UNL     1       4.719   5.982  17.381  0.00  0.00    +0.000 A 
ATOM     19  C   UNL     1       4.984   6.022  16.029  0.00  0.00    +0.000 A 
ATOM     20  C   UNL     1       5.764   4.883  15.765  0.00  0.00    +0.000 A 
ATOM     21  N   UNL     1       5.989   4.159  16.862  0.00  0.00    +0.000 NA
ATOM     22  N   UNL     1       5.343   4.836  17.839  0.00  0.00    +0.000 N 
BRANCH  22  23
ATOM     23  C   UNL     1       5.229   4.204  19.149  0.00  0.00    +0.000 C 
BRANCH  23  24
ATOM     24  C   UNL     1       3.788   3.979  19.551  0.00  0.00    +0.000 A 
ATOM     25  C   UNL     1       3.263   4.730  20.620  0.00  0.00    +0.000 A 
ATOM     26  C   UNL     1       1.932   4.589  21.015  0.00  0.00    +0.000 A 
ATOM     27  C   UNL     1       1.094   3.708  20.338  0.00  0.00    +0.000 A 
ATOM     28  C   UNL     1       1.593   2.947  19.280  0.00  0.00    +0.000 A 
ATOM     29 CL   UNL     1       0.491   1.885  18.475  0.00  0.00    +0.000 Cl
ATOM     30  C   UNL     1       2.939   3.066  18.895  0.00  0.00    +0.000 A 
ATOM     31 CL   UNL     1       3.571   2.064  17.628  0.00  0.00    +0.000 Cl
ENDBRANCH  23  24
ENDBRANCH  22  23
ENDBRANCH   3  18
TORSDOF 4
ENDMDL
MODEL 7
REMARK VINA RESULT:      -8.0      2.496      3.897
REMARK  Name = 
REMARK  5 active torsions:
REMARK  status: ('A' for Active; 'I' for Inactive)
REMARK    1  A    between atoms: C_1  and  C_2
REMARK    2  A    between atoms: C_7  and  C_8
REMARK    3  A    between atoms: N_10  and  C_11
REMARK    4  A    between atoms: N_15  and  C_16
REMARK    5  A    between atoms: C_16  and  C_17
REMARK                            x       y       z     vdW  Elec       q    Type
REMARK                         _______ _______ _______ _____ _____    ______ ____
ROOT
ATOM      1  C   UNL     1       3.607   7.361  17.489  0.00  0.00    +0.000 C 
ATOM      2  O   UNL     1       3.565   7.524  16.281  0.00  0.00    +0.000 OA
ATOM      3  N   UNL     1       4.514   6.419  18.094  0.00  0.00    +0.000 N 
ATOM      4  H   UNL     1       4.396   6.190  19.074  0.00  0.00    +0.000 HD
ENDROOT
BRANCH   1  11
ATOM      5  C   UNL     1      -1.671  12.488  21.033  0.00  0.00    +0.000 C 
ATOM      6  C   UNL     1      -0.442  11.763  20.492  0.00  0.00    +0.000 C 
ATOM      7  S   UNL     1      -0.503  10.034  21.048  0.00  0.00    +0.000 S 
ATOM      8  C   UNL     1       0.783   9.352  20.031  0.00  0.00    +0.000 A 
ATOM      9  C   UNL     1       1.395   8.165  20.454  0.00  0.00    +0.000 A 
ATOM     10  C   UNL     1       2.336   7.519  19.649  0.00  0.00    +0.000 A 
ATOM     11  C   UNL     1       2.651   8.046  18.396  0.00  0.00    +0.000 A 
ATOM     12  C   UNL     1       2.066   9.251  17.976  0.00  0.00    +0.000 A 
ATOM     13  C   UNL     1       1.134   9.904  18.794  0.00  0.00    +0.000 A 
ATOM     14  N   UNL     1       0.530  11.069  18.301  0.00  0.00    +0.000 N 
ATOM     15  C   UNL     1      -0.336  11.892  18.976  0.00  0.00    +0.000 C 
ATOM     16  O   UNL     1      -0.888  12.793  18.343  0.00  0.00    +0.000 OA
ATOM     17  H   UNL     1       0.666  11.335  17.333  0.00  0.00    +0.000 HD
ENDBRANCH   1  11
BRANCH   3  18
ATOM     18  C   UNL     1       5.517   5.757  17.385  0.00  0.00    +0.000 A 
ATOM     19  C   UNL     1       6.743   6.258  17.002  0.00  0.00    +0.000 A 
ATOM     20  C   UNL     1       7.392   5.200  16.340  0.00  0.00    +0.000 A 
ATOM     21  N   UNL     1       6.645   4.096  16.298  0.00  0.00    +0.000 NA
ATOM     22  N   UNL     1       5.504   4.449  16.933  0.00  0.00    +0.000 N 
BRANCH  22  23
ATOM     23  C   UNL     1       4.383   3.516  16.894  0.00  0.00    +0.000 C 
BRANCH  23  24
ATOM     24  C   UNL     1       3.807   3.257  18.268  0.00  0.00    +0.000 A 
ATOM     25  C   UNL     1       4.587   2.547  19.201  0.00  0.00    +0.000 A 
ATOM     26  C   UNL     1       4.123   2.305  20.495  0.00  0.00    +0.000 A 
ATOM     27  C   UNL     1       2.876   2.784  20.888  0.00  0.00    +0.000 A 
ATOM     28  C   UNL     1       2.081   3.485  19.980  0.00  0.00    +0.000 A 
ATOM     29 CL   UNL     1       0.552   4.064  20.542  0.00  0.00    +0.000 Cl
ATOM     30  C   UNL     1       2.534   3.708  18.668  0.00  0.00    +0.000 A 
ATOM     31 CL   UNL     1       1.511   4.514  17.523  0.00  0.00    +0.000 Cl
ENDBRANCH  23  24
ENDBRANCH  22  23
ENDBRANCH   3  18
TORSDOF 4
ENDMDL
MODEL 8
REMARK VINA RESULT:      -8.0      2.335      3.537
REMARK  Name = 
REMARK  5 active torsions:
REMARK  status: ('A' for Active; 'I' for Inactive)
REMARK    1  A    between atoms: C_1  and  C_2
REMARK    2  A    between atoms: C_7  and  C_8
REMARK    3  A    between atoms: N_10  and  C_11
REMARK    4  A    between atoms: N_15  and  C_16
REMARK    5  A    between atoms: C_16  and  C_17
REMARK                            x       y       z     vdW  Elec       q    Type
REMARK                         _______ _______ _______ _____ _____    ______ ____
ROOT
ATOM      1  C   UNL     1       3.931   6.495  18.255  0.00  0.00    +0.000 C 
ATOM      2  O   UNL     1       4.559   5.848  19.075  0.00  0.00    +0.000 OA
ATOM      3  N   UNL     1       4.223   6.420  16.846  0.00  0.00    +0.000 N 
ATOM      4  H   UNL     1       3.800   7.098  16.223  0.00  0.00    +0.000 HD
ENDROOT
BRANCH   1  11
ATOM      5  C   UNL     1      -1.371  11.168  22.349  0.00  0.00    +0.000 C 
ATOM      6  C   UNL     1      -0.640  10.050  21.612  0.00  0.00    +0.000 C 
ATOM      7  S   UNL     1      -0.067  10.695  20.012  0.00  0.00    +0.000 S 
ATOM      8  C   UNL     1       1.015   9.372  19.531  0.00  0.00    +0.000 A 
ATOM      9  C   UNL     1       1.306   9.223  18.170  0.00  0.00    +0.000 A 
ATOM     10  C   UNL     1       2.234   8.273  17.736  0.00  0.00    +0.000 A 
ATOM     11  C   UNL     1       2.900   7.480  18.672  0.00  0.00    +0.000 A 
ATOM     12  C   UNL     1       2.592   7.601  20.036  0.00  0.00    +0.000 A 
ATOM     13  C   UNL     1       1.649   8.544  20.465  0.00  0.00    +0.000 A 
ATOM     14  N   UNL     1       1.426   8.671  21.843  0.00  0.00    +0.000 N 
ATOM     15  C   UNL     1       0.492   9.469  22.453  0.00  0.00    +0.000 C 
ATOM     16  O   UNL     1       0.530   9.570  23.680  0.00  0.00    +0.000 OA
ATOM     17  H   UNL     1       2.035   8.192  22.497  0.00  0.00    +0.000 HD
ENDBRANCH   1  11
BRANCH   3  18
ATOM     18  C   UNL     1       5.110   5.492  16.296  0.00  0.00    +0.000 A 
ATOM     19  C   UNL     1       6.369   5.735  15.789  0.00  0.00    +0.000 A 
ATOM     20  C   UNL     1       6.858   4.481  15.382  0.00  0.00    +0.000 A 
ATOM     21  N   UNL     1       5.984   3.499  15.608  0.00  0.00    +0.000 NA
ATOM     22  N   UNL     1       4.921   4.129  16.160  0.00  0.00    +0.000 N 
BRANCH  22  23
ATOM     23  C   UNL     1       3.697   3.360  16.355  0.00  0.00    +0.000 C 
BRANCH  23  24
ATOM     24  C   UNL     1       3.387   3.139  17.819  0.00  0.00    +0.000 A 
ATOM     25  C   UNL     1       4.298   2.396  18.594  0.00  0.00    +0.000 A 
ATOM     26  C   UNL     1       4.083   2.187  19.957  0.00  0.00    +0.000 A 
ATOM     27  C   UNL     1       2.962   2.731  20.576  0.00  0.00    +0.000 A 
ATOM     28  C   UNL     1       2.041   3.465  19.828  0.00  0.00    +0.000 A 
ATOM     29 CL   UNL     1       0.680   4.126  20.667  0.00  0.00    +0.000 Cl
ATOM     30  C   UNL     1       2.240   3.657  18.450  0.00  0.00    +0.000 A 
ATOM     31 CL   UNL     1       1.054   4.507  17.512  0.00  0.00    +0.000 Cl
ENDBRANCH  23  24
ENDBRANCH  22  23
ENDBRANCH   3  18
TORSDOF 4
ENDMDL
MODEL 9
REMARK VINA RESULT:      -8.0      4.502      9.084
REMARK  Name = 
REMARK  5 active torsions:
REMARK  status: ('A' for Active; 'I' for Inactive)
REMARK    1  A    between atoms: C_1  and  C_2
REMARK    2  A    between atoms: C_7  and  C_8
REMARK    3  A    between atoms: N_10  and  C_11
REMARK    4  A    between atoms: N_15  and  C_16
REMARK    5  A    between atoms: C_16  and  C_17
REMARK                            x       y       z     vdW  Elec       q    Type
REMARK                         _______ _______ _______ _____ _____    ______ ____
ROOT
ATOM      1  C   UNL     1       1.764   8.844  19.346  0.00  0.00    +0.000 C 
ATOM      2  O   UNL     1       1.354   9.012  20.482  0.00  0.00    +0.000 OA
ATOM      3  N   UNL     1       1.614   9.855  18.330  0.00  0.00    +0.000 N 
ATOM      4  H   UNL     1       1.809   9.610  17.366  0.00  0.00    +0.000 HD
ENDROOT
BRANCH   1  11
ATOM      5  C   UNL     1       3.895   1.005  18.506  0.00  0.00    +0.000 C 
ATOM      6  C   UNL     1       3.743   2.464  18.924  0.00  0.00    +0.000 C 
ATOM      7  S   UNL     1       3.905   3.506  17.443  0.00  0.00    +0.000 S 
ATOM      8  C   UNL     1       3.351   5.055  18.110  0.00  0.00    +0.000 A 
ATOM      9  C   UNL     1       3.750   6.230  17.460  0.00  0.00    +0.000 A 
ATOM     10  C   UNL     1       3.262   7.474  17.868  0.00  0.00    +0.000 A 
ATOM     11  C   UNL     1       2.345   7.547  18.917  0.00  0.00    +0.000 A 
ATOM     12  C   UNL     1       1.963   6.377  19.594  0.00  0.00    +0.000 A 
ATOM     13  C   UNL     1       2.467   5.134  19.192  0.00  0.00    +0.000 A 
ATOM     14  N   UNL     1       2.004   3.990  19.858  0.00  0.00    +0.000 N 
ATOM     15  C   UNL     1       2.435   2.701  19.671  0.00  0.00    +0.000 C 
ATOM     16  O   UNL     1       1.816   1.798  20.235  0.00  0.00    +0.000 OA
ATOM     17  H   UNL     1       1.228   4.066  20.506  0.00  0.00    +0.000 HD
ENDBRANCH   1  11
BRANCH   3  18
ATOM     18  C   UNL     1       1.156  11.147  18.595  0.00  0.00    +0.000 A 
ATOM     19  C   UNL     1       1.901  12.306  18.647  0.00  0.00    +0.000 A 
ATOM     20  C   UNL     1       0.980  13.332  18.922  0.00  0.00    +0.000 A 
ATOM     21  N   UNL     1      -0.267  12.875  19.037  0.00  0.00    +0.000 NA
ATOM     22  N   UNL     1      -0.147  11.542  18.841  0.00  0.00    +0.000 N 
BRANCH  22  23
ATOM     23  C   UNL     1      -1.315  10.705  19.093  0.00  0.00    +0.000 C 
BRANCH  23  24
ATOM     24  C   UNL     1      -2.320  10.772  17.964  0.00  0.00    +0.000 A 
ATOM     25  C   UNL     1      -2.040  10.076  16.772  0.00  0.00    +0.000 A 
ATOM     26  C   UNL     1      -2.943  10.073  15.709  0.00  0.00    +0.000 A 
ATOM     27  C   UNL     1      -4.154  10.751  15.823  0.00  0.00    +0.000 A 
ATOM     28  C   UNL     1      -4.452  11.453  16.991  0.00  0.00    +0.000 A 
ATOM     29 CL   UNL     1      -5.981  12.258  17.068  0.00  0.00    +0.000 Cl
ATOM     30  C   UNL     1      -3.534  11.480  18.055  0.00  0.00    +0.000 A 
ATOM     31 CL   UNL     1      -3.878  12.415  19.474  0.00  0.00    +0.000 Cl
ENDBRANCH  23  24
ENDBRANCH  22  23
ENDBRANCH   3  18
TORSDOF 4
ENDMDL
