MODEL 1
REMARK VINA RESULT:      -7.6      0.000      0.000
REMARK  Name = 
REMARK  8 active torsions:
REMARK  status: ('A' for Active; 'I' for Inactive)
REMARK    1  A    between atoms: C_1  and  C_2
REMARK    2  A    between atoms: C_2  and  C_3
REMARK    3  A    between atoms: C_2  and  C_4
REMARK    4  A    between atoms: C_2  and  C_5
REMARK    5  A    between atoms: C_7  and  C_8
REMARK    6  A    between atoms: C_8  and  N_9
REMARK    7  A    between atoms: C_13  and  C_14
REMARK    8  A    between atoms: C_14  and  N_15
REMARK                            x       y       z     vdW  Elec       q    Type
REMARK                         _______ _______ _______ _____ _____    ______ ____
ROOT
ATOM      1  N   UNL     1       6.999   5.233  18.711  0.00  0.00    +0.000 NA
ATOM      2  C   UNL     1       7.802   6.456  18.854  0.00  0.00    +0.000 C 
ATOM      3  C   UNL     1       7.814   7.357  17.605  0.00  0.00    +0.000 C 
ATOM      4  O   UNL     1       7.824   6.733  16.320  0.00  0.00    +0.000 OA
ATOM      5  C   UNL     1       7.433   5.358  16.190  0.00  0.00    +0.000 C 
ATOM      6  C   UNL     1       7.520   4.562  17.503  0.00  0.00    +0.000 C 
ENDROOT
BRANCH   1   7
ATOM      7  C   UNL     1       5.552   5.561  18.738  0.00  0.00    +0.000 C 
BRANCH   7  10
ATOM      8  C   UNL     1       2.933   3.438  19.856  0.00  0.00    +0.000 A 
ATOM      9  N   UNL     1       3.291   4.569  19.299  0.00  0.00    +0.000 NA
ATOM     10  C   UNL     1       4.644   4.433  19.165  0.00  0.00    +0.000 A 
ATOM     11  N   UNL     1       5.126   3.253  19.586  0.00  0.00    +0.000 NA
ATOM     12  O   UNL     1       3.980   2.581  20.030  0.00  0.00    +0.000 OA
BRANCH   8  14
ATOM     13  C   UNL     1       0.972   2.045  19.302  0.00  0.00    +0.000 C 
ATOM     14  C   UNL     1       1.562   3.038  20.312  0.00  0.00    +0.000 C 
ATOM     15  C   UNL     1       0.670   4.293  20.359  0.00  0.00    +0.000 C 
ATOM     16  C   UNL     1       1.586   2.406  21.712  0.00  0.00    +0.000 C 
ENDBRANCH   8  14
ENDBRANCH   7  10
ENDBRANCH   1   7
BRANCH   5  17
ATOM     17  C   UNL     1       6.071   5.178  15.503  0.00  0.00    +0.000 C 
BRANCH  17  18
ATOM     18  N   UNL     1       6.176   4.594  14.179  0.00  0.00    +0.000 N 
ATOM     19  C   UNL     1       5.286   3.728  13.608  0.00  0.00    +0.000 A 
ATOM     20  C   UNL     1       5.798   3.421  12.371  0.00  0.00    +0.000 A 
ATOM     21  C   UNL     1       7.020   4.114  12.310  0.00  0.00    +0.000 A 
ATOM     22  N   UNL     1       7.273   4.803  13.425  0.00  0.00    +0.000 NA
ENDBRANCH  17  18
ENDBRANCH   5  17
TORSDOF 5
ENDMDL
MODEL 2
REMARK VINA RESULT:      -6.8      3.842      6.301
REMARK  Name = 
REMARK  8 active torsions:
REMARK  status: ('A' for Active; 'I' for Inactive)
REMARK    1  A    between atoms: C_1  and  C_2
REMARK    2  A    between atoms: C_2  and  C_3
REMARK    3  A    between atoms: C_2  and  C_4
REMARK    4  A    between atoms: C_2  and  C_5
REMARK    5  A    between atoms: C_7  and  C_8
REMARK    6  A    between atoms: C_8  and  N_9
REMARK    7  A    between atoms: C_13  and  C_14
REMARK    8  A    between atoms: C_14  and  N_15
REMARK                            x       y       z     vdW  Elec       q    Type
REMARK                         _______ _______ _______ _____ _____    ______ ____
ROOT
ATOM      1  N   UNL     1       4.438   6.230  18.298  0.00  0.00    +0.000 NA
ATOM      2  C   UNL     1       5.302   6.380  17.118  0.00  0.00    +0.000 C 
ATOM      3  C   UNL     1       5.221   5.210  16.120  0.00  0.00    +0.000 C 
ATOM      4  O   UNL     1       5.071   3.887  16.637  0.00  0.00    +0.000 OA
ATOM      5  C   UNL     1       4.612   3.694  17.983  0.00  0.00    +0.000 C 
ATOM      6  C   UNL     1       4.802   4.925  18.886  0.00  0.00    +0.000 C 
ENDROOT
BRANCH   1   7
ATOM      7  C   UNL     1       3.017   6.437  17.926  0.00  0.00    +0.000 C 
BRANCH   7  10
ATOM      8  C   UNL     1       1.319   9.267  19.239  0.00  0.00    +0.000 A 
ATOM      9  N   UNL     1       1.788   8.058  19.434  0.00  0.00    +0.000 NA
ATOM     10  C   UNL     1       2.453   7.795  18.268  0.00  0.00    +0.000 A 
ATOM     11  N   UNL     1       2.438   8.803  17.383  0.00  0.00    +0.000 NA
ATOM     12  O   UNL     1       1.697   9.794  18.039  0.00  0.00    +0.000 OA
BRANCH   8  14
ATOM     13  C   UNL     1       0.201   9.257  21.440  0.00  0.00    +0.000 C 
ATOM     14  C   UNL     1       0.437  10.062  20.155  0.00  0.00    +0.000 C 
ATOM     15  C   UNL     1      -0.916  10.299  19.458  0.00  0.00    +0.000 C 
ATOM     16  C   UNL     1       1.052  11.427  20.500  0.00  0.00    +0.000 C 
ENDBRANCH   8  14
ENDBRANCH   7  10
ENDBRANCH   1   7
BRANCH   5  17
ATOM     17  C   UNL     1       3.178   3.146  18.062  0.00  0.00    +0.000 C 
BRANCH  17  18
ATOM     18  N   UNL     1       2.641   3.155  19.410  0.00  0.00    +0.000 N 
ATOM     19  C   UNL     1       3.199   2.554  20.503  0.00  0.00    +0.000 A 
ATOM     20  C   UNL     1       2.341   2.800  21.548  0.00  0.00    +0.000 A 
ATOM     21  C   UNL     1       1.275   3.515  20.972  0.00  0.00    +0.000 A 
ATOM     22  N   UNL     1       1.436   3.705  19.661  0.00  0.00    +0.000 NA
ENDBRANCH  17  18
ENDBRANCH   5  17
TORSDOF 5
ENDMDL
MODEL 3
REMARK VINA RESULT:      -6.8      3.955      6.347
REMARK  Name = 
REMARK  8 active torsions:
REMARK  status: ('A' for Active; 'I' for Inactive)
REMARK    1  A    between atoms: C_1  and  C_2
REMARK    2  A    between atoms: C_2  and  C_3
REMARK    3  A    between atoms: C_2  and  C_4
REMARK    4  A    between atoms: C_2  and  C_5
REMARK    5  A    between atoms: C_7  and  C_8
REMARK    6  A    between atoms: C_8  and  N_9
REMARK    7  A    between atoms: C_13  and  C_14
REMARK    8  A    between atoms: C_14  and  N_15
REMARK                            x       y       z     vdW  Elec       q    Type
REMARK                         _______ _______ _______ _____ _____    ______ ____
ROOT
ATOM      1  N   UNL     1       4.304   6.307  18.440  0.00  0.00    +0.000 NA
ATOM      2  C   UNL     1       5.179   6.522  17.278  0.00  0.00    +0.000 C 
ATOM      3  C   UNL     1       5.126   5.398  16.228  0.00  0.00    +0.000 C 
ATOM      4  O   UNL     1       4.991   4.051  16.684  0.00  0.00    +0.000 OA
ATOM      5  C   UNL     1       4.520   3.790  18.015  0.00  0.00    +0.000 C 
ATOM      6  C   UNL     1       4.682   4.983  18.973  0.00  0.00    +0.000 C 
ENDROOT
BRANCH   1   7
ATOM      7  C   UNL     1       2.884   6.509  18.062  0.00  0.00    +0.000 C 
BRANCH   7  10
ATOM      8  C   UNL     1       1.232   9.426  19.234  0.00  0.00    +0.000 A 
ATOM      9  N   UNL     1       1.698   8.229  19.493  0.00  0.00    +0.000 NA
ATOM     10  C   UNL     1       2.336   7.889  18.332  0.00  0.00    +0.000 A 
ATOM     11  N   UNL     1       2.309   8.842  17.387  0.00  0.00    +0.000 NA
ATOM     12  O   UNL     1       1.588   9.877  17.997  0.00  0.00    +0.000 OA
BRANCH   8  14
ATOM     13  C   UNL     1      -0.975  10.515  19.425  0.00  0.00    +0.000 C 
ATOM     14  C   UNL     1       0.375  10.282  20.118  0.00  0.00    +0.000 C 
ATOM     15  C   UNL     1       1.073  11.640  20.321  0.00  0.00    +0.000 C 
ATOM     16  C   UNL     1       0.150   9.640  21.495  0.00  0.00    +0.000 C 
ENDBRANCH   8  14
ENDBRANCH   7  10
ENDBRANCH   1   7
BRANCH   5  17
ATOM     17  C   UNL     1       3.095   3.218  18.052  0.00  0.00    +0.000 C 
BRANCH  17  18
ATOM     18  N   UNL     1       2.569   3.095  19.399  0.00  0.00    +0.000 N 
ATOM     19  C   UNL     1       1.369   3.578  19.841  0.00  0.00    +0.000 A 
ATOM     20  C   UNL     1       1.301   3.256  21.175  0.00  0.00    +0.000 A 
ATOM     21  C   UNL     1       2.527   2.623  21.451  0.00  0.00    +0.000 A 
ATOM     22  N   UNL     1       3.318   2.553  20.379  0.00  0.00    +0.000 NA
ENDBRANCH  17  18
ENDBRANCH   5  17
TORSDOF 5
ENDMDL
MODEL 4
REMARK VINA RESULT:      -6.7      3.684      5.970
REMARK  Name = 
REMARK  8 active torsions:
REMARK  status: ('A' for Active; 'I' for Inactive)
REMARK    1  A    between atoms: C_1  and  C_2
REMARK    2  A    between atoms: C_2  and  C_3
REMARK    3  A    between atoms: C_2  and  C_4
REMARK    4  A    between atoms: C_2  and  C_5
REMARK    5  A    between atoms: C_7  and  C_8
REMARK    6  A    between atoms: C_8  and  N_9
REMARK    7  A    between atoms: C_13  and  C_14
REMARK    8  A    between atoms: C_14  and  N_15
REMARK                            x       y       z     vdW  Elec       q    Type
REMARK                         _______ _______ _______ _____ _____    ______ ____
ROOT
ATOM      1  N   UNL     1       1.561   4.657  19.840  0.00  0.00    +0.000 NA
ATOM      2  C   UNL     1       1.219   3.531  20.722  0.00  0.00    +0.000 C 
ATOM      3  C   UNL     1       2.435   2.750  21.252  0.00  0.00    +0.000 C 
ATOM      4  O   UNL     1       3.552   2.562  20.381  0.00  0.00    +0.000 OA
ATOM      5  C   UNL     1       3.706   3.399  19.226  0.00  0.00    +0.000 C 
ATOM      6  C   UNL     1       2.401   4.077  18.774  0.00  0.00    +0.000 C 
ENDROOT
BRANCH   1   7
ATOM      7  C   UNL     1       2.136   5.774  20.629  0.00  0.00    +0.000 C 
BRANCH   7  10
ATOM      8  C   UNL     1       1.300   9.080  19.637  0.00  0.00    +0.000 A 
ATOM      9  N   UNL     1       1.322   8.171  20.581  0.00  0.00    +0.000 NA
ATOM     10  C   UNL     1       2.006   7.140  20.000  0.00  0.00    +0.000 A 
ATOM     11  N   UNL     1       2.433   7.392  18.753  0.00  0.00    +0.000 NA
ATOM     12  O   UNL     1       1.978   8.696  18.518  0.00  0.00    +0.000 OA
BRANCH   8  14
ATOM     13  C   UNL     1       0.523  10.888  21.128  0.00  0.00    +0.000 C 
ATOM     14  C   UNL     1       0.617  10.414  19.671  0.00  0.00    +0.000 C 
ATOM     15  C   UNL     1      -0.807  10.257  19.103  0.00  0.00    +0.000 C 
ATOM     16  C   UNL     1       1.363  11.461  18.829  0.00  0.00    +0.000 C 
ENDBRANCH   8  14
ENDBRANCH   7  10
ENDBRANCH   1   7
BRANCH   5  17
ATOM     17  C   UNL     1       4.856   4.409  19.358  0.00  0.00    +0.000 C 
BRANCH  17  18
ATOM     18  N   UNL     1       5.730   4.428  18.199  0.00  0.00    +0.000 N 
ATOM     19  C   UNL     1       5.357   4.190  16.906  0.00  0.00    +0.000 A 
ATOM     20  C   UNL     1       6.506   4.287  16.158  0.00  0.00    +0.000 A 
ATOM     21  C   UNL     1       7.521   4.540  17.098  0.00  0.00    +0.000 A 
ATOM     22  N   UNL     1       7.059   4.592  18.348  0.00  0.00    +0.000 NA
ENDBRANCH  17  18
ENDBRANCH   5  17
TORSDOF 5
ENDMDL
MODEL 5
REMARK VINA RESULT:      -6.7      3.892      5.750
REMARK  Name = 
REMARK  8 active torsions:
REMARK  status: ('A' for Active; 'I' for Inactive)
REMARK    1  A    between atoms: C_1  and  C_2
REMARK    2  A    between atoms: C_2  and  C_3
REMARK    3  A    between atoms: C_2  and  C_4
REMARK    4  A    between atoms: C_2  and  C_5
REMARK    5  A    between atoms: C_7  and  C_8
REMARK    6  A    between atoms: C_8  and  N_9
REMARK    7  A    between atoms: C_13  and  C_14
REMARK    8  A    between atoms: C_14  and  N_15
REMARK                            x       y       z     vdW  Elec       q    Type
REMARK                         _______ _______ _______ _____ _____    ______ ____
ROOT
ATOM      1  N   UNL     1       1.955   5.044  19.015  0.00  0.00    +0.000 NA
ATOM      2  C   UNL     1       1.507   4.233  20.157  0.00  0.00    +0.000 C 
ATOM      3  C   UNL     1       2.609   3.362  20.786  0.00  0.00    +0.000 C 
ATOM      4  O   UNL     1       3.579   2.768  19.923  0.00  0.00    +0.000 OA
ATOM      5  C   UNL     1       3.764   3.280  18.595  0.00  0.00    +0.000 C 
ATOM      6  C   UNL     1       2.563   4.087  18.070  0.00  0.00    +0.000 C 
ENDROOT
BRANCH   1   7
ATOM      7  C   UNL     1       2.799   6.171  19.483  0.00  0.00    +0.000 C 
BRANCH   7  10
ATOM      8  C   UNL     1       1.271   9.327  18.919  0.00  0.00    +0.000 A 
ATOM      9  N   UNL     1       1.542   8.352  19.753  0.00  0.00    +0.000 NA
ATOM     10  C   UNL     1       2.362   7.539  19.020  0.00  0.00    +0.000 A 
ATOM     11  N   UNL     1       2.630   7.992  17.786  0.00  0.00    +0.000 NA
ATOM     12  O   UNL     1       1.918   9.197  17.725  0.00  0.00    +0.000 OA
BRANCH   8  14
ATOM     13  C   UNL     1       1.126  11.791  18.897  0.00  0.00    +0.000 C 
ATOM     14  C   UNL     1       0.351  10.489  19.143  0.00  0.00    +0.000 C 
ATOM     15  C   UNL     1      -0.133  10.464  20.605  0.00  0.00    +0.000 C 
ATOM     16  C   UNL     1      -0.878  10.432  18.223  0.00  0.00    +0.000 C 
ENDBRANCH   8  14
ENDBRANCH   7  10
ENDBRANCH   1   7
BRANCH   5  17
ATOM     17  C   UNL     1       5.085   4.044  18.418  0.00  0.00    +0.000 C 
BRANCH  17  18
ATOM     18  N   UNL     1       5.260   4.570  17.077  0.00  0.00    +0.000 N 
ATOM     19  C   UNL     1       5.531   3.838  15.955  0.00  0.00    +0.000 A 
ATOM     20  C   UNL     1       5.639   4.746  14.929  0.00  0.00    +0.000 A 
ATOM     21  C   UNL     1       5.464   5.999  15.543  0.00  0.00    +0.000 A 
ATOM     22  N   UNL     1       5.267   5.900  16.859  0.00  0.00    +0.000 NA
ENDBRANCH  17  18
ENDBRANCH   5  17
TORSDOF 5
ENDMDL
MODEL 6
REMARK VINA RESULT:      -6.7      3.894      5.822
REMARK  Name = 
REMARK  8 active torsions:
REMARK  status: ('A' for Active; 'I' for Inactive)
REMARK    1  A    between atoms: C_1  and  C_2
REMARK    2  A    between atoms: C_2  and  C_3
REMARK    3  A    between atoms: C_2  and  C_4
REMARK    4  A    between atoms: C_2  and  C_5
REMARK    5  A    between atoms: C_7  and  C_8
REMARK    6  A    between atoms: C_8  and  N_9
REMARK    7  A    between atoms: C_13  and  C_14
REMARK    8  A    between atoms: C_14  and  N_15
REMARK                            x       y       z     vdW  Elec       q    Type
REMARK                         _______ _______ _______ _____ _____    ______ ____
ROOT
ATOM      1  N   UNL     1       1.882   5.022  19.210  0.00  0.00    +0.000 NA
ATOM      2  C   UNL     1       1.439   4.200  20.345  0.00  0.00    +0.000 C 
ATOM      3  C   UNL     1       2.549   3.343  20.979  0.00  0.00    +0.000 C 
ATOM      4  O   UNL     1       3.534   2.766  20.120  0.00  0.00    +0.000 OA
ATOM      5  C   UNL     1       3.719   3.286  18.795  0.00  0.00    +0.000 C 
ATOM      6  C   UNL     1       2.511   4.077  18.266  0.00  0.00    +0.000 C 
ENDROOT
BRANCH   1   7
ATOM      7  C   UNL     1       2.707   6.159  19.687  0.00  0.00    +0.000 C 
BRANCH   7  10
ATOM      8  C   UNL     1       1.261   9.330  19.007  0.00  0.00    +0.000 A 
ATOM      9  N   UNL     1       1.529   8.391  19.881  0.00  0.00    +0.000 NA
ATOM     10  C   UNL     1       2.297   7.515  19.167  0.00  0.00    +0.000 A 
ATOM     11  N   UNL     1       2.539   7.894  17.903  0.00  0.00    +0.000 NA
ATOM     12  O   UNL     1       1.863   9.117  17.801  0.00  0.00    +0.000 OA
BRANCH   8  14
ATOM     13  C   UNL     1      -0.097  10.569  20.654  0.00  0.00    +0.000 C 
ATOM     14  C   UNL     1       0.386  10.532  19.198  0.00  0.00    +0.000 C 
ATOM     15  C   UNL     1      -0.837  10.408  18.268  0.00  0.00    +0.000 C 
ATOM     16  C   UNL     1       1.123  11.837  18.861  0.00  0.00    +0.000 C 
ENDBRANCH   8  14
ENDBRANCH   7  10
ENDBRANCH   1   7
BRANCH   5  17
ATOM     17  C   UNL     1       5.030   4.070  18.630  0.00  0.00    +0.000 C 
BRANCH  17  18
ATOM     18  N   UNL     1       5.240   4.544  17.275  0.00  0.00    +0.000 N 
ATOM     19  C   UNL     1       5.241   5.849  16.870  0.00  0.00    +0.000 A 
ATOM     20  C   UNL     1       5.451   5.824  15.512  0.00  0.00    +0.000 A 
ATOM     21  C   UNL     1       5.517   4.457  15.189  0.00  0.00    +0.000 A 
ATOM     22  N   UNL     1       5.353   3.671  16.255  0.00  0.00    +0.000 NA
ENDBRANCH  17  18
ENDBRANCH   5  17
TORSDOF 5
ENDMDL
MODEL 7
REMARK VINA RESULT:      -6.7      3.944      5.852
REMARK  Name = 
REMARK  8 active torsions:
REMARK  status: ('A' for Active; 'I' for Inactive)
REMARK    1  A    between atoms: C_1  and  C_2
REMARK    2  A    between atoms: C_2  and  C_3
REMARK    3  A    between atoms: C_2  and  C_4
REMARK    4  A    between atoms: C_2  and  C_5
REMARK    5  A    between atoms: C_7  and  C_8
REMARK    6  A    between atoms: C_8  and  N_9
REMARK    7  A    between atoms: C_13  and  C_14
REMARK    8  A    between atoms: C_14  and  N_15
REMARK                            x       y       z     vdW  Elec       q    Type
REMARK                         _______ _______ _______ _____ _____    ______ ____
ROOT
ATOM      1  N   UNL     1       2.050   5.168  19.196  0.00  0.00    +0.000 NA
ATOM      2  C   UNL     1       2.386   4.054  20.094  0.00  0.00    +0.000 C 
ATOM      3  C   UNL     1       3.729   3.370  19.780  0.00  0.00    +0.000 C 
ATOM      4  O   UNL     1       4.111   3.223  18.412  0.00  0.00    +0.000 OA
ATOM      5  C   UNL     1       3.482   4.029  17.404  0.00  0.00    +0.000 C 
ATOM      6  C   UNL     1       2.122   4.607  17.833  0.00  0.00    +0.000 C 
ENDROOT
BRANCH   1   7
ATOM      7  C   UNL     1       2.902   6.346  19.494  0.00  0.00    +0.000 C 
BRANCH   7  10
ATOM      8  C   UNL     1       1.175   9.373  18.812  0.00  0.00    +0.000 A 
ATOM      9  N   UNL     1       1.503   8.448  19.681  0.00  0.00    +0.000 NA
ATOM     10  C   UNL     1       2.379   7.665  18.981  0.00  0.00    +0.000 A 
ATOM     11  N   UNL     1       2.625   8.091  17.732  0.00  0.00    +0.000 NA
ATOM     12  O   UNL     1       1.836   9.244  17.626  0.00  0.00    +0.000 OA
BRANCH   8  14
ATOM     13  C   UNL     1       0.887  11.824  18.769  0.00  0.00    +0.000 C 
ATOM     14  C   UNL     1       0.180  10.480  18.991  0.00  0.00    +0.000 C 
ATOM     15  C   UNL     1      -0.362  10.432  20.432  0.00  0.00    +0.000 C 
ATOM     16  C   UNL     1      -1.004  10.348  18.021  0.00  0.00    +0.000 C 
ENDBRANCH   8  14
ENDBRANCH   7  10
ENDBRANCH   1   7
BRANCH   5  17
ATOM     17  C   UNL     1       4.406   5.113  16.830  0.00  0.00    +0.000 C 
BRANCH  17  18
ATOM     18  N   UNL     1       5.748   5.065  17.380  0.00  0.00    +0.000 N 
ATOM     19  C   UNL     1       6.213   5.800  18.434  0.00  0.00    +0.000 A 
ATOM     20  C   UNL     1       7.533   5.450  18.586  0.00  0.00    +0.000 A 
ATOM     21  C   UNL     1       7.779   4.533  17.548  0.00  0.00    +0.000 A 
ATOM     22  N   UNL     1       6.703   4.321  16.788  0.00  0.00    +0.000 NA
ENDBRANCH  17  18
ENDBRANCH   5  17
TORSDOF 5
ENDMDL
MODEL 8
REMARK VINA RESULT:      -6.7      3.861      6.042
REMARK  Name = 
REMARK  8 active torsions:
REMARK  status: ('A' for Active; 'I' for Inactive)
REMARK    1  A    between atoms: C_1  and  C_2
REMARK    2  A    between atoms: C_2  and  C_3
REMARK    3  A    between atoms: C_2  and  C_4
REMARK    4  A    between atoms: C_2  and  C_5
REMARK    5  A    between atoms: C_7  and  C_8
REMARK    6  A    between atoms: C_8  and  N_9
REMARK    7  A    between atoms: C_13  and  C_14
REMARK    8  A    between atoms: C_14  and  N_15
REMARK                            x       y       z     vdW  Elec       q    Type
REMARK                         _______ _______ _______ _____ _____    ______ ____
ROOT
ATOM      1  N   UNL     1       4.812   6.319  18.066  0.00  0.00    +0.000 NA
ATOM      2  C   UNL     1       5.927   6.361  17.108  0.00  0.00    +0.000 C 
ATOM      3  C   UNL     1       5.893   5.246  16.047  0.00  0.00    +0.000 C 
ATOM      4  O   UNL     1       5.439   3.951  16.440  0.00  0.00    +0.000 OA
ATOM      5  C   UNL     1       4.672   3.797  17.643  0.00  0.00    +0.000 C 
ATOM      6  C   UNL     1       4.840   4.958  18.638  0.00  0.00    +0.000 C 
ENDROOT
BRANCH   1   7
ATOM      7  C   UNL     1       3.554   6.758  17.414  0.00  0.00    +0.000 C 
BRANCH   7  10
ATOM      8  C   UNL     1       1.421   9.120  18.990  0.00  0.00    +0.000 A 
ATOM      9  N   UNL     1       1.969   8.675  17.885  0.00  0.00    +0.000 NA
ATOM     10  C   UNL     1       2.611   7.540  18.295  0.00  0.00    +0.000 A 
ATOM     11  N   UNL     1       2.451   7.253  19.596  0.00  0.00    +0.000 NA
ATOM     12  O   UNL     1       1.639   8.298  20.056  0.00  0.00    +0.000 OA
BRANCH   8  14
ATOM     13  C   UNL     1       0.238  10.510  20.652  0.00  0.00    +0.000 C 
ATOM     14  C   UNL     1       0.641  10.387  19.176  0.00  0.00    +0.000 C 
ATOM     15  C   UNL     1      -0.633  10.317  18.313  0.00  0.00    +0.000 C 
ATOM     16  C   UNL     1       1.448  11.624  18.752  0.00  0.00    +0.000 C 
ENDBRANCH   8  14
ENDBRANCH   7  10
ENDBRANCH   1   7
BRANCH   5  17
ATOM     17  C   UNL     1       3.191   3.481  17.383  0.00  0.00    +0.000 C 
BRANCH  17  18
ATOM     18  N   UNL     1       2.424   3.311  18.603  0.00  0.00    +0.000 N 
ATOM     19  C   UNL     1       2.595   2.322  19.530  0.00  0.00    +0.000 A 
ATOM     20  C   UNL     1       1.640   2.539  20.494  0.00  0.00    +0.000 A 
ATOM     21  C   UNL     1       0.916   3.653  20.033  0.00  0.00    +0.000 A 
ATOM     22  N   UNL     1       1.368   4.107  18.862  0.00  0.00    +0.000 NA
ENDBRANCH  17  18
ENDBRANCH   5  17
TORSDOF 5
ENDMDL
MODEL 9
REMARK VINA RESULT:      -6.7      1.582      6.719
REMARK  Name = 
REMARK  8 active torsions:
REMARK  status: ('A' for Active; 'I' for Inactive)
REMARK    1  A    between atoms: C_1  and  C_2
REMARK    2  A    between atoms: C_2  and  C_3
REMARK    3  A    between atoms: C_2  and  C_4
REMARK    4  A    between atoms: C_2  and  C_5
REMARK    5  A    between atoms: C_7  and  C_8
REMARK    6  A    between atoms: C_8  and  N_9
REMARK    7  A    between atoms: C_13  and  C_14
REMARK    8  A    between atoms: C_14  and  N_15
REMARK                            x       y       z     vdW  Elec       q    Type
REMARK                         _______ _______ _______ _____ _____    ______ ____
ROOT
ATOM      1  N   UNL     1       6.440   5.988  17.276  0.00  0.00    +0.000 NA
ATOM      2  C   UNL     1       7.468   6.459  18.216  0.00  0.00    +0.000 C 
ATOM      3  C   UNL     1       7.572   5.630  19.509  0.00  0.00    +0.000 C 
ATOM      4  O   UNL     1       6.369   5.117  20.083  0.00  0.00    +0.000 OA
ATOM      5  C   UNL     1       5.178   5.029  19.287  0.00  0.00    +0.000 C 
ATOM      6  C   UNL     1       5.187   5.950  18.054  0.00  0.00    +0.000 C 
ENDROOT
BRANCH   1   7
ATOM      7  C   UNL     1       6.876   4.729  16.622  0.00  0.00    +0.000 C 
BRANCH   7  10
ATOM      8  C   UNL     1       6.600   4.160  13.128  0.00  0.00    +0.000 A 
ATOM      9  N   UNL     1       6.140   3.934  14.334  0.00  0.00    +0.000 NA
ATOM     10  C   UNL     1       6.899   4.761  15.114  0.00  0.00    +0.000 A 
ATOM     11  N   UNL     1       7.782   5.508  14.432  0.00  0.00    +0.000 NA
ATOM     12  O   UNL     1       7.568   5.121  13.102  0.00  0.00    +0.000 OA
BRANCH   8  14
ATOM     13  C   UNL     1       6.802   2.070  11.830  0.00  0.00    +0.000 C 
ATOM     14  C   UNL     1       6.195   3.479  11.855  0.00  0.00    +0.000 C 
ATOM     15  C   UNL     1       6.751   4.284  10.665  0.00  0.00    +0.000 C 
ATOM     16  C   UNL     1       4.668   3.392  11.712  0.00  0.00    +0.000 C 
ENDBRANCH   8  14
ENDBRANCH   7  10
ENDBRANCH   1   7
BRANCH   5  17
ATOM     17  C   UNL     1       4.801   3.586  18.917  0.00  0.00    +0.000 C 
BRANCH  17  18
ATOM     18  N   UNL     1       3.377   3.327  19.021  0.00  0.00    +0.000 N 
ATOM     19  C   UNL     1       2.605   2.690  18.090  0.00  0.00    +0.000 A 
ATOM     20  C   UNL     1       1.327   2.694  18.593  0.00  0.00    +0.000 A 
ATOM     21  C   UNL     1       1.425   3.398  19.807  0.00  0.00    +0.000 A 
ATOM     22  N   UNL     1       2.667   3.817  20.056  0.00  0.00    +0.000 NA
ENDBRANCH  17  18
ENDBRANCH   5  17
TORSDOF 5
ENDMDL
