MODEL 1
REMARK VINA RESULT:      -7.4      0.000      0.000
REMARK  Name = 
REMARK  5 active torsions:
REMARK  status: ('A' for Active; 'I' for Inactive)
REMARK    1  A    between atoms: C_1  and  O_2
REMARK    2  A    between atoms: O_2  and  C_3
REMARK    3  A    between atoms: C_6  and  N_7
REMARK    4  A    between atoms: C_13  and  C_14
REMARK    5  A    between atoms: C_16  and  C_17
REMARK                            x       y       z     vdW  Elec       q    Type
REMARK                         _______ _______ _______ _____ _____    ______ ____
ROOT
ATOM      1  N   UNL     1       0.882  11.337  19.860  0.00  0.00    +0.000 N 
ATOM      2  C   UNL     1       1.445  10.674  21.045  0.00  0.00    +0.000 C 
ATOM      3  C   UNL     1       1.036   9.178  21.049  0.00  0.00    +0.000 C 
ATOM      4  N   UNL     1       1.355   8.547  19.760  0.00  0.00    +0.000 N 
ATOM      5  C   UNL     1       1.888   7.287  19.637  0.00  0.00    +0.000 A 
ATOM      6  C   UNL     1       1.677   6.325  20.607  0.00  0.00    +0.000 A 
ATOM      7  C   UNL     1       2.280   5.099  20.444  0.00  0.00    +0.000 A 
ATOM      8  C   UNL     1       2.093   4.000  21.440  0.00  0.00    +0.000 C 
ATOM      9  N   UNL     1       3.076   4.835  19.398  0.00  0.00    +0.000 NA
ATOM     10  C   UNL     1       3.248   5.818  18.495  0.00  0.00    +0.000 A 
ATOM     11  N   UNL     1       2.660   7.026  18.565  0.00  0.00    +0.000 NA
ATOM     12  C   UNL     1       0.844   9.234  18.567  0.00  0.00    +0.000 C 
ATOM     13  C   UNL     1       1.281  10.711  18.580  0.00  0.00    +0.000 C 
ENDROOT
BRANCH  10  14
ATOM     14  C   UNL     1       4.206   5.548  17.399  0.00  0.00    +0.000 A 
ATOM     15  C   UNL     1       4.709   6.604  16.608  0.00  0.00    +0.000 A 
ATOM     16  C   UNL     1       5.577   6.377  15.535  0.00  0.00    +0.000 A 
ATOM     17  C   UNL     1       5.966   5.079  15.232  0.00  0.00    +0.000 A 
ATOM     18 CL   UNL     1       7.018   4.792  13.901  0.00  0.00    +0.000 Cl
ATOM     19  C   UNL     1       5.501   4.011  15.996  0.00  0.00    +0.000 A 
ATOM     20  C   UNL     1       4.629   4.247  17.070  0.00  0.00    +0.000 A 
ENDBRANCH  10  14
BRANCH   1  24
ATOM     21  C   UNL     1      -0.736  15.226  20.041  0.00  0.00    +0.000 A 
ATOM     22  C   UNL     1      -0.298  14.709  18.826  0.00  0.00    +0.000 A 
ATOM     23  C   UNL     1       0.235  13.414  18.751  0.00  0.00    +0.000 A 
ATOM     24  C   UNL     1       0.349  12.607  19.887  0.00  0.00    +0.000 A 
ATOM     25  C   UNL     1      -0.064  13.167  21.104  0.00  0.00    +0.000 A 
ATOM     26  C   UNL     1      -0.598  14.456  21.188  0.00  0.00    +0.000 A 
BRANCH  21  28
ATOM     27  C   UNL     1      -0.943  17.235  18.828  0.00  0.00    +0.000 C 
ATOM     28  O   UNL     1      -1.245  16.494  20.007  0.00  0.00    +0.000 OA
ENDBRANCH  21  28
ENDBRANCH   1  24
TORSDOF 3
ENDMDL
MODEL 2
REMARK VINA RESULT:      -7.2      0.152      1.286
REMARK  Name = 
REMARK  5 active torsions:
REMARK  status: ('A' for Active; 'I' for Inactive)
REMARK    1  A    between atoms: C_1  and  O_2
REMARK    2  A    between atoms: O_2  and  C_3
REMARK    3  A    between atoms: C_6  and  N_7
REMARK    4  A    between atoms: C_13  and  C_14
REMARK    5  A    between atoms: C_16  and  C_17
REMARK                            x       y       z     vdW  Elec       q    Type
REMARK                         _______ _______ _______ _____ _____    ______ ____
ROOT
ATOM      1  N   UNL     1       0.958  11.408  19.960  0.00  0.00    +0.000 N 
ATOM      2  C   UNL     1       1.533  10.713  21.121  0.00  0.00    +0.000 C 
ATOM      3  C   UNL     1       1.091   9.226  21.108  0.00  0.00    +0.000 C 
ATOM      4  N   UNL     1       1.367   8.612  19.801  0.00  0.00    +0.000 N 
ATOM      5  C   UNL     1       1.869   7.342  19.643  0.00  0.00    +0.000 A 
ATOM      6  C   UNL     1       1.659   6.368  20.602  0.00  0.00    +0.000 A 
ATOM      7  C   UNL     1       2.231   5.133  20.403  0.00  0.00    +0.000 A 
ATOM      8  C   UNL     1       2.042   4.020  21.384  0.00  0.00    +0.000 C 
ATOM      9  N   UNL     1       2.998   4.870  19.335  0.00  0.00    +0.000 NA
ATOM     10  C   UNL     1       3.170   5.865  18.446  0.00  0.00    +0.000 A 
ATOM     11  N   UNL     1       2.611   7.084  18.550  0.00  0.00    +0.000 NA
ATOM     12  C   UNL     1       0.844   9.331  18.632  0.00  0.00    +0.000 C 
ATOM     13  C   UNL     1       1.314  10.798  18.661  0.00  0.00    +0.000 C 
ENDROOT
BRANCH  10  14
ATOM     14  C   UNL     1       4.097   5.594  17.324  0.00  0.00    +0.000 A 
ATOM     15  C   UNL     1       4.433   4.269  16.973  0.00  0.00    +0.000 A 
ATOM     16  C   UNL     1       5.343   3.980  15.950  0.00  0.00    +0.000 A 
ATOM     17  C   UNL     1       5.936   5.022  15.248  0.00  0.00    +0.000 A 
ATOM     18 CL   UNL     1       7.070   4.674  14.002  0.00  0.00    +0.000 Cl
ATOM     19  C   UNL     1       5.621   6.344  15.556  0.00  0.00    +0.000 A 
ATOM     20  C   UNL     1       4.709   6.624  16.585  0.00  0.00    +0.000 A 
ENDBRANCH  10  14
BRANCH   1  24
ATOM     21  C   UNL     1      -0.616  15.319  20.051  0.00  0.00    +0.000 A 
ATOM     22  C   UNL     1      -0.362  14.642  21.240  0.00  0.00    +0.000 A 
ATOM     23  C   UNL     1       0.168  13.344  21.223  0.00  0.00    +0.000 A 
ATOM     24  C   UNL     1       0.453  12.689  20.021  0.00  0.00    +0.000 A 
ATOM     25  C   UNL     1       0.152  13.380  18.838  0.00  0.00    +0.000 A 
ATOM     26  C   UNL     1      -0.376  14.674  18.845  0.00  0.00    +0.000 A 
BRANCH  21  28
ATOM     27  C   UNL     1      -1.111  17.360  18.983  0.00  0.00    +0.000 C 
ATOM     28  O   UNL     1      -1.126  16.581  20.176  0.00  0.00    +0.000 OA
ENDBRANCH  21  28
ENDBRANCH   1  24
TORSDOF 3
ENDMDL
MODEL 3
REMARK VINA RESULT:      -7.2      0.955      1.014
REMARK  Name = 
REMARK  5 active torsions:
REMARK  status: ('A' for Active; 'I' for Inactive)
REMARK    1  A    between atoms: C_1  and  O_2
REMARK    2  A    between atoms: O_2  and  C_3
REMARK    3  A    between atoms: C_6  and  N_7
REMARK    4  A    between atoms: C_13  and  C_14
REMARK    5  A    between atoms: C_16  and  C_17
REMARK                            x       y       z     vdW  Elec       q    Type
REMARK                         _______ _______ _______ _____ _____    ______ ____
ROOT
ATOM      1  N   UNL     1       0.860  10.729  20.594  0.00  0.00    +0.000 N 
ATOM      2  C   UNL     1       1.456   9.967  21.702  0.00  0.00    +0.000 C 
ATOM      3  C   UNL     1       1.074   8.470  21.570  0.00  0.00    +0.000 C 
ATOM      4  N   UNL     1       1.380   7.971  20.221  0.00  0.00    +0.000 N 
ATOM      5  C   UNL     1       1.933   6.739  19.969  0.00  0.00    +0.000 A 
ATOM      6  C   UNL     1       1.757   5.685  20.846  0.00  0.00    +0.000 A 
ATOM      7  C   UNL     1       2.379   4.492  20.557  0.00  0.00    +0.000 A 
ATOM      8  C   UNL     1       2.229   3.300  21.446  0.00  0.00    +0.000 C 
ATOM      9  N   UNL     1       3.161   4.344  19.478  0.00  0.00    +0.000 NA
ATOM     10  C   UNL     1       3.298   5.412  18.670  0.00  0.00    +0.000 A 
ATOM     11  N   UNL     1       2.690   6.596  18.864  0.00  0.00    +0.000 NA
ATOM     12  C   UNL     1       0.835   8.758  19.107  0.00  0.00    +0.000 C 
ATOM     13  C   UNL     1       1.246  10.236  19.254  0.00  0.00    +0.000 C 
ENDROOT
BRANCH  10  14
ATOM     14  C   UNL     1       4.240   5.266  17.537  0.00  0.00    +0.000 A 
ATOM     15  C   UNL     1       4.664   6.397  16.805  0.00  0.00    +0.000 A 
ATOM     16  C   UNL     1       5.515   6.288  15.700  0.00  0.00    +0.000 A 
ATOM     17  C   UNL     1       5.967   5.035  15.305  0.00  0.00    +0.000 A 
ATOM     18 CL   UNL     1       6.997   4.893  13.935  0.00  0.00    +0.000 Cl
ATOM     19  C   UNL     1       5.580   3.897  16.010  0.00  0.00    +0.000 A 
ATOM     20  C   UNL     1       4.726   4.014  17.116  0.00  0.00    +0.000 A 
ENDBRANCH  10  14
BRANCH   1  24
ATOM     21  C   UNL     1      -0.849  14.540  21.173  0.00  0.00    +0.000 A 
ATOM     22  C   UNL     1      -0.135  14.265  20.011  0.00  0.00    +0.000 A 
ATOM     23  C   UNL     1       0.433  12.999  19.804  0.00  0.00    +0.000 A 
ATOM     24  C   UNL     1       0.304  11.979  20.751  0.00  0.00    +0.000 A 
ATOM     25  C   UNL     1      -0.388  12.296  21.929  0.00  0.00    +0.000 A 
ATOM     26  C   UNL     1      -0.957  13.554  22.145  0.00  0.00    +0.000 A 
BRANCH  21  28
ATOM     27  C   UNL     1      -2.775  15.894  21.080  0.00  0.00    +0.000 C 
ATOM     28  O   UNL     1      -1.367  15.801  21.276  0.00  0.00    +0.000 OA
ENDBRANCH  21  28
ENDBRANCH   1  24
TORSDOF 3
ENDMDL
MODEL 4
REMARK VINA RESULT:      -7.2      0.876      1.401
REMARK  Name = 
REMARK  5 active torsions:
REMARK  status: ('A' for Active; 'I' for Inactive)
REMARK    1  A    between atoms: C_1  and  O_2
REMARK    2  A    between atoms: O_2  and  C_3
REMARK    3  A    between atoms: C_6  and  N_7
REMARK    4  A    between atoms: C_13  and  C_14
REMARK    5  A    between atoms: C_16  and  C_17
REMARK                            x       y       z     vdW  Elec       q    Type
REMARK                         _______ _______ _______ _____ _____    ______ ____
ROOT
ATOM      1  N   UNL     1       0.759  11.036  20.681  0.00  0.00    +0.000 N 
ATOM      2  C   UNL     1       1.371  10.273  21.779  0.00  0.00    +0.000 C 
ATOM      3  C   UNL     1       0.972   8.779  21.660  0.00  0.00    +0.000 C 
ATOM      4  N   UNL     1       1.246   8.273  20.307  0.00  0.00    +0.000 N 
ATOM      5  C   UNL     1       1.782   7.034  20.048  0.00  0.00    +0.000 A 
ATOM      6  C   UNL     1       1.614   5.985  20.933  0.00  0.00    +0.000 A 
ATOM      7  C   UNL     1       2.219   4.786  20.635  0.00  0.00    +0.000 A 
ATOM      8  C   UNL     1       2.077   3.598  21.532  0.00  0.00    +0.000 C 
ATOM      9  N   UNL     1       2.977   4.627  19.540  0.00  0.00    +0.000 NA
ATOM     10  C   UNL     1       3.107   5.690  18.726  0.00  0.00    +0.000 A 
ATOM     11  N   UNL     1       2.515   6.881  18.929  0.00  0.00    +0.000 NA
ATOM     12  C   UNL     1       0.685   9.061  19.202  0.00  0.00    +0.000 C 
ATOM     13  C   UNL     1       1.113  10.535  19.335  0.00  0.00    +0.000 C 
ENDROOT
BRANCH  10  14
ATOM     14  C   UNL     1       4.024   5.532  17.575  0.00  0.00    +0.000 A 
ATOM     15  C   UNL     1       4.384   4.247  17.114  0.00  0.00    +0.000 A 
ATOM     16  C   UNL     1       5.285   4.063  16.060  0.00  0.00    +0.000 A 
ATOM     17  C   UNL     1       5.847   5.171  15.438  0.00  0.00    +0.000 A 
ATOM     18 CL   UNL     1       6.971   4.950  14.155  0.00  0.00    +0.000 Cl
ATOM     19  C   UNL     1       5.508   6.456  15.857  0.00  0.00    +0.000 A 
ATOM     20  C   UNL     1       4.604   6.632  16.915  0.00  0.00    +0.000 A 
ENDBRANCH  10  14
BRANCH   1  24
ATOM     21  C   UNL     1      -0.895  14.868  21.281  0.00  0.00    +0.000 A 
ATOM     22  C   UNL     1      -0.296  14.550  20.066  0.00  0.00    +0.000 A 
ATOM     23  C   UNL     1       0.251  13.277  19.852  0.00  0.00    +0.000 A 
ATOM     24  C   UNL     1       0.218  12.293  20.844  0.00  0.00    +0.000 A 
ATOM     25  C   UNL     1      -0.357  12.653  22.072  0.00  0.00    +0.000 A 
ATOM     26  C   UNL     1      -0.905  13.919  22.295  0.00  0.00    +0.000 A 
BRANCH  21  28
ATOM     27  C   UNL     1      -2.081  16.411  22.610  0.00  0.00    +0.000 C 
ATOM     28  O   UNL     1      -1.403  16.133  21.388  0.00  0.00    +0.000 OA
ENDBRANCH  21  28
ENDBRANCH   1  24
TORSDOF 3
ENDMDL
MODEL 5
REMARK VINA RESULT:      -7.1      4.938      9.606
REMARK  Name = 
REMARK  5 active torsions:
REMARK  status: ('A' for Active; 'I' for Inactive)
REMARK    1  A    between atoms: C_1  and  O_2
REMARK    2  A    between atoms: O_2  and  C_3
REMARK    3  A    between atoms: C_6  and  N_7
REMARK    4  A    between atoms: C_13  and  C_14
REMARK    5  A    between atoms: C_16  and  C_17
REMARK                            x       y       z     vdW  Elec       q    Type
REMARK                         _______ _______ _______ _____ _____    ______ ____
ROOT
ATOM      1  N   UNL     1       2.309   7.457  18.496  0.00  0.00    +0.000 N 
ATOM      2  C   UNL     1       1.847   7.340  19.887  0.00  0.00    +0.000 C 
ATOM      3  C   UNL     1       1.722   8.753  20.515  0.00  0.00    +0.000 C 
ATOM      4  N   UNL     1       0.922   9.636  19.654  0.00  0.00    +0.000 N 
ATOM      5  C   UNL     1      -0.015  10.523  20.128  0.00  0.00    +0.000 A 
ATOM      6  C   UNL     1       0.080  11.046  21.404  0.00  0.00    +0.000 A 
ATOM      7  C   UNL     1      -0.919  11.890  21.833  0.00  0.00    +0.000 A 
ATOM      8  C   UNL     1      -0.885  12.509  23.193  0.00  0.00    +0.000 C 
ATOM      9  N   UNL     1      -1.976  12.185  21.062  0.00  0.00    +0.000 NA
ATOM     10  C   UNL     1      -2.013  11.634  19.835  0.00  0.00    +0.000 A 
ATOM     11  N   UNL     1      -1.055  10.833  19.332  0.00  0.00    +0.000 NA
ATOM     12  C   UNL     1       1.343   9.715  18.249  0.00  0.00    +0.000 C 
ATOM     13  C   UNL     1       1.440   8.301  17.647  0.00  0.00    +0.000 C 
ENDROOT
BRANCH  10  14
ATOM     14  C   UNL     1      -3.231  11.887  19.033  0.00  0.00    +0.000 A 
ATOM     15  C   UNL     1      -4.355  12.514  19.613  0.00  0.00    +0.000 A 
ATOM     16  C   UNL     1      -5.538  12.724  18.897  0.00  0.00    +0.000 A 
ATOM     17  C   UNL     1      -5.619  12.311  17.573  0.00  0.00    +0.000 A 
ATOM     18 CL   UNL     1      -7.078  12.549  16.693  0.00  0.00    +0.000 Cl
ATOM     19  C   UNL     1      -4.527  11.700  16.962  0.00  0.00    +0.000 A 
ATOM     20  C   UNL     1      -3.345  11.492  17.687  0.00  0.00    +0.000 A 
ENDBRANCH  10  14
BRANCH   1  24
ATOM     21  C   UNL     1       5.051   4.760  16.767  0.00  0.00    +0.000 A 
ATOM     22  C   UNL     1       5.279   6.131  16.690  0.00  0.00    +0.000 A 
ATOM     23  C   UNL     1       4.378   7.038  17.267  0.00  0.00    +0.000 A 
ATOM     24  C   UNL     1       3.228   6.600  17.931  0.00  0.00    +0.000 A 
ATOM     25  C   UNL     1       3.004   5.215  17.960  0.00  0.00    +0.000 A 
ATOM     26  C   UNL     1       3.896   4.304  17.388  0.00  0.00    +0.000 A 
BRANCH  21  28
ATOM     27  C   UNL     1       6.399   4.366  14.875  0.00  0.00    +0.000 C 
ATOM     28  O   UNL     1       5.991   3.961  16.179  0.00  0.00    +0.000 OA
ENDBRANCH  21  28
ENDBRANCH   1  24
TORSDOF 3
ENDMDL
MODEL 6
REMARK VINA RESULT:      -7.0      4.970      9.640
REMARK  Name = 
REMARK  5 active torsions:
REMARK  status: ('A' for Active; 'I' for Inactive)
REMARK    1  A    between atoms: C_1  and  O_2
REMARK    2  A    between atoms: O_2  and  C_3
REMARK    3  A    between atoms: C_6  and  N_7
REMARK    4  A    between atoms: C_13  and  C_14
REMARK    5  A    between atoms: C_16  and  C_17
REMARK                            x       y       z     vdW  Elec       q    Type
REMARK                         _______ _______ _______ _____ _____    ______ ____
ROOT
ATOM      1  N   UNL     1       2.239   7.699  18.804  0.00  0.00    +0.000 N 
ATOM      2  C   UNL     1       1.743   7.590  20.184  0.00  0.00    +0.000 C 
ATOM      3  C   UNL     1       1.576   9.008  20.791  0.00  0.00    +0.000 C 
ATOM      4  N   UNL     1       0.783   9.866  19.899  0.00  0.00    +0.000 N 
ATOM      5  C   UNL     1      -0.181  10.741  20.337  0.00  0.00    +0.000 A 
ATOM      6  C   UNL     1      -0.129  11.282  21.609  0.00  0.00    +0.000 A 
ATOM      7  C   UNL     1      -1.154  12.112  22.001  0.00  0.00    +0.000 A 
ATOM      8  C   UNL     1      -1.167  12.748  23.354  0.00  0.00    +0.000 C 
ATOM      9  N   UNL     1      -2.196  12.378  21.200  0.00  0.00    +0.000 NA
ATOM     10  C   UNL     1      -2.190  11.812  19.979  0.00  0.00    +0.000 A 
ATOM     11  N   UNL     1      -1.206  11.024  19.510  0.00  0.00    +0.000 NA
ATOM     12  C   UNL     1       1.240   9.936  18.504  0.00  0.00    +0.000 C 
ATOM     13  C   UNL     1       1.378   8.517  17.922  0.00  0.00    +0.000 C 
ENDROOT
BRANCH  10  14
ATOM     14  C   UNL     1      -3.391  12.034  19.143  0.00  0.00    +0.000 A 
ATOM     15  C   UNL     1      -4.505  12.734  19.656  0.00  0.00    +0.000 A 
ATOM     16  C   UNL     1      -5.674  12.918  18.908  0.00  0.00    +0.000 A 
ATOM     17  C   UNL     1      -5.749  12.405  17.620  0.00  0.00    +0.000 A 
ATOM     18 CL   UNL     1      -7.191  12.611  16.704  0.00  0.00    +0.000 Cl
ATOM     19  C   UNL     1      -4.667  11.719  17.074  0.00  0.00    +0.000 A 
ATOM     20  C   UNL     1      -3.499  11.538  17.830  0.00  0.00    +0.000 A 
ENDBRANCH  10  14
BRANCH   1  24
ATOM     21  C   UNL     1       5.184   5.185  17.136  0.00  0.00    +0.000 A 
ATOM     22  C   UNL     1       4.429   4.750  18.220  0.00  0.00    +0.000 A 
ATOM     23  C   UNL     1       3.442   5.574  18.780  0.00  0.00    +0.000 A 
ATOM     24  C   UNL     1       3.187   6.852  18.274  0.00  0.00    +0.000 A 
ATOM     25  C   UNL     1       3.989   7.280  17.205  0.00  0.00    +0.000 A 
ATOM     26  C   UNL     1       4.974   6.465  16.641  0.00  0.00    +0.000 A 
BRANCH  21  28
ATOM     27  C   UNL     1       7.435   4.488  17.168  0.00  0.00    +0.000 C 
ATOM     28  O   UNL     1       6.116   4.305  16.660  0.00  0.00    +0.000 OA
ENDBRANCH  21  28
ENDBRANCH   1  24
TORSDOF 3
ENDMDL
MODEL 7
REMARK VINA RESULT:      -6.9      4.958      9.667
REMARK  Name = 
REMARK  5 active torsions:
REMARK  status: ('A' for Active; 'I' for Inactive)
REMARK    1  A    between atoms: C_1  and  O_2
REMARK    2  A    between atoms: O_2  and  C_3
REMARK    3  A    between atoms: C_6  and  N_7
REMARK    4  A    between atoms: C_13  and  C_14
REMARK    5  A    between atoms: C_16  and  C_17
REMARK                            x       y       z     vdW  Elec       q    Type
REMARK                         _______ _______ _______ _____ _____    ______ ____
ROOT
ATOM      1  N   UNL     1       2.183   7.599  18.596  0.00  0.00    +0.000 N 
ATOM      2  C   UNL     1       1.791   7.555  20.013  0.00  0.00    +0.000 C 
ATOM      3  C   UNL     1       1.674   8.999  20.566  0.00  0.00    +0.000 C 
ATOM      4  N   UNL     1       0.819   9.822  19.698  0.00  0.00    +0.000 N 
ATOM      5  C   UNL     1      -0.107  10.721  20.168  0.00  0.00    +0.000 A 
ATOM      6  C   UNL     1       0.042  11.318  21.406  0.00  0.00    +0.000 A 
ATOM      7  C   UNL     1      -0.948  12.171  21.836  0.00  0.00    +0.000 A 
ATOM      8  C   UNL     1      -0.858  12.867  23.156  0.00  0.00    +0.000 C 
ATOM      9  N   UNL     1      -2.046  12.408  21.104  0.00  0.00    +0.000 NA
ATOM     10  C   UNL     1      -2.134  11.788  19.912  0.00  0.00    +0.000 A 
ATOM     11  N   UNL     1      -1.190  10.973  19.408  0.00  0.00    +0.000 NA
ATOM     12  C   UNL     1       1.170   9.827  18.271  0.00  0.00    +0.000 C 
ATOM     13  C   UNL     1       1.260   8.382  17.745  0.00  0.00    +0.000 C 
ENDROOT
BRANCH  10  14
ATOM     14  C   UNL     1      -3.394  11.979  19.159  0.00  0.00    +0.000 A 
ATOM     15  C   UNL     1      -3.502  11.551  17.818  0.00  0.00    +0.000 A 
ATOM     16  C   UNL     1      -4.662  11.761  17.064  0.00  0.00    +0.000 A 
ATOM     17  C   UNL     1      -5.747  12.405  17.644  0.00  0.00    +0.000 A 
ATOM     18 CL   UNL     1      -7.168  12.683  16.715  0.00  0.00    +0.000 Cl
ATOM     19  C   UNL     1      -5.684  12.832  18.968  0.00  0.00    +0.000 A 
ATOM     20  C   UNL     1      -4.517  12.619  19.717  0.00  0.00    +0.000 A 
ENDBRANCH  10  14
BRANCH   1  24
ATOM     21  C   UNL     1       5.018   4.989  16.885  0.00  0.00    +0.000 A 
ATOM     22  C   UNL     1       3.845   4.481  17.434  0.00  0.00    +0.000 A 
ATOM     23  C   UNL     1       2.891   5.339  18.000  0.00  0.00    +0.000 A 
ATOM     24  C   UNL     1       3.086   6.723  18.035  0.00  0.00    +0.000 A 
ATOM     25  C   UNL     1       4.294   7.204  17.509  0.00  0.00    +0.000 A 
ATOM     26  C   UNL     1       5.250   6.357  16.943  0.00  0.00    +0.000 A 
BRANCH  21  28
ATOM     27  C   UNL     1       6.617   4.519  15.218  0.00  0.00    +0.000 C 
ATOM     28  O   UNL     1       5.880   4.070  16.353  0.00  0.00    +0.000 OA
ENDBRANCH  21  28
ENDBRANCH   1  24
TORSDOF 3
ENDMDL
MODEL 8
REMARK VINA RESULT:      -6.8      2.312      3.393
REMARK  Name = 
REMARK  5 active torsions:
REMARK  status: ('A' for Active; 'I' for Inactive)
REMARK    1  A    between atoms: C_1  and  O_2
REMARK    2  A    between atoms: O_2  and  C_3
REMARK    3  A    between atoms: C_6  and  N_7
REMARK    4  A    between atoms: C_13  and  C_14
REMARK    5  A    between atoms: C_16  and  C_17
REMARK                            x       y       z     vdW  Elec       q    Type
REMARK                         _______ _______ _______ _____ _____    ______ ____
ROOT
ATOM      1  N   UNL     1       1.345   8.337  20.450  0.00  0.00    +0.000 N 
ATOM      2  C   UNL     1       1.949   7.263  21.252  0.00  0.00    +0.000 C 
ATOM      3  C   UNL     1       1.720   5.897  20.551  0.00  0.00    +0.000 C 
ATOM      4  N   UNL     1       2.145   5.955  19.146  0.00  0.00    +0.000 N 
ATOM      5  C   UNL     1       2.826   4.944  18.511  0.00  0.00    +0.000 A 
ATOM      6  C   UNL     1       2.704   3.631  18.926  0.00  0.00    +0.000 A 
ATOM      7  C   UNL     1       3.452   2.676  18.277  0.00  0.00    +0.000 A 
ATOM      8  C   UNL     1       3.368   1.232  18.656  0.00  0.00    +0.000 C 
ATOM      9  N   UNL     1       4.301   2.992  17.289  0.00  0.00    +0.000 NA
ATOM     10  C   UNL     1       4.380   4.289  16.940  0.00  0.00    +0.000 A 
ATOM     11  N   UNL     1       3.652   5.273  17.499  0.00  0.00    +0.000 NA
ATOM     12  C   UNL     1       1.589   7.059  18.352  0.00  0.00    +0.000 C 
ATOM     13  C   UNL     1       1.848   8.402  19.061  0.00  0.00    +0.000 C 
ENDROOT
BRANCH  10  14
ATOM     14  C   UNL     1       5.392   4.638  15.918  0.00  0.00    +0.000 A 
ATOM     15  C   UNL     1       5.301   4.115  14.609  0.00  0.00    +0.000 A 
ATOM     16  C   UNL     1       6.267   4.386  13.634  0.00  0.00    +0.000 A 
ATOM     17  C   UNL     1       7.350   5.196  13.950  0.00  0.00    +0.000 A 
ATOM     18 CL   UNL     1       8.551   5.517  12.761  0.00  0.00    +0.000 Cl
ATOM     19  C   UNL     1       7.468   5.741  15.227  0.00  0.00    +0.000 A 
ATOM     20  C   UNL     1       6.496   5.463  16.199  0.00  0.00    +0.000 A 
ENDBRANCH  10  14
BRANCH   1  24
ATOM     21  C   UNL     1      -0.727  11.548  22.233  0.00  0.00    +0.000 A 
ATOM     22  C   UNL     1      -0.182  11.690  20.960  0.00  0.00    +0.000 A 
ATOM     23  C   UNL     1       0.503  10.627  20.354  0.00  0.00    +0.000 A 
ATOM     24  C   UNL     1       0.664   9.400  21.003  0.00  0.00    +0.000 A 
ATOM     25  C   UNL     1       0.138   9.296  22.299  0.00  0.00    +0.000 A 
ATOM     26  C   UNL     1      -0.547  10.350  22.911  0.00  0.00    +0.000 A 
BRANCH  21  28
ATOM     27  C   UNL     1      -2.711  12.396  23.179  0.00  0.00    +0.000 C 
ATOM     28  O   UNL     1      -1.380  12.640  22.733  0.00  0.00    +0.000 OA
ENDBRANCH  21  28
ENDBRANCH   1  24
TORSDOF 3
ENDMDL
MODEL 9
REMARK VINA RESULT:      -6.8      5.088      9.985
REMARK  Name = 
REMARK  5 active torsions:
REMARK  status: ('A' for Active; 'I' for Inactive)
REMARK    1  A    between atoms: C_1  and  O_2
REMARK    2  A    between atoms: O_2  and  C_3
REMARK    3  A    between atoms: C_6  and  N_7
REMARK    4  A    between atoms: C_13  and  C_14
REMARK    5  A    between atoms: C_16  and  C_17
REMARK                            x       y       z     vdW  Elec       q    Type
REMARK                         _______ _______ _______ _____ _____    ______ ____
ROOT
ATOM      1  N   UNL     1       1.494   8.547  19.564  0.00  0.00    +0.000 N 
ATOM      2  C   UNL     1       1.143   8.576  20.992  0.00  0.00    +0.000 C 
ATOM      3  C   UNL     1       1.038  10.047  21.473  0.00  0.00    +0.000 C 
ATOM      4  N   UNL     1       0.157  10.822  20.589  0.00  0.00    +0.000 N 
ATOM      5  C   UNL     1      -0.758  11.744  21.037  0.00  0.00    +0.000 A 
ATOM      6  C   UNL     1      -0.575  12.404  22.239  0.00  0.00    +0.000 A 
ATOM      7  C   UNL     1      -1.555  13.277  22.652  0.00  0.00    +0.000 A 
ATOM      8  C   UNL     1      -1.429  14.040  23.931  0.00  0.00    +0.000 C 
ATOM      9  N   UNL     1      -2.674  13.475  21.940  0.00  0.00    +0.000 NA
ATOM     10  C   UNL     1      -2.794  12.794  20.785  0.00  0.00    +0.000 A 
ATOM     11  N   UNL     1      -1.862  11.955  20.297  0.00  0.00    +0.000 NA
ATOM     12  C   UNL     1       0.467  10.754  19.154  0.00  0.00    +0.000 C 
ATOM     13  C   UNL     1       0.546   9.284  18.701  0.00  0.00    +0.000 C 
ENDROOT
BRANCH  10  14
ATOM     14  C   UNL     1      -4.075  12.946  20.059  0.00  0.00    +0.000 A 
ATOM     15  C   UNL     1      -4.388  12.102  18.972  0.00  0.00    +0.000 A 
ATOM     16  C   UNL     1      -5.568  12.250  18.235  0.00  0.00    +0.000 A 
ATOM     17  C   UNL     1      -6.468  13.252  18.578  0.00  0.00    +0.000 A 
ATOM     18 CL   UNL     1      -7.911  13.452  17.662  0.00  0.00    +0.000 Cl
ATOM     19  C   UNL     1      -6.200  14.097  19.652  0.00  0.00    +0.000 A 
ATOM     20  C   UNL     1      -5.014  13.942  20.385  0.00  0.00    +0.000 A 
ENDBRANCH  10  14
BRANCH   1  24
ATOM     21  C   UNL     1       4.251   5.856  17.849  0.00  0.00    +0.000 A 
ATOM     22  C   UNL     1       3.660   5.563  19.074  0.00  0.00    +0.000 A 
ATOM     23  C   UNL     1       2.737   6.446  19.652  0.00  0.00    +0.000 A 
ATOM     24  C   UNL     1       2.383   7.644  19.024  0.00  0.00    +0.000 A 
ATOM     25  C   UNL     1       3.023   7.933  17.809  0.00  0.00    +0.000 A 
ATOM     26  C   UNL     1       3.943   7.058  17.225  0.00  0.00    +0.000 A 
BRANCH  21  28
ATOM     27  C   UNL     1       5.019   4.651  15.975  0.00  0.00    +0.000 C 
ATOM     28  O   UNL     1       5.132   4.928  17.369  0.00  0.00    +0.000 OA
ENDBRANCH  21  28
ENDBRANCH   1  24
TORSDOF 3
ENDMDL
