MODEL 1
REMARK VINA RESULT:      -7.7      0.000      0.000
REMARK  Name = 
REMARK  5 active torsions:
REMARK  status: ('A' for Active; 'I' for Inactive)
REMARK    1  A    between atoms: C_2  and  C_10
REMARK    2  A    between atoms: N_3  and  C_4
REMARK    3  A    between atoms: C_4  and  C_5
REMARK    4  A    between atoms: N_14  and  S_15
REMARK    5  A    between atoms: S_15  and  C_18
REMARK                            x       y       z     vdW  Elec       q    Type
REMARK                         _______ _______ _______ _____ _____    ______ ____
ROOT
ATOM      1  C   UNL     1       7.364   5.922  18.500  0.00  0.00    +0.000 C 
ATOM      2  C   UNL     1       7.732   4.656  17.720  0.00  0.00    +0.000 C 
ATOM      3  C   UNL     1       6.707   4.398  16.626  0.00  0.00    +0.000 C 
ATOM      4  C   UNL     1       5.310   4.251  17.213  0.00  0.00    +0.000 C 
ATOM      5  N   UNL     1       4.945   5.405  18.085  0.00  0.00    +0.000 NA
ATOM      6  C   UNL     1       5.980   5.747  19.117  0.00  0.00    +0.000 C 
ENDROOT
BRANCH   1   8
ATOM      7  O   UNL     1       6.898   7.333  16.603  0.00  0.00    +0.000 OA
ATOM      8  C   UNL     1       7.473   7.217  17.684  0.00  0.00    +0.000 C 
ATOM      9  N   UNL     1       8.188   8.244  18.250  0.00  0.00    +0.000 N 
ATOM     10  H   UNL     1       8.719   8.079  19.104  0.00  0.00    +0.000 HD
BRANCH   9  11
ATOM     11  C   UNL     1       8.309   9.534  17.619  0.00  0.00    +0.000 C 
BRANCH  11  12
ATOM     12  C   UNL     1       9.021  10.462  18.551  0.00  0.00    +0.000 A 
ATOM     13  C   UNL     1       9.350  10.256  19.879  0.00  0.00    +0.000 A 
ATOM     14  C   UNL     1      10.060  11.358  20.440  0.00  0.00    +0.000 A 
ATOM     15  C   UNL     1      10.252  12.366  19.524  0.00  0.00    +0.000 A 
ATOM     16  S   UNL     1       9.564  11.992  18.003  0.00  0.00    +0.000 S 
ENDBRANCH  11  12
ENDBRANCH   9  11
ENDBRANCH   1   8
BRANCH   5  17
ATOM     17  S   UNL     1       3.347   5.301  18.743  0.00  0.00    +0.000 S 
ATOM     18  O   UNL     1       2.541   4.540  17.797  0.00  0.00    +0.000 OA
ATOM     19  O   UNL     1       3.444   4.923  20.124  0.00  0.00    +0.000 OA
BRANCH  17  20
ATOM     20  C   UNL     1       2.626   6.943  18.690  0.00  0.00    +0.000 A 
ATOM     21  C   UNL     1       2.575   7.891  17.684  0.00  0.00    +0.000 A 
ATOM     22  C   UNL     1       1.941   9.099  18.100  0.00  0.00    +0.000 A 
ATOM     23  C   UNL     1       1.484   8.995  19.388  0.00  0.00    +0.000 A 
ATOM     24 BR   UNL     1       0.536  10.358  20.255  0.00  0.00    +0.000 Br
ATOM     25  S   UNL     1       1.847   7.508  20.112  0.00  0.00    +0.000 S 
ENDBRANCH  17  20
ENDBRANCH   5  17
TORSDOF 5
ENDMDL
MODEL 2
REMARK VINA RESULT:      -7.6      0.865      1.065
REMARK  Name = 
REMARK  5 active torsions:
REMARK  status: ('A' for Active; 'I' for Inactive)
REMARK    1  A    between atoms: C_2  and  C_10
REMARK    2  A    between atoms: N_3  and  C_4
REMARK    3  A    between atoms: C_4  and  C_5
REMARK    4  A    between atoms: N_14  and  S_15
REMARK    5  A    between atoms: S_15  and  C_18
REMARK                            x       y       z     vdW  Elec       q    Type
REMARK                         _______ _______ _______ _____ _____    ______ ____
ROOT
ATOM      1  C   UNL     1       7.338   5.811  18.464  0.00  0.00    +0.000 C 
ATOM      2  C   UNL     1       7.811   4.658  17.575  0.00  0.00    +0.000 C 
ATOM      3  C   UNL     1       6.802   4.402  16.466  0.00  0.00    +0.000 C 
ATOM      4  C   UNL     1       5.431   4.076  17.043  0.00  0.00    +0.000 C 
ATOM      5  N   UNL     1       4.973   5.111  18.014  0.00  0.00    +0.000 NA
ATOM      6  C   UNL     1       5.983   5.456  19.068  0.00  0.00    +0.000 C 
ENDROOT
BRANCH   1   8
ATOM      7  O   UNL     1       6.521   7.411  16.858  0.00  0.00    +0.000 OA
ATOM      8  C   UNL     1       7.319   7.177  17.764  0.00  0.00    +0.000 C 
ATOM      9  N   UNL     1       8.188   8.127  18.242  0.00  0.00    +0.000 N 
ATOM     10  H   UNL     1       8.890   7.867  18.934  0.00  0.00    +0.000 HD
BRANCH   9  11
ATOM     11  C   UNL     1       8.222   9.469  17.719  0.00  0.00    +0.000 C 
BRANCH  11  12
ATOM     12  C   UNL     1       9.100  10.306  18.594  0.00  0.00    +0.000 A 
ATOM     13  C   UNL     1       9.155  10.334  19.975  0.00  0.00    +0.000 A 
ATOM     14  C   UNL     1      10.143  11.239  20.463  0.00  0.00    +0.000 A 
ATOM     15  C   UNL     1      10.810  11.871  19.438  0.00  0.00    +0.000 A 
ATOM     16  S   UNL     1      10.235  11.387  17.902  0.00  0.00    +0.000 S 
ENDBRANCH  11  12
ENDBRANCH   9  11
ENDBRANCH   1   8
BRANCH   5  17
ATOM     17  S   UNL     1       3.398   4.804  18.665  0.00  0.00    +0.000 S 
ATOM     18  O   UNL     1       2.562   4.338  17.567  0.00  0.00    +0.000 OA
ATOM     19  O   UNL     1       3.543   4.044  19.875  0.00  0.00    +0.000 OA
BRANCH  17  20
ATOM     20  C   UNL     1       2.673   6.382  19.112  0.00  0.00    +0.000 A 
ATOM     21  C   UNL     1       2.065   6.818  20.276  0.00  0.00    +0.000 A 
ATOM     22  C   UNL     1       1.575   8.153  20.174  0.00  0.00    +0.000 A 
ATOM     23  C   UNL     1       1.884   8.697  18.954  0.00  0.00    +0.000 A 
ATOM     24 BR   UNL     1       1.464  10.459  18.479  0.00  0.00    +0.000 Br
ATOM     25  S   UNL     1       2.696   7.623  17.926  0.00  0.00    +0.000 S 
ENDBRANCH  17  20
ENDBRANCH   5  17
TORSDOF 5
ENDMDL
MODEL 3
REMARK VINA RESULT:      -7.4      3.385      6.393
REMARK  Name = 
REMARK  5 active torsions:
REMARK  status: ('A' for Active; 'I' for Inactive)
REMARK    1  A    between atoms: C_2  and  C_10
REMARK    2  A    between atoms: N_3  and  C_4
REMARK    3  A    between atoms: C_4  and  C_5
REMARK    4  A    between atoms: N_14  and  S_15
REMARK    5  A    between atoms: S_15  and  C_18
REMARK                            x       y       z     vdW  Elec       q    Type
REMARK                         _______ _______ _______ _____ _____    ______ ____
ROOT
ATOM      1  C   UNL     1       1.836   3.453  18.620  0.00  0.00    +0.000 C 
ATOM      2  C   UNL     1       2.323   2.113  19.177  0.00  0.00    +0.000 C 
ATOM      3  C   UNL     1       3.745   2.249  19.704  0.00  0.00    +0.000 C 
ATOM      4  C   UNL     1       4.688   2.721  18.606  0.00  0.00    +0.000 C 
ATOM      5  N   UNL     1       4.196   3.963  17.942  0.00  0.00    +0.000 NA
ATOM      6  C   UNL     1       2.765   3.896  17.494  0.00  0.00    +0.000 C 
ENDROOT
BRANCH   1   8
ATOM      7  O   UNL     1       1.146   4.289  20.772  0.00  0.00    +0.000 OA
ATOM      8  C   UNL     1       1.653   4.546  19.681  0.00  0.00    +0.000 C 
ATOM      9  N   UNL     1       2.136   5.794  19.371  0.00  0.00    +0.000 N 
ATOM     10  H   UNL     1       2.470   5.986  18.428  0.00  0.00    +0.000 HD
BRANCH   9  11
ATOM     11  C   UNL     1       2.088   6.889  20.306  0.00  0.00    +0.000 C 
BRANCH  11  12
ATOM     12  C   UNL     1       1.796   8.150  19.557  0.00  0.00    +0.000 A 
ATOM     13  C   UNL     1       2.187   8.495  18.276  0.00  0.00    +0.000 A 
ATOM     14  C   UNL     1       1.692   9.773  17.881  0.00  0.00    +0.000 A 
ATOM     15  C   UNL     1       0.940  10.361  18.872  0.00  0.00    +0.000 A 
ATOM     16  S   UNL     1       0.847   9.384  20.273  0.00  0.00    +0.000 S 
ENDBRANCH  11  12
ENDBRANCH   9  11
ENDBRANCH   1   8
BRANCH   5  17
ATOM     17  S   UNL     1       5.259   4.561  16.713  0.00  0.00    +0.000 S 
ATOM     18  O   UNL     1       6.031   3.427  16.222  0.00  0.00    +0.000 OA
ATOM     19  O   UNL     1       4.506   5.399  15.824  0.00  0.00    +0.000 OA
BRANCH  17  20
ATOM     20  C   UNL     1       6.487   5.597  17.509  0.00  0.00    +0.000 A 
ATOM     21  C   UNL     1       7.438   5.319  18.475  0.00  0.00    +0.000 A 
ATOM     22  C   UNL     1       8.179   6.472  18.866  0.00  0.00    +0.000 A 
ATOM     23  C   UNL     1       7.800   7.569  18.136  0.00  0.00    +0.000 A 
ATOM     24 BR   UNL     1       8.601   9.252  18.319  0.00  0.00    +0.000 Br
ATOM     25  S   UNL     1       6.548   7.248  17.042  0.00  0.00    +0.000 S 
ENDBRANCH  17  20
ENDBRANCH   5  17
TORSDOF 5
ENDMDL
MODEL 4
REMARK VINA RESULT:      -7.2      4.918      6.720
REMARK  Name = 
REMARK  5 active torsions:
REMARK  status: ('A' for Active; 'I' for Inactive)
REMARK    1  A    between atoms: C_2  and  C_10
REMARK    2  A    between atoms: N_3  and  C_4
REMARK    3  A    between atoms: C_4  and  C_5
REMARK    4  A    between atoms: N_14  and  S_15
REMARK    5  A    between atoms: S_15  and  C_18
REMARK                            x       y       z     vdW  Elec       q    Type
REMARK                         _______ _______ _______ _____ _____    ______ ____
ROOT
ATOM      1  C   UNL     1       2.247   3.785  18.563  0.00  0.00    +0.000 C 
ATOM      2  C   UNL     1       2.552   2.418  19.181  0.00  0.00    +0.000 C 
ATOM      3  C   UNL     1       3.668   2.543  20.207  0.00  0.00    +0.000 C 
ATOM      4  C   UNL     1       4.930   3.110  19.571  0.00  0.00    +0.000 C 
ATOM      5  N   UNL     1       4.665   4.387  18.847  0.00  0.00    +0.000 NA
ATOM      6  C   UNL     1       3.508   4.326  17.894  0.00  0.00    +0.000 C 
ENDROOT
BRANCH   1   8
ATOM      7  O   UNL     1       0.676   4.489  20.248  0.00  0.00    +0.000 OA
ATOM      8  C   UNL     1       1.634   4.796  19.542  0.00  0.00    +0.000 C 
ATOM      9  N   UNL     1       2.247   6.022  19.626  0.00  0.00    +0.000 N 
ATOM     10  H   UNL     1       2.983   6.266  18.965  0.00  0.00    +0.000 HD
BRANCH   9  11
ATOM     11  C   UNL     1       1.813   7.034  20.555  0.00  0.00    +0.000 C 
BRANCH  11  12
ATOM     12  C   UNL     1       1.563   8.303  19.804  0.00  0.00    +0.000 A 
ATOM     13  C   UNL     1       1.983   8.640  18.530  0.00  0.00    +0.000 A 
ATOM     14  C   UNL     1       1.525   9.930  18.130  0.00  0.00    +0.000 A 
ATOM     15  C   UNL     1       0.771  10.534  19.110  0.00  0.00    +0.000 A 
ATOM     16  S   UNL     1       0.632   9.557  20.507  0.00  0.00    +0.000 S 
ENDBRANCH  11  12
ENDBRANCH   9  11
ENDBRANCH   1   8
BRANCH   5  17
ATOM     17  S   UNL     1       6.081   5.092  18.142  0.00  0.00    +0.000 S 
ATOM     18  O   UNL     1       6.062   6.513  18.467  0.00  0.00    +0.000 OA
ATOM     19  O   UNL     1       7.210   4.263  18.457  0.00  0.00    +0.000 OA
BRANCH  17  20
ATOM     20  C   UNL     1       5.879   5.061  16.361  0.00  0.00    +0.000 A 
ATOM     21  C   UNL     1       5.351   5.989  15.480  0.00  0.00    +0.000 A 
ATOM     22  C   UNL     1       5.336   5.521  14.133  0.00  0.00    +0.000 A 
ATOM     23  C   UNL     1       5.908   4.278  14.039  0.00  0.00    +0.000 A 
ATOM     24 BR   UNL     1       6.131   3.370  12.416  0.00  0.00    +0.000 Br
ATOM     25  S   UNL     1       6.408   3.654  15.532  0.00  0.00    +0.000 S 
ENDBRANCH  17  20
ENDBRANCH   5  17
TORSDOF 5
ENDMDL
MODEL 5
REMARK VINA RESULT:      -7.1      4.501      6.833
REMARK  Name = 
REMARK  5 active torsions:
REMARK  status: ('A' for Active; 'I' for Inactive)
REMARK    1  A    between atoms: C_2  and  C_10
REMARK    2  A    between atoms: N_3  and  C_4
REMARK    3  A    between atoms: C_4  and  C_5
REMARK    4  A    between atoms: N_14  and  S_15
REMARK    5  A    between atoms: S_15  and  C_18
REMARK                            x       y       z     vdW  Elec       q    Type
REMARK                         _______ _______ _______ _____ _____    ______ ____
ROOT
ATOM      1  C   UNL     1       1.031   4.527  20.251  0.00  0.00    +0.000 C 
ATOM      2  C   UNL     1       1.214   3.480  21.353  0.00  0.00    +0.000 C 
ATOM      3  C   UNL     1       2.677   3.072  21.452  0.00  0.00    +0.000 C 
ATOM      4  C   UNL     1       3.176   2.514  20.127  0.00  0.00    +0.000 C 
ATOM      5  N   UNL     1       2.911   3.446  18.992  0.00  0.00    +0.000 NA
ATOM      6  C   UNL     1       1.497   3.943  18.921  0.00  0.00    +0.000 C 
ENDROOT
BRANCH   1   8
ATOM      7  O   UNL     1       2.853   6.103  20.212  0.00  0.00    +0.000 OA
ATOM      8  C   UNL     1       1.693   5.878  20.552  0.00  0.00    +0.000 C 
ATOM      9  N   UNL     1       0.908   6.828  21.159  0.00  0.00    +0.000 N 
ATOM     10  H   UNL     1      -0.018   6.575  21.501  0.00  0.00    +0.000 HD
BRANCH   9  11
ATOM     11  C   UNL     1       1.387   8.159  21.433  0.00  0.00    +0.000 C 
BRANCH  11  12
ATOM     12  C   UNL     1       0.722   9.115  20.495  0.00  0.00    +0.000 A 
ATOM     13  C   UNL     1      -0.390   9.904  20.723  0.00  0.00    +0.000 A 
ATOM     14  C   UNL     1      -0.720  10.719  19.601  0.00  0.00    +0.000 A 
ATOM     15  C   UNL     1       0.152  10.526  18.553  0.00  0.00    +0.000 A 
ATOM     16  S   UNL     1       1.347   9.358  18.918  0.00  0.00    +0.000 S 
ENDBRANCH  11  12
ENDBRANCH   9  11
ENDBRANCH   1   8
BRANCH   5  17
ATOM     17  S   UNL     1       3.500   2.871  17.469  0.00  0.00    +0.000 S 
ATOM     18  O   UNL     1       4.153   1.591  17.715  0.00  0.00    +0.000 OA
ATOM     19  O   UNL     1       2.456   3.007  16.493  0.00  0.00    +0.000 OA
BRANCH  17  20
ATOM     20  C   UNL     1       4.846   3.943  16.963  0.00  0.00    +0.000 A 
ATOM     21  C   UNL     1       5.658   3.931  15.843  0.00  0.00    +0.000 A 
ATOM     22  C   UNL     1       6.652   4.954  15.874  0.00  0.00    +0.000 A 
ATOM     23  C   UNL     1       6.514   5.738  16.991  0.00  0.00    +0.000 A 
ATOM     24 BR   UNL     1       7.595   7.226  17.341  0.00  0.00    +0.000 Br
ATOM     25  S   UNL     1       5.259   5.237  18.012  0.00  0.00    +0.000 S 
ENDBRANCH  17  20
ENDBRANCH   5  17
TORSDOF 5
ENDMDL
MODEL 6
REMARK VINA RESULT:      -6.8      8.137     10.449
REMARK  Name = 
REMARK  5 active torsions:
REMARK  status: ('A' for Active; 'I' for Inactive)
REMARK    1  A    between atoms: C_2  and  C_10
REMARK    2  A    between atoms: N_3  and  C_4
REMARK    3  A    between atoms: C_4  and  C_5
REMARK    4  A    between atoms: N_14  and  S_15
REMARK    5  A    between atoms: S_15  and  C_18
REMARK                            x       y       z     vdW  Elec       q    Type
REMARK                         _______ _______ _______ _____ _____    ______ ____
ROOT
ATOM      1  C   UNL     1      -2.560   9.545  17.308  0.00  0.00    +0.000 C 
ATOM      2  C   UNL     1      -2.626   9.948  15.832  0.00  0.00    +0.000 C 
ATOM      3  C   UNL     1      -3.156  11.368  15.699  0.00  0.00    +0.000 C 
ATOM      4  C   UNL     1      -4.537  11.493  16.326  0.00  0.00    +0.000 C 
ATOM      5  N   UNL     1      -4.559  10.998  17.733  0.00  0.00    +0.000 NA
ATOM      6  C   UNL     1      -3.957   9.635  17.915  0.00  0.00    +0.000 C 
ENDROOT
BRANCH   1   8
ATOM      7  O   UNL     1      -0.352  10.400  17.754  0.00  0.00    +0.000 OA
ATOM      8  C   UNL     1      -1.522  10.323  18.126  0.00  0.00    +0.000 C 
ATOM      9  N   UNL     1      -1.980  10.970  19.248  0.00  0.00    +0.000 N 
ATOM     10  H   UNL     1      -2.934  10.811  19.568  0.00  0.00    +0.000 HD
BRANCH   9  11
ATOM     11  C   UNL     1      -1.123  11.790  20.065  0.00  0.00    +0.000 C 
BRANCH  11  12
ATOM     12  C   UNL     1      -0.640  10.979  21.225  0.00  0.00    +0.000 A 
ATOM     13  C   UNL     1      -1.162  10.917  22.504  0.00  0.00    +0.000 A 
ATOM     14  C   UNL     1      -0.454  10.004  23.338  0.00  0.00    +0.000 A 
ATOM     15  C   UNL     1       0.584   9.396  22.669  0.00  0.00    +0.000 A 
ATOM     16  S   UNL     1       0.711   9.939  21.052  0.00  0.00    +0.000 S 
ENDBRANCH  11  12
ENDBRANCH   9  11
ENDBRANCH   1   8
BRANCH   5  17
ATOM     17  S   UNL     1      -6.102  11.160  18.503  0.00  0.00    +0.000 S 
ATOM     18  O   UNL     1      -6.879  12.107  17.714  0.00  0.00    +0.000 OA
ATOM     19  O   UNL     1      -6.600   9.849  18.809  0.00  0.00    +0.000 OA
BRANCH  17  20
ATOM     20  C   UNL     1      -5.849  12.011  20.061  0.00  0.00    +0.000 A 
ATOM     21  C   UNL     1      -4.752  12.677  20.576  0.00  0.00    +0.000 A 
ATOM     22  C   UNL     1      -4.975  13.165  21.897  0.00  0.00    +0.000 A 
ATOM     23  C   UNL     1      -6.257  12.900  22.308  0.00  0.00    +0.000 A 
ATOM     24 BR   UNL     1      -6.941  13.452  23.961  0.00  0.00    +0.000 Br
ATOM     25  S   UNL     1      -7.164  12.040  21.165  0.00  0.00    +0.000 S 
ENDBRANCH  17  20
ENDBRANCH   5  17
TORSDOF 5
ENDMDL
MODEL 7
REMARK VINA RESULT:      -6.7      4.576      6.987
REMARK  Name = 
REMARK  5 active torsions:
REMARK  status: ('A' for Active; 'I' for Inactive)
REMARK    1  A    between atoms: C_2  and  C_10
REMARK    2  A    between atoms: N_3  and  C_4
REMARK    3  A    between atoms: C_4  and  C_5
REMARK    4  A    between atoms: N_14  and  S_15
REMARK    5  A    between atoms: S_15  and  C_18
REMARK                            x       y       z     vdW  Elec       q    Type
REMARK                         _______ _______ _______ _____ _____    ______ ____
ROOT
ATOM      1  C   UNL     1       0.967   4.355  20.404  0.00  0.00    +0.000 C 
ATOM      2  C   UNL     1       1.115   3.205  21.404  0.00  0.00    +0.000 C 
ATOM      3  C   UNL     1       2.561   2.731  21.448  0.00  0.00    +0.000 C 
ATOM      4  C   UNL     1       3.025   2.277  20.071  0.00  0.00    +0.000 C 
ATOM      5  N   UNL     1       2.790   3.319  19.029  0.00  0.00    +0.000 NA
ATOM      6  C   UNL     1       1.397   3.876  19.021  0.00  0.00    +0.000 C 
ENDROOT
BRANCH   1   8
ATOM      7  O   UNL     1       2.716   5.607  21.490  0.00  0.00    +0.000 OA
ATOM      8  C   UNL     1       1.686   5.645  20.819  0.00  0.00    +0.000 C 
ATOM      9  N   UNL     1       1.156   6.824  20.353  0.00  0.00    +0.000 N 
ATOM     10  H   UNL     1       0.257   6.818  19.874  0.00  0.00    +0.000 HD
BRANCH   9  11
ATOM     11  C   UNL     1       1.774   8.099  20.613  0.00  0.00    +0.000 C 
BRANCH  11  12
ATOM     12  C   UNL     1       0.785   8.983  21.303  0.00  0.00    +0.000 A 
ATOM     13  C   UNL     1       0.477   9.035  22.650  0.00  0.00    +0.000 A 
ATOM     14  C   UNL     1      -0.498  10.031  22.948  0.00  0.00    +0.000 A 
ATOM     15  C   UNL     1      -0.902  10.707  21.819  0.00  0.00    +0.000 A 
ATOM     16  S   UNL     1      -0.121  10.131  20.411  0.00  0.00    +0.000 S 
ENDBRANCH  11  12
ENDBRANCH   9  11
ENDBRANCH   1   8
BRANCH   5  17
ATOM     17  S   UNL     1       3.342   2.862  17.453  0.00  0.00    +0.000 S 
ATOM     18  O   UNL     1       3.941   1.539  17.573  0.00  0.00    +0.000 OA
ATOM     19  O   UNL     1       2.298   3.132  16.506  0.00  0.00    +0.000 OA
BRANCH  17  20
ATOM     20  C   UNL     1       4.729   3.919  17.032  0.00  0.00    +0.000 A 
ATOM     21  C   UNL     1       5.604   3.902  15.961  0.00  0.00    +0.000 A 
ATOM     22  C   UNL     1       6.608   4.911  16.055  0.00  0.00    +0.000 A 
ATOM     23  C   UNL     1       6.416   5.690  17.167  0.00  0.00    +0.000 A 
ATOM     24 BR   UNL     1       7.496   7.162  17.589  0.00  0.00    +0.000 Br
ATOM     25  S   UNL     1       5.099   5.201  18.112  0.00  0.00    +0.000 S 
ENDBRANCH  17  20
ENDBRANCH   5  17
TORSDOF 5
ENDMDL
MODEL 8
REMARK VINA RESULT:      -6.7      3.533      6.150
REMARK  Name = 
REMARK  5 active torsions:
REMARK  status: ('A' for Active; 'I' for Inactive)
REMARK    1  A    between atoms: C_2  and  C_10
REMARK    2  A    between atoms: N_3  and  C_4
REMARK    3  A    between atoms: C_4  and  C_5
REMARK    4  A    between atoms: N_14  and  S_15
REMARK    5  A    between atoms: S_15  and  C_18
REMARK                            x       y       z     vdW  Elec       q    Type
REMARK                         _______ _______ _______ _____ _____    ______ ____
ROOT
ATOM      1  C   UNL     1       6.303   6.211  16.392  0.00  0.00    +0.000 C 
ATOM      2  C   UNL     1       7.068   6.693  17.628  0.00  0.00    +0.000 C 
ATOM      3  C   UNL     1       7.310   5.532  18.581  0.00  0.00    +0.000 C 
ATOM      4  C   UNL     1       5.994   4.897  19.009  0.00  0.00    +0.000 C 
ATOM      5  N   UNL     1       5.150   4.518  17.838  0.00  0.00    +0.000 NA
ATOM      6  C   UNL     1       4.969   5.614  16.830  0.00  0.00    +0.000 C 
ENDROOT
BRANCH   1   8
ATOM      7  O   UNL     1       7.808   4.376  15.979  0.00  0.00    +0.000 OA
ATOM      8  C   UNL     1       7.098   5.255  15.494  0.00  0.00    +0.000 C 
ATOM      9  N   UNL     1       6.925   5.395  14.139  0.00  0.00    +0.000 N 
ATOM     10  H   UNL     1       6.397   6.188  13.776  0.00  0.00    +0.000 HD
BRANCH   9  11
ATOM     11  C   UNL     1       7.559   4.517  13.189  0.00  0.00    +0.000 C 
BRANCH  11  12
ATOM     12  C   UNL     1       6.506   3.710  12.499  0.00  0.00    +0.000 A 
ATOM     13  C   UNL     1       5.139   3.918  12.486  0.00  0.00    +0.000 A 
ATOM     14  C   UNL     1       4.449   2.958  11.690  0.00  0.00    +0.000 A 
ATOM     15  C   UNL     1       5.311   2.048  11.121  0.00  0.00    +0.000 A 
ATOM     16  S   UNL     1       6.938   2.344  11.559  0.00  0.00    +0.000 S 
ENDBRANCH  11  12
ENDBRANCH   9  11
ENDBRANCH   1   8
BRANCH   5  17
ATOM     17  S   UNL     1       3.659   3.752  18.276  0.00  0.00    +0.000 S 
ATOM     18  O   UNL     1       2.824   3.723  17.082  0.00  0.00    +0.000 OA
ATOM     19  O   UNL     1       3.958   2.559  19.015  0.00  0.00    +0.000 OA
BRANCH  17  20
ATOM     20  C   UNL     1       2.781   4.858  19.381  0.00  0.00    +0.000 A 
ATOM     21  C   UNL     1       2.132   4.632  20.582  0.00  0.00    +0.000 A 
ATOM     22  C   UNL     1       1.512   5.806  21.101  0.00  0.00    +0.000 A 
ATOM     23  C   UNL     1       1.766   6.890  20.300  0.00  0.00    +0.000 A 
ATOM     24 BR   UNL     1       1.174   8.622  20.697  0.00  0.00    +0.000 Br
ATOM     25  S   UNL     1       2.682   6.511  18.927  0.00  0.00    +0.000 S 
ENDBRANCH  17  20
ENDBRANCH   5  17
TORSDOF 5
ENDMDL
MODEL 9
REMARK VINA RESULT:      -6.7      4.861      6.835
REMARK  Name = 
REMARK  5 active torsions:
REMARK  status: ('A' for Active; 'I' for Inactive)
REMARK    1  A    between atoms: C_2  and  C_10
REMARK    2  A    between atoms: N_3  and  C_4
REMARK    3  A    between atoms: C_4  and  C_5
REMARK    4  A    between atoms: N_14  and  S_15
REMARK    5  A    between atoms: S_15  and  C_18
REMARK                            x       y       z     vdW  Elec       q    Type
REMARK                         _______ _______ _______ _____ _____    ______ ____
ROOT
ATOM      1  C   UNL     1       2.309   3.889  18.426  0.00  0.00    +0.000 C 
ATOM      2  C   UNL     1       3.099   2.629  18.792  0.00  0.00    +0.000 C 
ATOM      3  C   UNL     1       4.369   3.005  19.542  0.00  0.00    +0.000 C 
ATOM      4  C   UNL     1       5.240   3.931  18.705  0.00  0.00    +0.000 C 
ATOM      5  N   UNL     1       4.484   5.121  18.216  0.00  0.00    +0.000 NA
ATOM      6  C   UNL     1       3.178   4.790  17.554  0.00  0.00    +0.000 C 
ENDROOT
BRANCH   1   8
ATOM      7  O   UNL     1       0.999   4.066  20.441  0.00  0.00    +0.000 OA
ATOM      8  C   UNL     1       1.727   4.639  19.632  0.00  0.00    +0.000 C 
ATOM      9  N   UNL     1       2.109   5.949  19.786  0.00  0.00    +0.000 N 
ATOM     10  H   UNL     1       2.642   6.410  19.050  0.00  0.00    +0.000 HD
BRANCH   9  11
ATOM     11  C   UNL     1       1.689   6.743  20.912  0.00  0.00    +0.000 C 
BRANCH  11  12
ATOM     12  C   UNL     1       1.359   8.122  20.434  0.00  0.00    +0.000 A 
ATOM     13  C   UNL     1       0.735   9.142  21.128  0.00  0.00    +0.000 A 
ATOM     14  C   UNL     1       0.618  10.334  20.355  0.00  0.00    +0.000 A 
ATOM     15  C   UNL     1       1.158  10.186  19.097  0.00  0.00    +0.000 A 
ATOM     16  S   UNL     1       1.785   8.614  18.849  0.00  0.00    +0.000 S 
ENDBRANCH  11  12
ENDBRANCH   9  11
ENDBRANCH   1   8
BRANCH   5  17
ATOM     17  S   UNL     1       5.447   6.225  17.293  0.00  0.00    +0.000 S 
ATOM     18  O   UNL     1       4.542   7.219  16.732  0.00  0.00    +0.000 OA
ATOM     19  O   UNL     1       6.588   6.603  18.078  0.00  0.00    +0.000 OA
BRANCH  17  20
ATOM     20  C   UNL     1       6.058   5.346  15.854  0.00  0.00    +0.000 A 
ATOM     21  C   UNL     1       7.343   5.085  15.414  0.00  0.00    +0.000 A 
ATOM     22  C   UNL     1       7.368   4.389  14.169  0.00  0.00    +0.000 A 
ATOM     23  C   UNL     1       6.097   4.098  13.745  0.00  0.00    +0.000 A 
ATOM     24 BR   UNL     1       5.732   3.129  12.185  0.00  0.00    +0.000 Br
ATOM     25  S   UNL     1       4.892   4.687  14.780  0.00  0.00    +0.000 S 
ENDBRANCH  17  20
ENDBRANCH   5  17
TORSDOF 5
ENDMDL
