MODEL 1
REMARK VINA RESULT:      -7.9      0.000      0.000
REMARK  Name = 
REMARK  5 active torsions:
REMARK  status: ('A' for Active; 'I' for Inactive)
REMARK    1  A    between atoms: C_1  and  O_2
REMARK    2  A    between atoms: O_2  and  C_3
REMARK    3  A    between atoms: C_6  and  S_7
REMARK    4  A    between atoms: S_7  and  N_10
REMARK    5  A    between atoms: N_13  and  C_14
REMARK                            x       y       z     vdW  Elec       q    Type
REMARK                         _______ _______ _______ _____ _____    ______ ____
ROOT
ATOM      1  N   UNL     1       3.577   4.736  19.922  0.00  0.00    +0.000 N 
ATOM      2  C   UNL     1       2.807   5.737  19.343  0.00  0.00    +0.000 C 
ATOM      3  O   UNL     1       2.436   5.633  18.185  0.00  0.00    +0.000 OA
ATOM      4  N   UNL     1       2.583   6.825  20.157  0.00  0.00    +0.000 N 
ATOM      5  H   UNL     1       3.950   4.778  20.861  0.00  0.00    +0.000 HD
ATOM      6  H   UNL     1       3.070   6.858  21.042  0.00  0.00    +0.000 HD
ENDROOT
BRANCH   4   7
ATOM      7  C   UNL     1       1.848   7.974  19.777  0.00  0.00    +0.000 A 
ATOM      8  C   UNL     1       1.955   8.551  18.506  0.00  0.00    +0.000 A 
ATOM      9  C   UNL     1       1.271   9.724  18.182  0.00  0.00    +0.000 A 
ATOM     10  C   UNL     1       0.453  10.325  19.128  0.00  0.00    +0.000 A 
ATOM     11 CL   UNL     1      -0.369  11.784  18.736  0.00  0.00    +0.000 Cl
ATOM     12  C   UNL     1       0.300   9.746  20.386  0.00  0.00    +0.000 A 
ATOM     13  C   UNL     1       0.987   8.568  20.710  0.00  0.00    +0.000 A 
ENDBRANCH   4   7
BRANCH   1  14
ATOM     14  S   UNL     1       4.045   3.374  19.073  0.00  0.00    +0.000 S 
ATOM     15  O   UNL     1       2.876   2.799  18.441  0.00  0.00    +0.000 OA
ATOM     16  O   UNL     1       4.842   2.598  20.002  0.00  0.00    +0.000 OA
BRANCH  14  20
ATOM     17  C   UNL     1       6.896   4.926  15.847  0.00  0.00    +0.000 A 
ATOM     18  C   UNL     1       5.715   4.262  15.496  0.00  0.00    +0.000 A 
ATOM     19  C   UNL     1       4.834   3.805  16.480  0.00  0.00    +0.000 A 
ATOM     20  C   UNL     1       5.155   3.990  17.826  0.00  0.00    +0.000 A 
ATOM     21  C   UNL     1       6.338   4.641  18.189  0.00  0.00    +0.000 A 
ATOM     22  C   UNL     1       7.208   5.111  17.196  0.00  0.00    +0.000 A 
BRANCH  17  24
ATOM     23  C   UNL     1       7.253   4.862  13.507  0.00  0.00    +0.000 C 
ATOM     24  O   UNL     1       7.673   5.313  14.791  0.00  0.00    +0.000 OA
ENDBRANCH  17  24
ENDBRANCH  14  20
ENDBRANCH   1  14
TORSDOF 4
ENDMDL
MODEL 2
REMARK VINA RESULT:      -7.9      0.192      1.044
REMARK  Name = 
REMARK  5 active torsions:
REMARK  status: ('A' for Active; 'I' for Inactive)
REMARK    1  A    between atoms: C_1  and  O_2
REMARK    2  A    between atoms: O_2  and  C_3
REMARK    3  A    between atoms: C_6  and  S_7
REMARK    4  A    between atoms: S_7  and  N_10
REMARK    5  A    between atoms: N_13  and  C_14
REMARK                            x       y       z     vdW  Elec       q    Type
REMARK                         _______ _______ _______ _____ _____    ______ ____
ROOT
ATOM      1  N   UNL     1       3.620   4.882  19.946  0.00  0.00    +0.000 N 
ATOM      2  C   UNL     1       2.777   5.842  19.397  0.00  0.00    +0.000 C 
ATOM      3  O   UNL     1       2.312   5.682  18.281  0.00  0.00    +0.000 OA
ATOM      4  N   UNL     1       2.596   6.956  20.185  0.00  0.00    +0.000 N 
ATOM      5  H   UNL     1       4.070   4.971  20.847  0.00  0.00    +0.000 HD
ATOM      6  H   UNL     1       3.156   7.036  21.022  0.00  0.00    +0.000 HD
ENDROOT
BRANCH   4   7
ATOM      7  C   UNL     1       1.802   8.072  19.826  0.00  0.00    +0.000 A 
ATOM      8  C   UNL     1       0.892   8.666  20.710  0.00  0.00    +0.000 A 
ATOM      9  C   UNL     1       0.072   9.721  20.307  0.00  0.00    +0.000 A 
ATOM     10  C   UNL     1       0.168  10.208  19.011  0.00  0.00    +0.000 A 
ATOM     11 CL   UNL     1      -0.861  11.490  18.507  0.00  0.00    +0.000 Cl
ATOM     12  C   UNL     1       1.094   9.659  18.127  0.00  0.00    +0.000 A 
ATOM     13  C   UNL     1       1.918   8.600  18.533  0.00  0.00    +0.000 A 
ENDBRANCH   4   7
BRANCH   1  14
ATOM     14  S   UNL     1       4.049   3.497  19.113  0.00  0.00    +0.000 S 
ATOM     15  O   UNL     1       2.860   2.937  18.505  0.00  0.00    +0.000 OA
ATOM     16  O   UNL     1       4.841   2.720  20.044  0.00  0.00    +0.000 OA
BRANCH  14  20
ATOM     17  C   UNL     1       6.888   4.939  15.827  0.00  0.00    +0.000 A 
ATOM     18  C   UNL     1       5.662   4.349  15.501  0.00  0.00    +0.000 A 
ATOM     19  C   UNL     1       4.786   3.926  16.504  0.00  0.00    +0.000 A 
ATOM     20  C   UNL     1       5.155   4.071  17.842  0.00  0.00    +0.000 A 
ATOM     21  C   UNL     1       6.383   4.648  18.180  0.00  0.00    +0.000 A 
ATOM     22  C   UNL     1       7.249   5.084  17.168  0.00  0.00    +0.000 A 
BRANCH  17  24
ATOM     23  C   UNL     1       7.199   4.853  13.481  0.00  0.00    +0.000 C 
ATOM     24  O   UNL     1       7.655   5.300  14.753  0.00  0.00    +0.000 OA
ENDBRANCH  17  24
ENDBRANCH  14  20
ENDBRANCH   1  14
TORSDOF 4
ENDMDL
MODEL 3
REMARK VINA RESULT:      -7.9      0.240      1.470
REMARK  Name = 
REMARK  5 active torsions:
REMARK  status: ('A' for Active; 'I' for Inactive)
REMARK    1  A    between atoms: C_1  and  O_2
REMARK    2  A    between atoms: O_2  and  C_3
REMARK    3  A    between atoms: C_6  and  S_7
REMARK    4  A    between atoms: S_7  and  N_10
REMARK    5  A    between atoms: N_13  and  C_14
REMARK                            x       y       z     vdW  Elec       q    Type
REMARK                         _______ _______ _______ _____ _____    ______ ____
ROOT
ATOM      1  N   UNL     1       3.644   4.827  19.842  0.00  0.00    +0.000 N 
ATOM      2  C   UNL     1       2.781   5.791  19.334  0.00  0.00    +0.000 C 
ATOM      3  O   UNL     1       2.268   5.638  18.237  0.00  0.00    +0.000 OA
ATOM      4  N   UNL     1       2.635   6.902  20.134  0.00  0.00    +0.000 N 
ATOM      5  H   UNL     1       4.132   4.911  20.723  0.00  0.00    +0.000 HD
ATOM      6  H   UNL     1       3.230   6.976  20.947  0.00  0.00    +0.000 HD
ENDROOT
BRANCH   4   7
ATOM      7  C   UNL     1       1.828   8.021  19.814  0.00  0.00    +0.000 A 
ATOM      8  C   UNL     1       0.929   8.587  20.726  0.00  0.00    +0.000 A 
ATOM      9  C   UNL     1       0.096   9.646  20.361  0.00  0.00    +0.000 A 
ATOM     10  C   UNL     1       0.169  10.165  19.076  0.00  0.00    +0.000 A 
ATOM     11 CL   UNL     1      -0.876  11.452  18.620  0.00  0.00    +0.000 Cl
ATOM     12  C   UNL     1       1.085   9.644  18.165  0.00  0.00    +0.000 A 
ATOM     13  C   UNL     1       1.922   8.581  18.532  0.00  0.00    +0.000 A 
ENDBRANCH   4   7
BRANCH   1  14
ATOM     14  S   UNL     1       4.035   3.446  18.985  0.00  0.00    +0.000 S 
ATOM     15  O   UNL     1       2.822   2.895  18.417  0.00  0.00    +0.000 OA
ATOM     16  O   UNL     1       4.857   2.659  19.880  0.00  0.00    +0.000 OA
BRANCH  14  20
ATOM     17  C   UNL     1       6.769   4.958  15.641  0.00  0.00    +0.000 A 
ATOM     18  C   UNL     1       7.195   4.979  16.974  0.00  0.00    +0.000 A 
ATOM     19  C   UNL     1       6.368   4.500  17.994  0.00  0.00    +0.000 A 
ATOM     20  C   UNL     1       5.095   4.022  17.677  0.00  0.00    +0.000 A 
ATOM     21  C   UNL     1       4.655   4.007  16.350  0.00  0.00    +0.000 A 
ATOM     22  C   UNL     1       5.497   4.475  15.331  0.00  0.00    +0.000 A 
BRANCH  17  24
ATOM     23  C   UNL     1       7.550   4.991  13.406  0.00  0.00    +0.000 C 
ATOM     24  O   UNL     1       7.669   5.464  14.744  0.00  0.00    +0.000 OA
ENDBRANCH  17  24
ENDBRANCH  14  20
ENDBRANCH   1  14
TORSDOF 4
ENDMDL
MODEL 4
REMARK VINA RESULT:      -7.8      0.139      1.041
REMARK  Name = 
REMARK  5 active torsions:
REMARK  status: ('A' for Active; 'I' for Inactive)
REMARK    1  A    between atoms: C_1  and  O_2
REMARK    2  A    between atoms: O_2  and  C_3
REMARK    3  A    between atoms: C_6  and  S_7
REMARK    4  A    between atoms: S_7  and  N_10
REMARK    5  A    between atoms: N_13  and  C_14
REMARK                            x       y       z     vdW  Elec       q    Type
REMARK                         _______ _______ _______ _____ _____    ______ ____
ROOT
ATOM      1  N   UNL     1       3.690   4.830  19.860  0.00  0.00    +0.000 N 
ATOM      2  C   UNL     1       2.838   5.778  19.304  0.00  0.00    +0.000 C 
ATOM      3  O   UNL     1       2.348   5.590  18.203  0.00  0.00    +0.000 OA
ATOM      4  N   UNL     1       2.678   6.913  20.066  0.00  0.00    +0.000 N 
ATOM      5  H   UNL     1       4.161   4.941  20.747  0.00  0.00    +0.000 HD
ATOM      6  H   UNL     1       3.256   7.013  20.888  0.00  0.00    +0.000 HD
ENDROOT
BRANCH   4   7
ATOM      7  C   UNL     1       1.878   8.022  19.695  0.00  0.00    +0.000 A 
ATOM      8  C   UNL     1       1.959   8.620  18.431  0.00  0.00    +0.000 A 
ATOM      9  C   UNL     1       1.209   9.755  18.117  0.00  0.00    +0.000 A 
ATOM     10  C   UNL     1       0.351  10.294  19.065  0.00  0.00    +0.000 A 
ATOM     11 CL   UNL     1      -0.553  11.707  18.684  0.00  0.00    +0.000 Cl
ATOM     12  C   UNL     1       0.225   9.692  20.314  0.00  0.00    +0.000 A 
ATOM     13  C   UNL     1       0.978   8.552  20.629  0.00  0.00    +0.000 A 
ENDBRANCH   4   7
BRANCH   1  14
ATOM     14  S   UNL     1       4.097   3.422  19.054  0.00  0.00    +0.000 S 
ATOM     15  O   UNL     1       2.893   2.847  18.493  0.00  0.00    +0.000 OA
ATOM     16  O   UNL     1       4.912   2.670  19.985  0.00  0.00    +0.000 OA
BRANCH  14  20
ATOM     17  C   UNL     1       6.859   4.836  15.690  0.00  0.00    +0.000 A 
ATOM     18  C   UNL     1       7.191   5.068  17.029  0.00  0.00    +0.000 A 
ATOM     19  C   UNL     1       6.357   4.620  18.058  0.00  0.00    +0.000 A 
ATOM     20  C   UNL     1       5.170   3.959  17.740  0.00  0.00    +0.000 A 
ATOM     21  C   UNL     1       4.822   3.732  16.405  0.00  0.00    +0.000 A 
ATOM     22  C   UNL     1       5.671   4.171  15.379  0.00  0.00    +0.000 A 
BRANCH  17  24
ATOM     23  C   UNL     1       7.459   5.080  13.413  0.00  0.00    +0.000 C 
ATOM     24  O   UNL     1       7.753   5.333  14.783  0.00  0.00    +0.000 OA
ENDBRANCH  17  24
ENDBRANCH  14  20
ENDBRANCH   1  14
TORSDOF 4
ENDMDL
MODEL 5
REMARK VINA RESULT:      -7.6      5.152      6.761
REMARK  Name = 
REMARK  5 active torsions:
REMARK  status: ('A' for Active; 'I' for Inactive)
REMARK    1  A    between atoms: C_1  and  O_2
REMARK    2  A    between atoms: O_2  and  C_3
REMARK    3  A    between atoms: C_6  and  S_7
REMARK    4  A    between atoms: S_7  and  N_10
REMARK    5  A    between atoms: N_13  and  C_14
REMARK                            x       y       z     vdW  Elec       q    Type
REMARK                         _______ _______ _______ _____ _____    ______ ____
ROOT
ATOM      1  N   UNL     1       8.135   6.680  18.494  0.00  0.00    +0.000 N 
ATOM      2  C   UNL     1       8.197   8.054  18.293  0.00  0.00    +0.000 C 
ATOM      3  O   UNL     1       7.650   8.557  17.324  0.00  0.00    +0.000 OA
ATOM      4  N   UNL     1       8.958   8.731  19.219  0.00  0.00    +0.000 N 
ATOM      5  H   UNL     1       8.599   6.196  19.251  0.00  0.00    +0.000 HD
ATOM      6  H   UNL     1       9.483   8.183  19.885  0.00  0.00    +0.000 HD
ENDROOT
BRANCH   4   7
ATOM      7  C   UNL     1       9.184  10.129  19.204  0.00  0.00    +0.000 A 
ATOM      8  C   UNL     1       9.335  10.856  18.017  0.00  0.00    +0.000 A 
ATOM      9  C   UNL     1       9.626  12.221  18.034  0.00  0.00    +0.000 A 
ATOM     10  C   UNL     1       9.752  12.880  19.248  0.00  0.00    +0.000 A 
ATOM     11 CL   UNL     1      10.137  14.556  19.268  0.00  0.00    +0.000 Cl
ATOM     12  C   UNL     1       9.566  12.186  20.441  0.00  0.00    +0.000 A 
ATOM     13  C   UNL     1       9.273  10.815  20.423  0.00  0.00    +0.000 A 
ENDBRANCH   4   7
BRANCH   1  14
ATOM     14  S   UNL     1       7.344   5.662  17.430  0.00  0.00    +0.000 S 
ATOM     15  O   UNL     1       7.950   4.349  17.509  0.00  0.00    +0.000 OA
ATOM     16  O   UNL     1       7.299   6.381  16.174  0.00  0.00    +0.000 OA
BRANCH  14  20
ATOM     17  C   UNL     1       3.057   5.430  19.014  0.00  0.00    +0.000 A 
ATOM     18  C   UNL     1       4.058   4.609  19.544  0.00  0.00    +0.000 A 
ATOM     19  C   UNL     1       5.372   4.693  19.075  0.00  0.00    +0.000 A 
ATOM     20  C   UNL     1       5.677   5.586  18.047  0.00  0.00    +0.000 A 
ATOM     21  C   UNL     1       4.682   6.403  17.500  0.00  0.00    +0.000 A 
ATOM     22  C   UNL     1       3.370   6.324  17.988  0.00  0.00    +0.000 A 
BRANCH  17  24
ATOM     23  C   UNL     1       1.292   3.920  19.475  0.00  0.00    +0.000 C 
ATOM     24  O   UNL     1       1.815   5.242  19.554  0.00  0.00    +0.000 OA
ENDBRANCH  17  24
ENDBRANCH  14  20
ENDBRANCH   1  14
TORSDOF 4
ENDMDL
MODEL 6
REMARK VINA RESULT:      -7.5      5.178      6.860
REMARK  Name = 
REMARK  5 active torsions:
REMARK  status: ('A' for Active; 'I' for Inactive)
REMARK    1  A    between atoms: C_1  and  O_2
REMARK    2  A    between atoms: O_2  and  C_3
REMARK    3  A    between atoms: C_6  and  S_7
REMARK    4  A    between atoms: S_7  and  N_10
REMARK    5  A    between atoms: N_13  and  C_14
REMARK                            x       y       z     vdW  Elec       q    Type
REMARK                         _______ _______ _______ _____ _____    ______ ____
ROOT
ATOM      1  N   UNL     1       8.193   6.812  18.649  0.00  0.00    +0.000 N 
ATOM      2  C   UNL     1       8.264   8.175  18.385  0.00  0.00    +0.000 C 
ATOM      3  O   UNL     1       7.757   8.631  17.373  0.00  0.00    +0.000 OA
ATOM      4  N   UNL     1       8.989   8.896  19.308  0.00  0.00    +0.000 N 
ATOM      5  H   UNL     1       8.626   6.365  19.446  0.00  0.00    +0.000 HD
ATOM      6  H   UNL     1       9.486   8.380  20.020  0.00  0.00    +0.000 HD
ENDROOT
BRANCH   4   7
ATOM      7  C   UNL     1       9.217  10.292  19.236  0.00  0.00    +0.000 A 
ATOM      8  C   UNL     1       9.344  11.094  20.377  0.00  0.00    +0.000 A 
ATOM      9  C   UNL     1       9.500  12.478  20.277  0.00  0.00    +0.000 A 
ATOM     10  C   UNL     1       9.548  13.073  19.024  0.00  0.00    +0.000 A 
ATOM     11 CL   UNL     1       9.713  14.781  18.903  0.00  0.00    +0.000 Cl
ATOM     12  C   UNL     1       9.463  12.290  17.876  0.00  0.00    +0.000 A 
ATOM     13  C   UNL     1       9.308  10.900  17.977  0.00  0.00    +0.000 A 
ENDBRANCH   4   7
BRANCH   1  14
ATOM     14  S   UNL     1       7.444   5.744  17.603  0.00  0.00    +0.000 S 
ATOM     15  O   UNL     1       8.009   4.426  17.806  0.00  0.00    +0.000 OA
ATOM     16  O   UNL     1       7.496   6.380  16.303  0.00  0.00    +0.000 OA
BRANCH  14  20
ATOM     17  C   UNL     1       3.060   5.713  18.916  0.00  0.00    +0.000 A 
ATOM     18  C   UNL     1       3.984   4.837  19.496  0.00  0.00    +0.000 A 
ATOM     19  C   UNL     1       5.327   4.859  19.110  0.00  0.00    +0.000 A 
ATOM     20  C   UNL     1       5.739   5.747  18.115  0.00  0.00    +0.000 A 
ATOM     21  C   UNL     1       4.823   6.618  17.519  0.00  0.00    +0.000 A 
ATOM     22  C   UNL     1       3.481   6.601  17.924  0.00  0.00    +0.000 A 
BRANCH  17  24
ATOM     23  C   UNL     1       1.634   5.390  20.778  0.00  0.00    +0.000 C 
ATOM     24  O   UNL     1       1.779   5.583  19.375  0.00  0.00    +0.000 OA
ENDBRANCH  17  24
ENDBRANCH  14  20
ENDBRANCH   1  14
TORSDOF 4
ENDMDL
MODEL 7
REMARK VINA RESULT:      -7.4      4.932      6.603
REMARK  Name = 
REMARK  5 active torsions:
REMARK  status: ('A' for Active; 'I' for Inactive)
REMARK    1  A    between atoms: C_1  and  O_2
REMARK    2  A    between atoms: O_2  and  C_3
REMARK    3  A    between atoms: C_6  and  S_7
REMARK    4  A    between atoms: S_7  and  N_10
REMARK    5  A    between atoms: N_13  and  C_14
REMARK                            x       y       z     vdW  Elec       q    Type
REMARK                         _______ _______ _______ _____ _____    ______ ____
ROOT
ATOM      1  N   UNL     1       7.997   6.470  18.399  0.00  0.00    +0.000 N 
ATOM      2  C   UNL     1       8.123   7.833  18.162  0.00  0.00    +0.000 C 
ATOM      3  O   UNL     1       7.725   8.312  17.112  0.00  0.00    +0.000 OA
ATOM      4  N   UNL     1       8.773   8.526  19.159  0.00  0.00    +0.000 N 
ATOM      5  H   UNL     1       8.342   6.003  19.227  0.00  0.00    +0.000 HD
ATOM      6  H   UNL     1       9.189   7.991  19.907  0.00  0.00    +0.000 HD
ENDROOT
BRANCH   4   7
ATOM      7  C   UNL     1       9.039   9.917  19.128  0.00  0.00    +0.000 A 
ATOM      8  C   UNL     1       9.466  10.628  20.256  0.00  0.00    +0.000 A 
ATOM      9  C   UNL     1       9.654  12.010  20.214  0.00  0.00    +0.000 A 
ATOM     10  C   UNL     1       9.431  12.697  19.029  0.00  0.00    +0.000 A 
ATOM     11 CL   UNL     1       9.637  14.404  18.986  0.00  0.00    +0.000 Cl
ATOM     12  C   UNL     1       9.044  12.004  17.884  0.00  0.00    +0.000 A 
ATOM     13  C   UNL     1       8.857  10.616  17.927  0.00  0.00    +0.000 A 
ENDBRANCH   4   7
BRANCH   1  14
ATOM     14  S   UNL     1       7.327   5.431  17.273  0.00  0.00    +0.000 S 
ATOM     15  O   UNL     1       8.055   4.180  17.306  0.00  0.00    +0.000 OA
ATOM     16  O   UNL     1       7.234   6.201  16.049  0.00  0.00    +0.000 OA
BRANCH  14  20
ATOM     17  C   UNL     1       3.037   4.771  18.724  0.00  0.00    +0.000 A 
ATOM     18  C   UNL     1       3.392   4.493  17.399  0.00  0.00    +0.000 A 
ATOM     19  C   UNL     1       4.706   4.676  16.960  0.00  0.00    +0.000 A 
ATOM     20  C   UNL     1       5.664   5.168  17.849  0.00  0.00    +0.000 A 
ATOM     21  C   UNL     1       5.318   5.461  19.171  0.00  0.00    +0.000 A 
ATOM     22  C   UNL     1       4.001   5.259  19.608  0.00  0.00    +0.000 A 
BRANCH  17  24
ATOM     23  C   UNL     1       1.451   3.531  19.970  0.00  0.00    +0.000 C 
ATOM     24  O   UNL     1       1.720   4.559  19.022  0.00  0.00    +0.000 OA
ENDBRANCH  17  24
ENDBRANCH  14  20
ENDBRANCH   1  14
TORSDOF 4
ENDMDL
MODEL 8
REMARK VINA RESULT:      -7.4      4.943      6.665
REMARK  Name = 
REMARK  5 active torsions:
REMARK  status: ('A' for Active; 'I' for Inactive)
REMARK    1  A    between atoms: C_1  and  O_2
REMARK    2  A    between atoms: O_2  and  C_3
REMARK    3  A    between atoms: C_6  and  S_7
REMARK    4  A    between atoms: S_7  and  N_10
REMARK    5  A    between atoms: N_13  and  C_14
REMARK                            x       y       z     vdW  Elec       q    Type
REMARK                         _______ _______ _______ _____ _____    ______ ____
ROOT
ATOM      1  N   UNL     1       7.949   6.459  18.436  0.00  0.00    +0.000 N 
ATOM      2  C   UNL     1       8.143   7.808  18.165  0.00  0.00    +0.000 C 
ATOM      3  O   UNL     1       7.859   8.259  17.067  0.00  0.00    +0.000 OA
ATOM      4  N   UNL     1       8.722   8.517  19.193  0.00  0.00    +0.000 N 
ATOM      5  H   UNL     1       8.201   6.013  19.309  0.00  0.00    +0.000 HD
ATOM      6  H   UNL     1       9.050   7.998  19.996  0.00  0.00    +0.000 HD
ENDROOT
BRANCH   4   7
ATOM      7  C   UNL     1       9.036   9.897  19.139  0.00  0.00    +0.000 A 
ATOM      8  C   UNL     1       9.495  10.610  20.254  0.00  0.00    +0.000 A 
ATOM      9  C   UNL     1       9.731  11.984  20.189  0.00  0.00    +0.000 A 
ATOM     10  C   UNL     1       9.525  12.660  18.994  0.00  0.00    +0.000 A 
ATOM     11 CL   UNL     1       9.791  14.358  18.923  0.00  0.00    +0.000 Cl
ATOM     12  C   UNL     1       9.108  11.964  17.862  0.00  0.00    +0.000 A 
ATOM     13  C   UNL     1       8.872  10.583  17.928  0.00  0.00    +0.000 A 
ENDBRANCH   4   7
BRANCH   1  14
ATOM     14  S   UNL     1       7.350   5.400  17.289  0.00  0.00    +0.000 S 
ATOM     15  O   UNL     1       8.111   4.169  17.354  0.00  0.00    +0.000 OA
ATOM     16  O   UNL     1       7.282   6.164  16.061  0.00  0.00    +0.000 OA
BRANCH  14  20
ATOM     17  C   UNL     1       3.054   4.594  18.644  0.00  0.00    +0.000 A 
ATOM     18  C   UNL     1       3.980   5.172  19.519  0.00  0.00    +0.000 A 
ATOM     19  C   UNL     1       5.287   5.437  19.100  0.00  0.00    +0.000 A 
ATOM     20  C   UNL     1       5.674   5.092  17.804  0.00  0.00    +0.000 A 
ATOM     21  C   UNL     1       4.761   4.503  16.925  0.00  0.00    +0.000 A 
ATOM     22  C   UNL     1       3.448   4.255  17.348  0.00  0.00    +0.000 A 
BRANCH  17  24
ATOM     23  C   UNL     1       1.206   3.131  18.868  0.00  0.00    +0.000 C 
ATOM     24  O   UNL     1       1.814   4.379  19.180  0.00  0.00    +0.000 OA
ENDBRANCH  17  24
ENDBRANCH  14  20
ENDBRANCH   1  14
TORSDOF 4
ENDMDL
MODEL 9
REMARK VINA RESULT:      -7.4      5.171      6.784
REMARK  Name = 
REMARK  5 active torsions:
REMARK  status: ('A' for Active; 'I' for Inactive)
REMARK    1  A    between atoms: C_1  and  O_2
REMARK    2  A    between atoms: O_2  and  C_3
REMARK    3  A    between atoms: C_6  and  S_7
REMARK    4  A    between atoms: S_7  and  N_10
REMARK    5  A    between atoms: N_13  and  C_14
REMARK                            x       y       z     vdW  Elec       q    Type
REMARK                         _______ _______ _______ _____ _____    ______ ____
ROOT
ATOM      1  N   UNL     1       8.043   6.772  18.358  0.00  0.00    +0.000 N 
ATOM      2  C   UNL     1       8.084   8.155  18.222  0.00  0.00    +0.000 C 
ATOM      3  O   UNL     1       7.439   8.704  17.344  0.00  0.00    +0.000 OA
ATOM      4  N   UNL     1       8.939   8.786  19.098  0.00  0.00    +0.000 N 
ATOM      5  H   UNL     1       8.583   6.252  19.036  0.00  0.00    +0.000 HD
ATOM      6  H   UNL     1       9.531   8.207  19.676  0.00  0.00    +0.000 HD
ENDROOT
BRANCH   4   7
ATOM      7  C   UNL     1       9.163  10.184  19.132  0.00  0.00    +0.000 A 
ATOM      8  C   UNL     1       9.203  10.970  17.973  0.00  0.00    +0.000 A 
ATOM      9  C   UNL     1       9.495  12.334  18.031  0.00  0.00    +0.000 A 
ATOM     10  C   UNL     1       9.733  12.932  19.260  0.00  0.00    +0.000 A 
ATOM     11 CL   UNL     1      10.118  14.607  19.328  0.00  0.00    +0.000 Cl
ATOM     12  C   UNL     1       9.659  12.178  20.429  0.00  0.00    +0.000 A 
ATOM     13  C   UNL     1       9.365  10.809  20.370  0.00  0.00    +0.000 A 
ENDBRANCH   4   7
BRANCH   1  14
ATOM     14  S   UNL     1       7.144   5.806  17.331  0.00  0.00    +0.000 S 
ATOM     15  O   UNL     1       7.803   4.522  17.209  0.00  0.00    +0.000 OA
ATOM     16  O   UNL     1       6.891   6.622  16.161  0.00  0.00    +0.000 OA
BRANCH  14  20
ATOM     17  C   UNL     1       3.140   5.310  19.489  0.00  0.00    +0.000 A 
ATOM     18  C   UNL     1       3.312   6.313  18.529  0.00  0.00    +0.000 A 
ATOM     19  C   UNL     1       4.529   6.453  17.855  0.00  0.00    +0.000 A 
ATOM     20  C   UNL     1       5.587   5.599  18.168  0.00  0.00    +0.000 A 
ATOM     21  C   UNL     1       5.431   4.601  19.134  0.00  0.00    +0.000 A 
ATOM     22  C   UNL     1       4.202   4.457  19.794  0.00  0.00    +0.000 A 
BRANCH  17  24
ATOM     23  C   UNL     1       1.122   4.123  19.845  0.00  0.00    +0.000 C 
ATOM     24  O   UNL     1       1.907   5.288  20.080  0.00  0.00    +0.000 OA
ENDBRANCH  17  24
ENDBRANCH  14  20
ENDBRANCH   1  14
TORSDOF 4
ENDMDL
