MODEL 1
REMARK VINA RESULT:      -8.7      0.000      0.000
REMARK  Name = 
REMARK  8 active torsions:
REMARK  status: ('A' for Active; 'I' for Inactive)
REMARK    1  A    between atoms: C_1  and  C_2
REMARK    2  A    between atoms: C_5  and  N_6
REMARK    3  A    between atoms: C_7  and  C_9
REMARK    4  A    between atoms: C_9  and  N_10
REMARK    5  A    between atoms: N_14  and  C_15
REMARK    6  A    between atoms: C_17  and  C_18
REMARK    7  A    between atoms: C_21  and  C_22
REMARK    8  A    between atoms: C_29  and  C_30
REMARK                            x       y       z     vdW  Elec       q    Type
REMARK                         _______ _______ _______ _____ _____    ______ ____
ROOT
ATOM      1  N   UNL     1       6.808   5.965  17.833  0.00  0.00    +0.000 N 
ATOM      2  C   UNL     1       5.716   5.514  18.549  0.00  0.00    +0.000 C 
ATOM      3  O   UNL     1       5.591   5.455  19.751  0.00  0.00    +0.000 OA
ATOM      4  C   UNL     1       4.690   5.109  17.472  0.00  0.00    +0.000 C 
ATOM      5  N   UNL     1       3.391   5.092  17.507  0.00  0.00    +0.000 NA
ATOM      6  C   UNL     1       5.489   4.928  16.256  0.00  0.00    +0.000 A 
ATOM      7  C   UNL     1       5.174   4.354  15.044  0.00  0.00    +0.000 A 
ATOM      8  C   UNL     1       6.180   4.328  14.071  0.00  0.00    +0.000 A 
ATOM      9  C   UNL     1       7.440   4.909  14.318  0.00  0.00    +0.000 A 
ATOM     10  C   UNL     1       7.722   5.526  15.539  0.00  0.00    +0.000 A 
ATOM     11  C   UNL     1       6.738   5.511  16.510  0.00  0.00    +0.000 A 
ENDROOT
BRANCH   5  12
ATOM     12  C   UNL     1       2.665   5.451  18.666  0.00  0.00    +0.000 A 
ATOM     13  C   UNL     1       2.364   6.784  18.983  0.00  0.00    +0.000 A 
ATOM     14  C   UNL     1       1.757   7.157  20.185  0.00  0.00    +0.000 A 
ATOM     15  C   UNL     1       1.660   8.607  20.554  0.00  0.00    +0.000 C 
ATOM     16  C   UNL     1       1.297   6.158  21.035  0.00  0.00    +0.000 A 
ATOM     17  C   UNL     1       1.466   4.817  20.687  0.00  0.00    +0.000 A 
ATOM     18  C   UNL     1       2.152   4.452  19.511  0.00  0.00    +0.000 A 
ATOM     19  C   UNL     1       2.303   2.997  19.169  0.00  0.00    +0.000 C 
ENDBRANCH   5  12
BRANCH   1  20
ATOM     20  C   UNL     1       7.931   6.620  18.458  0.00  0.00    +0.000 C 
BRANCH  20  22
ATOM     21  N   UNL     1       8.925   8.843  18.985  0.00  0.00    +0.000 N 
ATOM     22  C   UNL     1       8.055   8.129  18.170  0.00  0.00    +0.000 C 
ATOM     23  O   UNL     1       7.396   8.597  17.241  0.00  0.00    +0.000 OA
ATOM     24  H   UNL     1       9.476   8.298  19.629  0.00  0.00    +0.000 HD
BRANCH  21  29
ATOM     25  C   UNL     1      10.193  14.463  18.693  0.00  0.00    +0.000 C 
ATOM     26  C   UNL     1       9.825  13.012  18.768  0.00  0.00    +0.000 A 
ATOM     27  C   UNL     1       9.778  12.229  17.622  0.00  0.00    +0.000 A 
ATOM     28  C   UNL     1       9.469  10.869  17.703  0.00  0.00    +0.000 A 
ATOM     29  C   UNL     1       9.200  10.239  18.927  0.00  0.00    +0.000 A 
ATOM     30  C   UNL     1       9.200  11.036  20.094  0.00  0.00    +0.000 A 
ATOM     31  C   UNL     1       8.909  10.543  21.487  0.00  0.00    +0.000 C 
ATOM     32  C   UNL     1       9.526  12.411  19.995  0.00  0.00    +0.000 A 
ENDBRANCH  21  29
ENDBRANCH  20  22
ENDBRANCH   1  20
TORSDOF 4
ENDMDL
MODEL 2
REMARK VINA RESULT:      -8.6      0.604      1.635
REMARK  Name = 
REMARK  8 active torsions:
REMARK  status: ('A' for Active; 'I' for Inactive)
REMARK    1  A    between atoms: C_1  and  C_2
REMARK    2  A    between atoms: C_5  and  N_6
REMARK    3  A    between atoms: C_7  and  C_9
REMARK    4  A    between atoms: C_9  and  N_10
REMARK    5  A    between atoms: N_14  and  C_15
REMARK    6  A    between atoms: C_17  and  C_18
REMARK    7  A    between atoms: C_21  and  C_22
REMARK    8  A    between atoms: C_29  and  C_30
REMARK                            x       y       z     vdW  Elec       q    Type
REMARK                         _______ _______ _______ _____ _____    ______ ____
ROOT
ATOM      1  N   UNL     1       6.962   5.857  17.772  0.00  0.00    +0.000 N 
ATOM      2  C   UNL     1       5.954   5.259  18.503  0.00  0.00    +0.000 C 
ATOM      3  O   UNL     1       5.889   5.123  19.703  0.00  0.00    +0.000 OA
ATOM      4  C   UNL     1       4.927   4.808  17.445  0.00  0.00    +0.000 C 
ATOM      5  N   UNL     1       3.639   4.655  17.530  0.00  0.00    +0.000 NA
ATOM      6  C   UNL     1       5.686   4.776  16.190  0.00  0.00    +0.000 A 
ATOM      7  C   UNL     1       5.375   4.238  14.960  0.00  0.00    +0.000 A 
ATOM      8  C   UNL     1       6.335   4.368  13.949  0.00  0.00    +0.000 A 
ATOM      9  C   UNL     1       7.540   5.062  14.180  0.00  0.00    +0.000 A 
ATOM     10  C   UNL     1       7.812   5.639  15.423  0.00  0.00    +0.000 A 
ATOM     11  C   UNL     1       6.880   5.470  16.428  0.00  0.00    +0.000 A 
ENDROOT
BRANCH   5  12
ATOM     12  C   UNL     1       2.934   4.875  18.735  0.00  0.00    +0.000 A 
ATOM     13  C   UNL     1       2.695   3.853  19.665  0.00  0.00    +0.000 A 
ATOM     14  C   UNL     1       1.893   4.032  20.796  0.00  0.00    +0.000 A 
ATOM     15  C   UNL     1       1.502   2.847  21.629  0.00  0.00    +0.000 C 
ATOM     16  C   UNL     1       1.439   5.311  21.093  0.00  0.00    +0.000 A 
ATOM     17  C   UNL     1       1.769   6.377  20.255  0.00  0.00    +0.000 A 
ATOM     18  C   UNL     1       2.509   6.172  19.074  0.00  0.00    +0.000 A 
ATOM     19  C   UNL     1       2.851   7.349  18.206  0.00  0.00    +0.000 C 
ENDBRANCH   5  12
BRANCH   1  20
ATOM     20  C   UNL     1       8.040   6.590  18.390  0.00  0.00    +0.000 C 
BRANCH  20  22
ATOM     21  N   UNL     1       8.891   8.873  18.916  0.00  0.00    +0.000 N 
ATOM     22  C   UNL     1       8.035   8.109  18.131  0.00  0.00    +0.000 C 
ATOM     23  O   UNL     1       7.293   8.544  17.248  0.00  0.00    +0.000 OA
ATOM     24  H   UNL     1       9.515   8.358  19.518  0.00  0.00    +0.000 HD
BRANCH  21  29
ATOM     25  C   UNL     1       9.711  14.578  18.683  0.00  0.00    +0.000 C 
ATOM     26  C   UNL     1       9.459  13.102  18.748  0.00  0.00    +0.000 A 
ATOM     27  C   UNL     1       9.356  12.346  17.586  0.00  0.00    +0.000 A 
ATOM     28  C   UNL     1       9.157  10.964  17.653  0.00  0.00    +0.000 A 
ATOM     29  C   UNL     1       9.056  10.286  18.877  0.00  0.00    +0.000 A 
ATOM     30  C   UNL     1       9.113  11.052  20.063  0.00  0.00    +0.000 A 
ATOM     31  C   UNL     1       8.998  10.503  21.461  0.00  0.00    +0.000 C 
ATOM     32  C   UNL     1       9.327  12.449  19.978  0.00  0.00    +0.000 A 
ENDBRANCH  21  29
ENDBRANCH  20  22
ENDBRANCH   1  20
TORSDOF 4
ENDMDL
MODEL 3
REMARK VINA RESULT:      -8.4      0.989      1.154
REMARK  Name = 
REMARK  8 active torsions:
REMARK  status: ('A' for Active; 'I' for Inactive)
REMARK    1  A    between atoms: C_1  and  C_2
REMARK    2  A    between atoms: C_5  and  N_6
REMARK    3  A    between atoms: C_7  and  C_9
REMARK    4  A    between atoms: C_9  and  N_10
REMARK    5  A    between atoms: N_14  and  C_15
REMARK    6  A    between atoms: C_17  and  C_18
REMARK    7  A    between atoms: C_21  and  C_22
REMARK    8  A    between atoms: C_29  and  C_30
REMARK                            x       y       z     vdW  Elec       q    Type
REMARK                         _______ _______ _______ _____ _____    ______ ____
ROOT
ATOM      1  N   UNL     1       6.920   5.740  17.465  0.00  0.00    +0.000 N 
ATOM      2  C   UNL     1       6.031   5.032  18.250  0.00  0.00    +0.000 C 
ATOM      3  O   UNL     1       6.037   4.913  19.454  0.00  0.00    +0.000 OA
ATOM      4  C   UNL     1       5.024   4.432  17.247  0.00  0.00    +0.000 C 
ATOM      5  N   UNL     1       3.773   4.117  17.394  0.00  0.00    +0.000 NA
ATOM      6  C   UNL     1       5.724   4.473  15.959  0.00  0.00    +0.000 A 
ATOM      7  C   UNL     1       5.432   3.875  14.752  0.00  0.00    +0.000 A 
ATOM      8  C   UNL     1       6.321   4.106  13.696  0.00  0.00    +0.000 A 
ATOM      9  C   UNL     1       7.436   4.953  13.861  0.00  0.00    +0.000 A 
ATOM     10  C   UNL     1       7.686   5.585  15.082  0.00  0.00    +0.000 A 
ATOM     11  C   UNL     1       6.828   5.319  16.132  0.00  0.00    +0.000 A 
ENDROOT
BRANCH   5  12
ATOM     12  C   UNL     1       3.098   4.269  18.627  0.00  0.00    +0.000 A 
ATOM     13  C   UNL     1       2.525   5.485  19.027  0.00  0.00    +0.000 A 
ATOM     14  C   UNL     1       1.967   5.678  20.294  0.00  0.00    +0.000 A 
ATOM     15  C   UNL     1       1.570   7.055  20.734  0.00  0.00    +0.000 C 
ATOM     16  C   UNL     1       1.838   4.580  21.137  0.00  0.00    +0.000 A 
ATOM     17  C   UNL     1       2.282   3.325  20.717  0.00  0.00    +0.000 A 
ATOM     18  C   UNL     1       2.916   3.159  19.470  0.00  0.00    +0.000 A 
ATOM     19  C   UNL     1       3.370   1.789  19.052  0.00  0.00    +0.000 C 
ENDBRANCH   5  12
BRANCH   1  20
ATOM     20  C   UNL     1       7.920   6.617  18.021  0.00  0.00    +0.000 C 
BRANCH  20  22
ATOM     21  N   UNL     1       8.571   8.993  18.397  0.00  0.00    +0.000 N 
ATOM     22  C   UNL     1       7.690   8.120  17.770  0.00  0.00    +0.000 C 
ATOM     23  O   UNL     1       6.761   8.447  17.030  0.00  0.00    +0.000 OA
ATOM     24  H   UNL     1       9.346   8.567  18.881  0.00  0.00    +0.000 HD
BRANCH  21  29
ATOM     25  C   UNL     1       8.592  14.747  17.985  0.00  0.00    +0.000 C 
ATOM     26  C   UNL     1       8.558  13.254  18.119  0.00  0.00    +0.000 A 
ATOM     27  C   UNL     1       7.839  12.476  17.220  0.00  0.00    +0.000 A 
ATOM     28  C   UNL     1       7.840  11.083  17.329  0.00  0.00    +0.000 A 
ATOM     29  C   UNL     1       8.557  10.416  18.332  0.00  0.00    +0.000 A 
ATOM     30  C   UNL     1       9.253  11.200  19.279  0.00  0.00    +0.000 A 
ATOM     31  C   UNL     1      10.054  10.663  20.437  0.00  0.00    +0.000 C 
ATOM     32  C   UNL     1       9.252  12.610  19.148  0.00  0.00    +0.000 A 
ENDBRANCH  21  29
ENDBRANCH  20  22
ENDBRANCH   1  20
TORSDOF 4
ENDMDL
MODEL 4
REMARK VINA RESULT:      -8.4      5.021      9.685
REMARK  Name = 
REMARK  8 active torsions:
REMARK  status: ('A' for Active; 'I' for Inactive)
REMARK    1  A    between atoms: C_1  and  C_2
REMARK    2  A    between atoms: C_5  and  N_6
REMARK    3  A    between atoms: C_7  and  C_9
REMARK    4  A    between atoms: C_9  and  N_10
REMARK    5  A    between atoms: N_14  and  C_15
REMARK    6  A    between atoms: C_17  and  C_18
REMARK    7  A    between atoms: C_21  and  C_22
REMARK    8  A    between atoms: C_29  and  C_30
REMARK                            x       y       z     vdW  Elec       q    Type
REMARK                         _______ _______ _______ _____ _____    ______ ____
ROOT
ATOM      1  N   UNL     1       1.057  10.179  19.318  0.00  0.00    +0.000 N 
ATOM      2  C   UNL     1       1.289   8.911  18.822  0.00  0.00    +0.000 C 
ATOM      3  O   UNL     1       1.355   8.569  17.664  0.00  0.00    +0.000 OA
ATOM      4  C   UNL     1       1.452   8.031  20.078  0.00  0.00    +0.000 C 
ATOM      5  N   UNL     1       2.133   6.940  20.261  0.00  0.00    +0.000 NA
ATOM      6  C   UNL     1       0.823   8.807  21.152  0.00  0.00    +0.000 A 
ATOM      7  C   UNL     1       0.459   8.449  22.431  0.00  0.00    +0.000 A 
ATOM      8  C   UNL     1      -0.141   9.436  23.222  0.00  0.00    +0.000 A 
ATOM      9  C   UNL     1      -0.314  10.747  22.734  0.00  0.00    +0.000 A 
ATOM     10  C   UNL     1       0.106  11.098  21.449  0.00  0.00    +0.000 A 
ATOM     11  C   UNL     1       0.658  10.108  20.659  0.00  0.00    +0.000 A 
ENDROOT
BRANCH   5  12
ATOM     12  C   UNL     1       2.871   6.330  19.221  0.00  0.00    +0.000 A 
ATOM     13  C   UNL     1       4.065   6.875  18.725  0.00  0.00    +0.000 A 
ATOM     14  C   UNL     1       4.734   6.348  17.616  0.00  0.00    +0.000 A 
ATOM     15  C   UNL     1       5.879   7.101  17.008  0.00  0.00    +0.000 C 
ATOM     16  C   UNL     1       4.282   5.149  17.076  0.00  0.00    +0.000 A 
ATOM     17  C   UNL     1       3.171   4.512  17.630  0.00  0.00    +0.000 A 
ATOM     18  C   UNL     1       2.456   5.094  18.696  0.00  0.00    +0.000 A 
ATOM     19  C   UNL     1       1.272   4.370  19.269  0.00  0.00    +0.000 C 
ENDBRANCH   5  12
BRANCH   1  20
ATOM     20  C   UNL     1       1.035  11.351  18.476  0.00  0.00    +0.000 C 
BRANCH  20  22
ATOM     21  N   UNL     1      -1.435  11.116  18.244  0.00  0.00    +0.000 N 
ATOM     22  C   UNL     1      -0.353  11.988  18.272  0.00  0.00    +0.000 C 
ATOM     23  O   UNL     1      -0.417  13.213  18.162  0.00  0.00    +0.000 OA
ATOM     24  H   UNL     1      -1.232  10.153  18.460  0.00  0.00    +0.000 HD
BRANCH  21  29
ATOM     25  C   UNL     1      -7.026  12.382  17.600  0.00  0.00    +0.000 C 
ATOM     26  C   UNL     1      -5.564  12.088  17.752  0.00  0.00    +0.000 A 
ATOM     27  C   UNL     1      -4.914  12.316  18.958  0.00  0.00    +0.000 A 
ATOM     28  C   UNL     1      -3.559  12.006  19.104  0.00  0.00    +0.000 A 
ATOM     29  C   UNL     1      -2.805  11.457  18.057  0.00  0.00    +0.000 A 
ATOM     30  C   UNL     1      -3.445  11.264  16.812  0.00  0.00    +0.000 A 
ATOM     31  C   UNL     1      -2.793  10.711  15.572  0.00  0.00    +0.000 C 
ATOM     32  C   UNL     1      -4.821  11.572  16.685  0.00  0.00    +0.000 A 
ENDBRANCH  21  29
ENDBRANCH  20  22
ENDBRANCH   1  20
TORSDOF 4
ENDMDL
MODEL 5
REMARK VINA RESULT:      -8.3      7.417     11.430
REMARK  Name = 
REMARK  8 active torsions:
REMARK  status: ('A' for Active; 'I' for Inactive)
REMARK    1  A    between atoms: C_1  and  C_2
REMARK    2  A    between atoms: C_5  and  N_6
REMARK    3  A    between atoms: C_7  and  C_9
REMARK    4  A    between atoms: C_9  and  N_10
REMARK    5  A    between atoms: N_14  and  C_15
REMARK    6  A    between atoms: C_17  and  C_18
REMARK    7  A    between atoms: C_21  and  C_22
REMARK    8  A    between atoms: C_29  and  C_30
REMARK                            x       y       z     vdW  Elec       q    Type
REMARK                         _______ _______ _______ _____ _____    ______ ____
ROOT
ATOM      1  N   UNL     1      -3.021  12.375  19.446  0.00  0.00    +0.000 N 
ATOM      2  C   UNL     1      -2.954  12.629  20.802  0.00  0.00    +0.000 C 
ATOM      3  O   UNL     1      -1.974  12.615  21.511  0.00  0.00    +0.000 OA
ATOM      4  C   UNL     1      -4.409  12.941  21.207  0.00  0.00    +0.000 C 
ATOM      5  N   UNL     1      -4.877  13.690  22.161  0.00  0.00    +0.000 NA
ATOM      6  C   UNL     1      -5.220  12.366  20.129  0.00  0.00    +0.000 A 
ATOM      7  C   UNL     1      -6.575  12.128  20.046  0.00  0.00    +0.000 A 
ATOM      8  C   UNL     1      -7.047  11.547  18.863  0.00  0.00    +0.000 A 
ATOM      9  C   UNL     1      -6.171  11.268  17.795  0.00  0.00    +0.000 A 
ATOM     10  C   UNL     1      -4.808  11.560  17.886  0.00  0.00    +0.000 A 
ATOM     11  C   UNL     1      -4.342  12.094  19.071  0.00  0.00    +0.000 A 
ENDROOT
BRANCH   5  12
ATOM     12  C   UNL     1      -4.032  14.368  23.068  0.00  0.00    +0.000 A 
ATOM     13  C   UNL     1      -3.496  15.635  22.795  0.00  0.00    +0.000 A 
ATOM     14  C   UNL     1      -2.563  16.257  23.630  0.00  0.00    +0.000 A 
ATOM     15  C   UNL     1      -1.870  17.506  23.173  0.00  0.00    +0.000 C 
ATOM     16  C   UNL     1      -2.269  15.667  24.853  0.00  0.00    +0.000 A 
ATOM     17  C   UNL     1      -2.885  14.468  25.213  0.00  0.00    +0.000 A 
ATOM     18  C   UNL     1      -3.763  13.808  24.329  0.00  0.00    +0.000 A 
ATOM     19  C   UNL     1      -4.413  12.525  24.761  0.00  0.00    +0.000 C 
ENDBRANCH   5  12
BRANCH   1  20
ATOM     20  C   UNL     1      -1.845  12.223  18.624  0.00  0.00    +0.000 C 
BRANCH  20  22
ATOM     21  N   UNL     1       0.126  10.752  19.022  0.00  0.00    +0.000 N 
ATOM     22  C   UNL     1      -1.209  10.820  18.640  0.00  0.00    +0.000 C 
ATOM     23  O   UNL     1      -1.916   9.860  18.331  0.00  0.00    +0.000 OA
ATOM     24  H   UNL     1       0.535  11.611  19.353  0.00  0.00    +0.000 HD
BRANCH  21  29
ATOM     25  C   UNL     1       3.297   5.938  19.236  0.00  0.00    +0.000 C 
ATOM     26  C   UNL     1       2.504   7.209  19.195  0.00  0.00    +0.000 A 
ATOM     27  C   UNL     1       2.398   7.943  18.021  0.00  0.00    +0.000 A 
ATOM     28  C   UNL     1       1.628   9.109  17.979  0.00  0.00    +0.000 A 
ATOM     29  C   UNL     1       0.934   9.582  19.103  0.00  0.00    +0.000 A 
ATOM     30  C   UNL     1       1.073   8.868  20.314  0.00  0.00    +0.000 A 
ATOM     31  C   UNL     1       0.427   9.237  21.623  0.00  0.00    +0.000 C 
ATOM     32  C   UNL     1       1.848   7.683  20.336  0.00  0.00    +0.000 A 
ENDBRANCH  21  29
ENDBRANCH  20  22
ENDBRANCH   1  20
TORSDOF 4
ENDMDL
MODEL 6
REMARK VINA RESULT:      -8.2      5.907     10.303
REMARK  Name = 
REMARK  8 active torsions:
REMARK  status: ('A' for Active; 'I' for Inactive)
REMARK    1  A    between atoms: C_1  and  C_2
REMARK    2  A    between atoms: C_5  and  N_6
REMARK    3  A    between atoms: C_7  and  C_9
REMARK    4  A    between atoms: C_9  and  N_10
REMARK    5  A    between atoms: N_14  and  C_15
REMARK    6  A    between atoms: C_17  and  C_18
REMARK    7  A    between atoms: C_21  and  C_22
REMARK    8  A    between atoms: C_29  and  C_30
REMARK                            x       y       z     vdW  Elec       q    Type
REMARK                         _______ _______ _______ _____ _____    ______ ____
ROOT
ATOM      1  N   UNL     1      -0.254  10.839  21.271  0.00  0.00    +0.000 N 
ATOM      2  C   UNL     1      -1.041  11.507  22.190  0.00  0.00    +0.000 C 
ATOM      3  O   UNL     1      -1.017  11.409  23.395  0.00  0.00    +0.000 OA
ATOM      4  C   UNL     1      -1.951  12.409  21.333  0.00  0.00    +0.000 C 
ATOM      5  N   UNL     1      -2.507  13.551  21.607  0.00  0.00    +0.000 NA
ATOM      6  C   UNL     1      -1.909  11.806  19.996  0.00  0.00    +0.000 A 
ATOM      7  C   UNL     1      -2.689  12.024  18.881  0.00  0.00    +0.000 A 
ATOM      8  C   UNL     1      -2.396  11.266  17.742  0.00  0.00    +0.000 A 
ATOM      9  C   UNL     1      -1.318  10.358  17.735  0.00  0.00    +0.000 A 
ATOM     10  C   UNL     1      -0.512  10.188  18.863  0.00  0.00    +0.000 A 
ATOM     11  C   UNL     1      -0.833  10.908  19.998  0.00  0.00    +0.000 A 
ENDROOT
BRANCH   5  12
ATOM     12  C   UNL     1      -2.362  14.174  22.867  0.00  0.00    +0.000 A 
ATOM     13  C   UNL     1      -1.392  15.157  23.115  0.00  0.00    +0.000 A 
ATOM     14  C   UNL     1      -1.161  15.688  24.387  0.00  0.00    +0.000 A 
ATOM     15  C   UNL     1       0.029  16.570  24.623  0.00  0.00    +0.000 C 
ATOM     16  C   UNL     1      -2.026  15.341  25.419  0.00  0.00    +0.000 A 
ATOM     17  C   UNL     1      -3.083  14.463  25.174  0.00  0.00    +0.000 A 
ATOM     18  C   UNL     1      -3.258  13.871  23.908  0.00  0.00    +0.000 A 
ATOM     19  C   UNL     1      -4.415  12.940  23.685  0.00  0.00    +0.000 C 
ENDBRANCH   5  12
BRANCH   1  20
ATOM     20  C   UNL     1       0.874  10.028  21.659  0.00  0.00    +0.000 C 
BRANCH  20  22
ATOM     21  N   UNL     1       1.870   8.024  20.561  0.00  0.00    +0.000 N 
ATOM     22  C   UNL     1       0.785   8.543  21.258  0.00  0.00    +0.000 C 
ATOM     23  O   UNL     1      -0.222   7.914  21.587  0.00  0.00    +0.000 OA
ATOM     24  H   UNL     1       2.666   8.635  20.465  0.00  0.00    +0.000 HD
BRANCH  21  29
ATOM     25  C   UNL     1       2.579   2.608  18.707  0.00  0.00    +0.000 C 
ATOM     26  C   UNL     1       2.360   4.017  19.169  0.00  0.00    +0.000 A 
ATOM     27  C   UNL     1       1.803   4.279  20.415  0.00  0.00    +0.000 A 
ATOM     28  C   UNL     1       1.635   5.595  20.854  0.00  0.00    +0.000 A 
ATOM     29  C   UNL     1       2.018   6.695  20.073  0.00  0.00    +0.000 A 
ATOM     30  C   UNL     1       2.543   6.440  18.786  0.00  0.00    +0.000 A 
ATOM     31  C   UNL     1       2.983   7.490  17.800  0.00  0.00    +0.000 C 
ATOM     32  C   UNL     1       2.717   5.101  18.360  0.00  0.00    +0.000 A 
ENDBRANCH  21  29
ENDBRANCH  20  22
ENDBRANCH   1  20
TORSDOF 4
ENDMDL
MODEL 7
REMARK VINA RESULT:      -8.2      4.956      9.242
REMARK  Name = 
REMARK  8 active torsions:
REMARK  status: ('A' for Active; 'I' for Inactive)
REMARK    1  A    between atoms: C_1  and  C_2
REMARK    2  A    between atoms: C_5  and  N_6
REMARK    3  A    between atoms: C_7  and  C_9
REMARK    4  A    between atoms: C_9  and  N_10
REMARK    5  A    between atoms: N_14  and  C_15
REMARK    6  A    between atoms: C_17  and  C_18
REMARK    7  A    between atoms: C_21  and  C_22
REMARK    8  A    between atoms: C_29  and  C_30
REMARK                            x       y       z     vdW  Elec       q    Type
REMARK                         _______ _______ _______ _____ _____    ______ ____
ROOT
ATOM      1  N   UNL     1       0.495  10.376  19.271  0.00  0.00    +0.000 N 
ATOM      2  C   UNL     1       0.870  11.624  19.729  0.00  0.00    +0.000 C 
ATOM      3  O   UNL     1       1.674  11.885  20.594  0.00  0.00    +0.000 OA
ATOM      4  C   UNL     1       0.035  12.610  18.886  0.00  0.00    +0.000 C 
ATOM      5  N   UNL     1       0.287  13.831  18.521  0.00  0.00    +0.000 NA
ATOM      6  C   UNL     1      -1.072  11.800  18.368  0.00  0.00    +0.000 A 
ATOM      7  C   UNL     1      -2.249  12.167  17.752  0.00  0.00    +0.000 A 
ATOM      8  C   UNL     1      -3.120  11.137  17.378  0.00  0.00    +0.000 A 
ATOM      9  C   UNL     1      -2.773   9.786  17.585  0.00  0.00    +0.000 A 
ATOM     10  C   UNL     1      -1.553   9.437  18.171  0.00  0.00    +0.000 A 
ATOM     11  C   UNL     1      -0.718  10.460  18.576  0.00  0.00    +0.000 A 
ENDROOT
BRANCH   5  12
ATOM     12  C   UNL     1       1.467  14.504  18.910  0.00  0.00    +0.000 A 
ATOM     13  C   UNL     1       2.663  14.409  18.183  0.00  0.00    +0.000 A 
ATOM     14  C   UNL     1       3.865  14.969  18.626  0.00  0.00    +0.000 A 
ATOM     15  C   UNL     1       5.145  14.647  17.915  0.00  0.00    +0.000 C 
ATOM     16  C   UNL     1       3.843  15.779  19.755  0.00  0.00    +0.000 A 
ATOM     17  C   UNL     1       2.642  16.000  20.429  0.00  0.00    +0.000 A 
ATOM     18  C   UNL     1       1.452  15.366  20.021  0.00  0.00    +0.000 A 
ATOM     19  C   UNL     1       0.178  15.639  20.769  0.00  0.00    +0.000 C 
ENDBRANCH   5  12
BRANCH   1  20
ATOM     20  C   UNL     1       1.178   9.167  19.663  0.00  0.00    +0.000 C 
BRANCH  20  22
ATOM     21  N   UNL     1       2.559   7.254  18.862  0.00  0.00    +0.000 N 
ATOM     22  C   UNL     1       2.003   8.489  18.552  0.00  0.00    +0.000 C 
ATOM     23  O   UNL     1       2.105   9.070  17.470  0.00  0.00    +0.000 OA
ATOM     24  H   UNL     1       2.293   6.860  19.751  0.00  0.00    +0.000 HD
BRANCH  21  29
ATOM     25  C   UNL     1       5.795   4.068  15.304  0.00  0.00    +0.000 C 
ATOM     26  C   UNL     1       4.974   4.880  16.259  0.00  0.00    +0.000 A 
ATOM     27  C   UNL     1       5.312   6.196  16.548  0.00  0.00    +0.000 A 
ATOM     28  C   UNL     1       4.522   6.960  17.412  0.00  0.00    +0.000 A 
ATOM     29  C   UNL     1       3.367   6.442  18.016  0.00  0.00    +0.000 A 
ATOM     30  C   UNL     1       3.040   5.090  17.766  0.00  0.00    +0.000 A 
ATOM     31  C   UNL     1       1.857   4.358  18.343  0.00  0.00    +0.000 C 
ATOM     32  C   UNL     1       3.844   4.334  16.879  0.00  0.00    +0.000 A 
ENDBRANCH  21  29
ENDBRANCH  20  22
ENDBRANCH   1  20
TORSDOF 4
ENDMDL
MODEL 8
REMARK VINA RESULT:      -8.1      6.614     11.126
REMARK  Name = 
REMARK  8 active torsions:
REMARK  status: ('A' for Active; 'I' for Inactive)
REMARK    1  A    between atoms: C_1  and  C_2
REMARK    2  A    between atoms: C_5  and  N_6
REMARK    3  A    between atoms: C_7  and  C_9
REMARK    4  A    between atoms: C_9  and  N_10
REMARK    5  A    between atoms: N_14  and  C_15
REMARK    6  A    between atoms: C_17  and  C_18
REMARK    7  A    between atoms: C_21  and  C_22
REMARK    8  A    between atoms: C_29  and  C_30
REMARK                            x       y       z     vdW  Elec       q    Type
REMARK                         _______ _______ _______ _____ _____    ______ ____
ROOT
ATOM      1  N   UNL     1      -1.158  13.085  19.689  0.00  0.00    +0.000 N 
ATOM      2  C   UNL     1      -0.004  13.751  19.323  0.00  0.00    +0.000 C 
ATOM      3  O   UNL     1       0.677  13.567  18.340  0.00  0.00    +0.000 OA
ATOM      4  C   UNL     1       0.218  14.783  20.446  0.00  0.00    +0.000 C 
ATOM      5  N   UNL     1       0.799  15.945  20.422  0.00  0.00    +0.000 NA
ATOM      6  C   UNL     1      -0.571  14.274  21.573  0.00  0.00    +0.000 A 
ATOM      7  C   UNL     1      -0.586  14.634  22.903  0.00  0.00    +0.000 A 
ATOM      8  C   UNL     1      -1.463  13.936  23.741  0.00  0.00    +0.000 A 
ATOM      9  C   UNL     1      -2.322  12.945  23.225  0.00  0.00    +0.000 A 
ATOM     10  C   UNL     1      -2.322  12.629  21.864  0.00  0.00    +0.000 A 
ATOM     11  C   UNL     1      -1.423  13.291  21.050  0.00  0.00    +0.000 A 
ENDROOT
BRANCH   5  12
ATOM     12  C   UNL     1       1.393  16.464  19.249  0.00  0.00    +0.000 A 
ATOM     13  C   UNL     1       0.730  17.367  18.405  0.00  0.00    +0.000 A 
ATOM     14  C   UNL     1       1.259  17.788  17.182  0.00  0.00    +0.000 A 
ATOM     15  C   UNL     1       0.409  18.579  16.233  0.00  0.00    +0.000 C 
ATOM     16  C   UNL     1       2.559  17.418  16.858  0.00  0.00    +0.000 A 
ATOM     17  C   UNL     1       3.295  16.624  17.739  0.00  0.00    +0.000 A 
ATOM     18  C   UNL     1       2.723  16.138  18.931  0.00  0.00    +0.000 A 
ATOM     19  C   UNL     1       3.554  15.295  19.856  0.00  0.00    +0.000 C 
ENDBRANCH   5  12
BRANCH   1  20
ATOM     20  C   UNL     1      -1.832  12.158  18.814  0.00  0.00    +0.000 C 
BRANCH  20  22
ATOM     21  N   UNL     1       0.127  10.660  19.172  0.00  0.00    +0.000 N 
ATOM     22  C   UNL     1      -1.173  10.770  18.694  0.00  0.00    +0.000 C 
ATOM     23  O   UNL     1      -1.836   9.856  18.202  0.00  0.00    +0.000 OA
ATOM     24  H   UNL     1       0.493  11.470  19.648  0.00  0.00    +0.000 HD
BRANCH  21  29
ATOM     25  C   UNL     1       3.344   5.875  19.015  0.00  0.00    +0.000 C 
ATOM     26  C   UNL     1       2.539   7.138  19.070  0.00  0.00    +0.000 A 
ATOM     27  C   UNL     1       2.401   7.944  17.947  0.00  0.00    +0.000 A 
ATOM     28  C   UNL     1       1.620   9.102  17.996  0.00  0.00    +0.000 A 
ATOM     29  C   UNL     1       0.947   9.496  19.161  0.00  0.00    +0.000 A 
ATOM     30  C   UNL     1       1.118   8.708  20.322  0.00  0.00    +0.000 A 
ATOM     31  C   UNL     1       0.497   8.988  21.665  0.00  0.00    +0.000 C 
ATOM     32  C   UNL     1       1.903   7.532  20.252  0.00  0.00    +0.000 A 
ENDBRANCH  21  29
ENDBRANCH  20  22
ENDBRANCH   1  20
TORSDOF 4
ENDMDL
MODEL 9
REMARK VINA RESULT:      -7.9      4.935      9.022
REMARK  Name = 
REMARK  8 active torsions:
REMARK  status: ('A' for Active; 'I' for Inactive)
REMARK    1  A    between atoms: C_1  and  C_2
REMARK    2  A    between atoms: C_5  and  N_6
REMARK    3  A    between atoms: C_7  and  C_9
REMARK    4  A    between atoms: C_9  and  N_10
REMARK    5  A    between atoms: N_14  and  C_15
REMARK    6  A    between atoms: C_17  and  C_18
REMARK    7  A    between atoms: C_21  and  C_22
REMARK    8  A    between atoms: C_29  and  C_30
REMARK                            x       y       z     vdW  Elec       q    Type
REMARK                         _______ _______ _______ _____ _____    ______ ____
ROOT
ATOM      1  N   UNL     1       0.622  10.221  19.406  0.00  0.00    +0.000 N 
ATOM      2  C   UNL     1       0.844  11.383  20.120  0.00  0.00    +0.000 C 
ATOM      3  O   UNL     1       1.452  11.511  21.157  0.00  0.00    +0.000 OA
ATOM      4  C   UNL     1       0.147  12.482  19.292  0.00  0.00    +0.000 C 
ATOM      5  N   UNL     1       0.410  13.749  19.181  0.00  0.00    +0.000 NA
ATOM      6  C   UNL     1      -0.802  11.753  18.443  0.00  0.00    +0.000 A 
ATOM      7  C   UNL     1      -1.851  12.200  17.670  0.00  0.00    +0.000 A 
ATOM      8  C   UNL     1      -2.585  11.233  16.973  0.00  0.00    +0.000 A 
ATOM      9  C   UNL     1      -2.225   9.871  17.031  0.00  0.00    +0.000 A 
ATOM     10  C   UNL     1      -1.128   9.447  17.786  0.00  0.00    +0.000 A 
ATOM     11  C   UNL     1      -0.435  10.401  18.505  0.00  0.00    +0.000 A 
ENDROOT
BRANCH   5  12
ATOM     12  C   UNL     1       1.461  14.365  19.898  0.00  0.00    +0.000 A 
ATOM     13  C   UNL     1       1.264  14.978  21.144  0.00  0.00    +0.000 A 
ATOM     14  C   UNL     1       2.267  15.696  21.801  0.00  0.00    +0.000 A 
ATOM     15  C   UNL     1       1.931  16.505  23.018  0.00  0.00    +0.000 C 
ATOM     16  C   UNL     1       3.553  15.675  21.273  0.00  0.00    +0.000 A 
ATOM     17  C   UNL     1       3.811  14.965  20.100  0.00  0.00    +0.000 A 
ATOM     18  C   UNL     1       2.775  14.312  19.402  0.00  0.00    +0.000 A 
ATOM     19  C   UNL     1       3.098  13.550  18.149  0.00  0.00    +0.000 C 
ENDBRANCH   5  12
BRANCH   1  20
ATOM     20  C   UNL     1       1.269   8.974  19.732  0.00  0.00    +0.000 C 
BRANCH  20  22
ATOM     21  N   UNL     1       2.632   7.089  18.837  0.00  0.00    +0.000 N 
ATOM     22  C   UNL     1       2.120   8.360  18.603  0.00  0.00    +0.000 C 
ATOM     23  O   UNL     1       2.278   9.018  17.574  0.00  0.00    +0.000 OA
ATOM     24  H   UNL     1       2.321   6.636  19.682  0.00  0.00    +0.000 HD
BRANCH  21  29
ATOM     25  C   UNL     1       5.910   4.088  15.160  0.00  0.00    +0.000 C 
ATOM     26  C   UNL     1       5.079   4.852  16.146  0.00  0.00    +0.000 A 
ATOM     27  C   UNL     1       5.386   6.168  16.466  0.00  0.00    +0.000 A 
ATOM     28  C   UNL     1       4.585   6.886  17.359  0.00  0.00    +0.000 A 
ATOM     29  C   UNL     1       3.451   6.322  17.961  0.00  0.00    +0.000 A 
ATOM     30  C   UNL     1       3.156   4.970  17.677  0.00  0.00    +0.000 A 
ATOM     31  C   UNL     1       2.000   4.191  18.246  0.00  0.00    +0.000 C 
ATOM     32  C   UNL     1       3.971   4.260  16.761  0.00  0.00    +0.000 A 
ENDBRANCH  21  29
ENDBRANCH  20  22
ENDBRANCH   1  20
TORSDOF 4
ENDMDL
