MODEL 1
REMARK VINA RESULT:      -8.7      0.000      0.000
REMARK  Name = 
REMARK  2 active torsions:
REMARK  status: ('A' for Active; 'I' for Inactive)
REMARK    1  A    between atoms: C_2  and  C_16
REMARK    2  A    between atoms: C_8  and  C_9
REMARK                            x       y       z     vdW  Elec       q    Type
REMARK                         _______ _______ _______ _____ _____    ______ ____
ROOT
ATOM      1  O   UNL     1       2.521   7.791  18.909  0.00  0.00    +0.000 OA
ATOM      2  C   UNL     1       1.943   7.540  19.963  0.00  0.00    +0.000 C 
ATOM      3  N   UNL     1       1.975   6.339  20.639  0.00  0.00    +0.000 N 
ATOM      4  C   UNL     1       2.691   5.209  20.214  0.00  0.00    +0.000 A 
ATOM      5  C   UNL     1       2.448   4.013  20.854  0.00  0.00    +0.000 A 
ATOM      6  C   UNL     1       3.150   2.927  20.386  0.00  0.00    +0.000 A 
ATOM      7  N   UNL     1       4.041   2.994  19.383  0.00  0.00    +0.000 NA
ATOM      8  C   UNL     1       4.225   4.206  18.829  0.00  0.00    +0.000 A 
ATOM      9  N   UNL     1       3.577   5.313  19.219  0.00  0.00    +0.000 NA
ATOM     10  H   UNL     1       1.381   6.229  21.448  0.00  0.00    +0.000 HD
ENDROOT
BRANCH   2  11
ATOM     11  C   UNL     1       1.140   8.643  20.575  0.00  0.00    +0.000 A 
ATOM     12  C   UNL     1       1.095   8.650  21.986  0.00  0.00    +0.000 A 
ATOM     13  C   UNL     1       0.420   9.652  22.684  0.00  0.00    +0.000 A 
ATOM     14  C   UNL     1      -0.220  10.669  21.983  0.00  0.00    +0.000 A 
ATOM     15  C   UNL     1      -0.190  10.676  20.590  0.00  0.00    +0.000 A 
ATOM     16  C   UNL     1       0.486   9.672  19.882  0.00  0.00    +0.000 A 
ATOM     17 CL   UNL     1       0.476   9.820  18.157  0.00  0.00    +0.000 Cl
ENDBRANCH   2  11
BRANCH   8  18
ATOM     18  C   UNL     1       5.184   4.342  17.729  0.00  0.00    +0.000 A 
ATOM     19  C   UNL     1       4.812   4.194  16.380  0.00  0.00    +0.000 A 
ATOM     20  C   UNL     1       5.755   4.321  15.362  0.00  0.00    +0.000 A 
ATOM     21  C   UNL     1       7.066   4.591  15.713  0.00  0.00    +0.000 A 
ATOM     22  N   UNL     1       7.480   4.747  16.987  0.00  0.00    +0.000 NA
ATOM     23  C   UNL     1       6.532   4.618  17.954  0.00  0.00    +0.000 A 
ENDBRANCH   8  18
TORSDOF 2
ENDMDL
MODEL 2
REMARK VINA RESULT:      -8.6      4.232      5.654
REMARK  Name = 
REMARK  2 active torsions:
REMARK  status: ('A' for Active; 'I' for Inactive)
REMARK    1  A    between atoms: C_2  and  C_16
REMARK    2  A    between atoms: C_8  and  C_9
REMARK                            x       y       z     vdW  Elec       q    Type
REMARK                         _______ _______ _______ _____ _____    ______ ____
ROOT
ATOM      1  O   UNL     1       4.020   3.054  17.509  0.00  0.00    +0.000 OA
ATOM      2  C   UNL     1       4.047   3.765  18.510  0.00  0.00    +0.000 C 
ATOM      3  N   UNL     1       4.868   4.856  18.708  0.00  0.00    +0.000 N 
ATOM      4  C   UNL     1       5.805   5.322  17.774  0.00  0.00    +0.000 A 
ATOM      5  C   UNL     1       6.716   6.269  18.191  0.00  0.00    +0.000 A 
ATOM      6  C   UNL     1       7.633   6.676  17.250  0.00  0.00    +0.000 A 
ATOM      7  N   UNL     1       7.658   6.217  15.988  0.00  0.00    +0.000 NA
ATOM      8  C   UNL     1       6.720   5.308  15.667  0.00  0.00    +0.000 A 
ATOM      9  N   UNL     1       5.795   4.851  16.523  0.00  0.00    +0.000 NA
ATOM     10  H   UNL     1       4.861   5.303  19.613  0.00  0.00    +0.000 HD
ENDROOT
BRANCH   2  11
ATOM     11  C   UNL     1       3.094   3.424  19.611  0.00  0.00    +0.000 A 
ATOM     12  C   UNL     1       1.819   4.021  19.517  0.00  0.00    +0.000 A 
ATOM     13  C   UNL     1       0.821   3.748  20.453  0.00  0.00    +0.000 A 
ATOM     14  C   UNL     1       1.079   2.870  21.500  0.00  0.00    +0.000 A 
ATOM     15  C   UNL     1       2.335   2.274  21.612  0.00  0.00    +0.000 A 
ATOM     16  C   UNL     1       3.343   2.544  20.675  0.00  0.00    +0.000 A 
ATOM     17 CL   UNL     1       4.841   1.711  20.910  0.00  0.00    +0.000 Cl
ENDBRANCH   2  11
BRANCH   8  18
ATOM     18  C   UNL     1       6.697   4.769  14.303  0.00  0.00    +0.000 A 
ATOM     19  C   UNL     1       5.723   3.849  13.871  0.00  0.00    +0.000 A 
ATOM     20  C   UNL     1       5.739   3.351  12.571  0.00  0.00    +0.000 A 
ATOM     21  C   UNL     1       6.740   3.781  11.717  0.00  0.00    +0.000 A 
ATOM     22  N   UNL     1       7.696   4.662  12.073  0.00  0.00    +0.000 NA
ATOM     23  C   UNL     1       7.648   5.129  13.350  0.00  0.00    +0.000 A 
ENDBRANCH   8  18
TORSDOF 2
ENDMDL
MODEL 3
REMARK VINA RESULT:      -8.5      0.638      1.060
REMARK  Name = 
REMARK  2 active torsions:
REMARK  status: ('A' for Active; 'I' for Inactive)
REMARK    1  A    between atoms: C_2  and  C_16
REMARK    2  A    between atoms: C_8  and  C_9
REMARK                            x       y       z     vdW  Elec       q    Type
REMARK                         _______ _______ _______ _____ _____    ______ ____
ROOT
ATOM      1  O   UNL     1       2.472   7.781  19.083  0.00  0.00    +0.000 OA
ATOM      2  C   UNL     1       1.831   7.563  20.108  0.00  0.00    +0.000 C 
ATOM      3  N   UNL     1       1.791   6.372  20.802  0.00  0.00    +0.000 N 
ATOM      4  C   UNL     1       2.496   5.217  20.434  0.00  0.00    +0.000 A 
ATOM      5  C   UNL     1       2.185   4.038  21.077  0.00  0.00    +0.000 A 
ATOM      6  C   UNL     1       2.880   2.925  20.664  0.00  0.00    +0.000 A 
ATOM      7  N   UNL     1       3.826   2.951  19.709  0.00  0.00    +0.000 NA
ATOM      8  C   UNL     1       4.073   4.148  19.149  0.00  0.00    +0.000 A 
ATOM      9  N   UNL     1       3.438   5.279  19.487  0.00  0.00    +0.000 NA
ATOM     10  H   UNL     1       1.152   6.292  21.579  0.00  0.00    +0.000 HD
ENDROOT
BRANCH   2  11
ATOM     11  C   UNL     1       1.028   8.698  20.660  0.00  0.00    +0.000 A 
ATOM     12  C   UNL     1       0.931   8.746  22.067  0.00  0.00    +0.000 A 
ATOM     13  C   UNL     1       0.251   9.780  22.711  0.00  0.00    +0.000 A 
ATOM     14  C   UNL     1      -0.342  10.788  21.960  0.00  0.00    +0.000 A 
ATOM     15  C   UNL     1      -0.262  10.755  20.569  0.00  0.00    +0.000 A 
ATOM     16  C   UNL     1       0.420   9.718  19.914  0.00  0.00    +0.000 A 
ATOM     17 CL   UNL     1       0.476   9.818  18.187  0.00  0.00    +0.000 Cl
ENDBRANCH   2  11
BRANCH   8  18
ATOM     18  C   UNL     1       5.094   4.240  18.101  0.00  0.00    +0.000 A 
ATOM     19  C   UNL     1       6.404   4.685  18.359  0.00  0.00    +0.000 A 
ATOM     20  C   UNL     1       7.344   4.769  17.334  0.00  0.00    +0.000 A 
ATOM     21  C   UNL     1       6.955   4.407  16.057  0.00  0.00    +0.000 A 
ATOM     22  N   UNL     1       5.716   3.969  15.750  0.00  0.00    +0.000 NA
ATOM     23  C   UNL     1       4.825   3.899  16.776  0.00  0.00    +0.000 A 
ENDBRANCH   8  18
TORSDOF 2
ENDMDL
MODEL 4
REMARK VINA RESULT:      -8.5      4.235      5.694
REMARK  Name = 
REMARK  2 active torsions:
REMARK  status: ('A' for Active; 'I' for Inactive)
REMARK    1  A    between atoms: C_2  and  C_16
REMARK    2  A    between atoms: C_8  and  C_9
REMARK                            x       y       z     vdW  Elec       q    Type
REMARK                         _______ _______ _______ _____ _____    ______ ____
ROOT
ATOM      1  O   UNL     1       4.067   3.070  17.520  0.00  0.00    +0.000 OA
ATOM      2  C   UNL     1       4.070   3.785  18.518  0.00  0.00    +0.000 C 
ATOM      3  N   UNL     1       4.874   4.887  18.723  0.00  0.00    +0.000 N 
ATOM      4  C   UNL     1       5.818   5.362  17.800  0.00  0.00    +0.000 A 
ATOM      5  C   UNL     1       6.711   6.322  18.226  0.00  0.00    +0.000 A 
ATOM      6  C   UNL     1       7.636   6.737  17.296  0.00  0.00    +0.000 A 
ATOM      7  N   UNL     1       7.684   6.273  16.036  0.00  0.00    +0.000 NA
ATOM      8  C   UNL     1       6.764   5.350  15.706  0.00  0.00    +0.000 A 
ATOM      9  N   UNL     1       5.832   4.885  16.551  0.00  0.00    +0.000 NA
ATOM     10  H   UNL     1       4.848   5.338  19.626  0.00  0.00    +0.000 HD
ENDROOT
BRANCH   2  11
ATOM     11  C   UNL     1       3.106   3.436  19.607  0.00  0.00    +0.000 A 
ATOM     12  C   UNL     1       1.828   4.025  19.498  0.00  0.00    +0.000 A 
ATOM     13  C   UNL     1       0.821   3.745  20.422  0.00  0.00    +0.000 A 
ATOM     14  C   UNL     1       1.072   2.867  21.471  0.00  0.00    +0.000 A 
ATOM     15  C   UNL     1       2.330   2.280  21.597  0.00  0.00    +0.000 A 
ATOM     16  C   UNL     1       3.347   2.557  20.673  0.00  0.00    +0.000 A 
ATOM     17 CL   UNL     1       4.848   1.733  20.925  0.00  0.00    +0.000 Cl
ENDBRANCH   2  11
BRANCH   8  18
ATOM     18  C   UNL     1       6.767   4.805  14.345  0.00  0.00    +0.000 A 
ATOM     19  C   UNL     1       7.679   5.231  13.362  0.00  0.00    +0.000 A 
ATOM     20  C   UNL     1       7.644   4.696  12.076  0.00  0.00    +0.000 A 
ATOM     21  C   UNL     1       6.686   3.739  11.790  0.00  0.00    +0.000 A 
ATOM     22  N   UNL     1       5.789   3.290  12.692  0.00  0.00    +0.000 NA
ATOM     23  C   UNL     1       5.854   3.833  13.937  0.00  0.00    +0.000 A 
ENDBRANCH   8  18
TORSDOF 2
ENDMDL
MODEL 5
REMARK VINA RESULT:      -8.5      4.224      5.419
REMARK  Name = 
REMARK  2 active torsions:
REMARK  status: ('A' for Active; 'I' for Inactive)
REMARK    1  A    between atoms: C_2  and  C_16
REMARK    2  A    between atoms: C_8  and  C_9
REMARK                            x       y       z     vdW  Elec       q    Type
REMARK                         _______ _______ _______ _____ _____    ______ ____
ROOT
ATOM      1  O   UNL     1       3.990   2.965  17.353  0.00  0.00    +0.000 OA
ATOM      2  C   UNL     1       3.963   3.659  18.366  0.00  0.00    +0.000 C 
ATOM      3  N   UNL     1       4.753   4.761  18.616  0.00  0.00    +0.000 N 
ATOM      4  C   UNL     1       5.717   5.262  17.729  0.00  0.00    +0.000 A 
ATOM      5  C   UNL     1       6.591   6.219  18.199  0.00  0.00    +0.000 A 
ATOM      6  C   UNL     1       7.538   6.660  17.304  0.00  0.00    +0.000 A 
ATOM      7  N   UNL     1       7.623   6.224  16.036  0.00  0.00    +0.000 NA
ATOM      8  C   UNL     1       6.718   5.303  15.661  0.00  0.00    +0.000 A 
ATOM      9  N   UNL     1       5.767   4.814  16.471  0.00  0.00    +0.000 NA
ATOM     10  H   UNL     1       4.700   5.192  19.528  0.00  0.00    +0.000 HD
ENDROOT
BRANCH   2  11
ATOM     11  C   UNL     1       2.973   3.279  19.421  0.00  0.00    +0.000 A 
ATOM     12  C   UNL     1       3.525   2.812  20.633  0.00  0.00    +0.000 A 
ATOM     13  C   UNL     1       2.713   2.470  21.715  0.00  0.00    +0.000 A 
ATOM     14  C   UNL     1       1.332   2.592  21.606  0.00  0.00    +0.000 A 
ATOM     15  C   UNL     1       0.768   3.047  20.415  0.00  0.00    +0.000 A 
ATOM     16  C   UNL     1       1.578   3.392  19.324  0.00  0.00    +0.000 A 
ATOM     17 CL   UNL     1       0.752   3.977  17.919  0.00  0.00    +0.000 Cl
ENDBRANCH   2  11
BRANCH   8  18
ATOM     18  C   UNL     1       6.760   4.788  14.289  0.00  0.00    +0.000 A 
ATOM     19  C   UNL     1       5.868   3.804  13.824  0.00  0.00    +0.000 A 
ATOM     20  C   UNL     1       5.945   3.332  12.516  0.00  0.00    +0.000 A 
ATOM     21  C   UNL     1       6.925   3.852  11.689  0.00  0.00    +0.000 A 
ATOM     22  N   UNL     1       7.805   4.798  12.077  0.00  0.00    +0.000 NA
ATOM     23  C   UNL     1       7.698   5.237  13.360  0.00  0.00    +0.000 A 
ENDBRANCH   8  18
TORSDOF 2
ENDMDL
MODEL 6
REMARK VINA RESULT:      -8.4      4.211      5.455
REMARK  Name = 
REMARK  2 active torsions:
REMARK  status: ('A' for Active; 'I' for Inactive)
REMARK    1  A    between atoms: C_2  and  C_16
REMARK    2  A    between atoms: C_8  and  C_9
REMARK                            x       y       z     vdW  Elec       q    Type
REMARK                         _______ _______ _______ _____ _____    ______ ____
ROOT
ATOM      1  O   UNL     1       4.035   3.001  17.350  0.00  0.00    +0.000 OA
ATOM      2  C   UNL     1       3.989   3.696  18.362  0.00  0.00    +0.000 C 
ATOM      3  N   UNL     1       4.770   4.802  18.622  0.00  0.00    +0.000 N 
ATOM      4  C   UNL     1       5.745   5.307  17.748  0.00  0.00    +0.000 A 
ATOM      5  C   UNL     1       6.607   6.268  18.231  0.00  0.00    +0.000 A 
ATOM      6  C   UNL     1       7.565   6.713  17.349  0.00  0.00    +0.000 A 
ATOM      7  N   UNL     1       7.671   6.276  16.083  0.00  0.00    +0.000 NA
ATOM      8  C   UNL     1       6.776   5.350  15.696  0.00  0.00    +0.000 A 
ATOM      9  N   UNL     1       5.816   4.857  16.492  0.00  0.00    +0.000 NA
ATOM     10  H   UNL     1       4.701   5.234  19.532  0.00  0.00    +0.000 HD
ENDROOT
BRANCH   2  11
ATOM     11  C   UNL     1       2.985   3.313  19.402  0.00  0.00    +0.000 A 
ATOM     12  C   UNL     1       3.521   2.838  20.618  0.00  0.00    +0.000 A 
ATOM     13  C   UNL     1       2.695   2.492  21.688  0.00  0.00    +0.000 A 
ATOM     14  C   UNL     1       1.316   2.618  21.562  0.00  0.00    +0.000 A 
ATOM     15  C   UNL     1       0.767   3.080  20.367  0.00  0.00    +0.000 A 
ATOM     16  C   UNL     1       1.592   3.429  19.288  0.00  0.00    +0.000 A 
ATOM     17 CL   UNL     1       0.784   4.023  17.876  0.00  0.00    +0.000 Cl
ENDBRANCH   2  11
BRANCH   8  18
ATOM     18  C   UNL     1       6.841   4.833  14.325  0.00  0.00    +0.000 A 
ATOM     19  C   UNL     1       7.724   5.356  13.362  0.00  0.00    +0.000 A 
ATOM     20  C   UNL     1       7.750   4.845  12.066  0.00  0.00    +0.000 A 
ATOM     21  C   UNL     1       6.883   3.814  11.751  0.00  0.00    +0.000 A 
ATOM     22  N   UNL     1       6.018   3.271  12.632  0.00  0.00    +0.000 NA
ATOM     23  C   UNL     1       6.022   3.793  13.888  0.00  0.00    +0.000 A 
ENDBRANCH   8  18
TORSDOF 2
ENDMDL
MODEL 7
REMARK VINA RESULT:      -8.3      1.246      1.308
REMARK  Name = 
REMARK  2 active torsions:
REMARK  status: ('A' for Active; 'I' for Inactive)
REMARK    1  A    between atoms: C_2  and  C_16
REMARK    2  A    between atoms: C_8  and  C_9
REMARK                            x       y       z     vdW  Elec       q    Type
REMARK                         _______ _______ _______ _____ _____    ______ ____
ROOT
ATOM      1  O   UNL     1       1.816   8.456  19.032  0.00  0.00    +0.000 OA
ATOM      2  C   UNL     1       1.438   8.195  20.170  0.00  0.00    +0.000 C 
ATOM      3  N   UNL     1       1.621   6.998  20.831  0.00  0.00    +0.000 N 
ATOM      4  C   UNL     1       2.285   5.887  20.289  0.00  0.00    +0.000 A 
ATOM      5  C   UNL     1       2.191   4.688  20.963  0.00  0.00    +0.000 A 
ATOM      6  C   UNL     1       2.832   3.620  20.380  0.00  0.00    +0.000 A 
ATOM      7  N   UNL     1       3.533   3.706  19.237  0.00  0.00    +0.000 NA
ATOM      8  C   UNL     1       3.582   4.919  18.659  0.00  0.00    +0.000 A 
ATOM      9  N   UNL     1       2.981   6.010  19.155  0.00  0.00    +0.000 NA
ATOM     10  H   UNL     1       1.181   6.876  21.732  0.00  0.00    +0.000 HD
ENDROOT
BRANCH   2  11
ATOM     11  C   UNL     1       0.723   9.278  20.913  0.00  0.00    +0.000 A 
ATOM     12  C   UNL     1       0.132   8.890  22.134  0.00  0.00    +0.000 A 
ATOM     13  C   UNL     1      -0.524   9.814  22.948  0.00  0.00    +0.000 A 
ATOM     14  C   UNL     1      -0.600  11.146  22.555  0.00  0.00    +0.000 A 
ATOM     15  C   UNL     1      -0.027  11.548  21.350  0.00  0.00    +0.000 A 
ATOM     16  C   UNL     1       0.634  10.624  20.527  0.00  0.00    +0.000 A 
ATOM     17 CL   UNL     1       1.331  11.261  19.077  0.00  0.00    +0.000 Cl
ENDBRANCH   2  11
BRANCH   8  18
ATOM     18  C   UNL     1       4.331   5.076  17.408  0.00  0.00    +0.000 A 
ATOM     19  C   UNL     1       4.774   3.977  16.650  0.00  0.00    +0.000 A 
ATOM     20  C   UNL     1       5.492   4.166  15.471  0.00  0.00    +0.000 A 
ATOM     21  C   UNL     1       5.762   5.462  15.069  0.00  0.00    +0.000 A 
ATOM     22  N   UNL     1       5.360   6.554  15.752  0.00  0.00    +0.000 NA
ATOM     23  C   UNL     1       4.660   6.331  16.897  0.00  0.00    +0.000 A 
ENDBRANCH   8  18
TORSDOF 2
ENDMDL
MODEL 8
REMARK VINA RESULT:      -8.1      1.186      1.307
REMARK  Name = 
REMARK  2 active torsions:
REMARK  status: ('A' for Active; 'I' for Inactive)
REMARK    1  A    between atoms: C_2  and  C_16
REMARK    2  A    between atoms: C_8  and  C_9
REMARK                            x       y       z     vdW  Elec       q    Type
REMARK                         _______ _______ _______ _____ _____    ______ ____
ROOT
ATOM      1  O   UNL     1       1.859   8.415  19.119  0.00  0.00    +0.000 OA
ATOM      2  C   UNL     1       1.449   8.147  20.245  0.00  0.00    +0.000 C 
ATOM      3  N   UNL     1       1.593   6.940  20.895  0.00  0.00    +0.000 N 
ATOM      4  C   UNL     1       2.248   5.822  20.355  0.00  0.00    +0.000 A 
ATOM      5  C   UNL     1       2.115   4.617  21.011  0.00  0.00    +0.000 A 
ATOM      6  C   UNL     1       2.749   3.543  20.430  0.00  0.00    +0.000 A 
ATOM      7  N   UNL     1       3.478   3.630  19.305  0.00  0.00    +0.000 NA
ATOM      8  C   UNL     1       3.565   4.849  18.744  0.00  0.00    +0.000 A 
ATOM      9  N   UNL     1       2.973   5.946  19.239  0.00  0.00    +0.000 NA
ATOM     10  H   UNL     1       1.129   6.815  21.783  0.00  0.00    +0.000 HD
ENDROOT
BRANCH   2  11
ATOM     11  C   UNL     1       0.737   9.235  20.984  0.00  0.00    +0.000 A 
ATOM     12  C   UNL     1       0.216   8.873  22.244  0.00  0.00    +0.000 A 
ATOM     13  C   UNL     1      -0.429   9.807  23.057  0.00  0.00    +0.000 A 
ATOM     14  C   UNL     1      -0.562  11.121  22.625  0.00  0.00    +0.000 A 
ATOM     15  C   UNL     1      -0.058  11.497  21.380  0.00  0.00    +0.000 A 
ATOM     16  C   UNL     1       0.591  10.564  20.559  0.00  0.00    +0.000 A 
ATOM     17 CL   UNL     1       1.201  11.170  19.057  0.00  0.00    +0.000 Cl
ENDBRANCH   2  11
BRANCH   8  18
ATOM     18  C   UNL     1       4.347   5.007  17.513  0.00  0.00    +0.000 A 
ATOM     19  C   UNL     1       4.567   6.261  16.914  0.00  0.00    +0.000 A 
ATOM     20  C   UNL     1       5.307   6.370  15.739  0.00  0.00    +0.000 A 
ATOM     21  C   UNL     1       5.815   5.213  15.175  0.00  0.00    +0.000 A 
ATOM     22  N   UNL     1       5.639   3.985  15.705  0.00  0.00    +0.000 NA
ATOM     23  C   UNL     1       4.913   3.917  16.854  0.00  0.00    +0.000 A 
ENDBRANCH   8  18
TORSDOF 2
ENDMDL
MODEL 9
REMARK VINA RESULT:      -7.9      1.238      1.728
REMARK  Name = 
REMARK  2 active torsions:
REMARK  status: ('A' for Active; 'I' for Inactive)
REMARK    1  A    between atoms: C_2  and  C_16
REMARK    2  A    between atoms: C_8  and  C_9
REMARK                            x       y       z     vdW  Elec       q    Type
REMARK                         _______ _______ _______ _____ _____    ______ ____
ROOT
ATOM      1  O   UNL     1       2.513   8.206  18.066  0.00  0.00    +0.000 OA
ATOM      2  C   UNL     1       1.893   8.132  19.123  0.00  0.00    +0.000 C 
ATOM      3  N   UNL     1       1.893   7.059  19.990  0.00  0.00    +0.000 N 
ATOM      4  C   UNL     1       2.620   5.877  19.787  0.00  0.00    +0.000 A 
ATOM      5  C   UNL     1       2.346   4.803  20.607  0.00  0.00    +0.000 A 
ATOM      6  C   UNL     1       3.062   3.655  20.354  0.00  0.00    +0.000 A 
ATOM      7  N   UNL     1       3.993   3.557  19.390  0.00  0.00    +0.000 NA
ATOM      8  C   UNL     1       4.203   4.661  18.651  0.00  0.00    +0.000 A 
ATOM      9  N   UNL     1       3.546   5.816  18.825  0.00  0.00    +0.000 NA
ATOM     10  H   UNL     1       1.267   7.084  20.782  0.00  0.00    +0.000 HD
ENDROOT
BRANCH   2  11
ATOM     11  C   UNL     1       1.071   9.319  19.511  0.00  0.00    +0.000 A 
ATOM     12  C   UNL     1       0.450  10.003  18.445  0.00  0.00    +0.000 A 
ATOM     13  C   UNL     1      -0.383  11.100  18.674  0.00  0.00    +0.000 A 
ATOM     14  C   UNL     1      -0.611  11.530  19.976  0.00  0.00    +0.000 A 
ATOM     15  C   UNL     1      -0.002  10.871  21.043  0.00  0.00    +0.000 A 
ATOM     16  C   UNL     1       0.836   9.769  20.819  0.00  0.00    +0.000 A 
ATOM     17 CL   UNL     1       1.498   9.019  22.232  0.00  0.00    +0.000 Cl
ENDBRANCH   2  11
BRANCH   8  18
ATOM     18  C   UNL     1       5.207   4.615  17.583  0.00  0.00    +0.000 A 
ATOM     19  C   UNL     1       4.860   4.472  16.226  0.00  0.00    +0.000 A 
ATOM     20  C   UNL     1       5.842   4.422  15.240  0.00  0.00    +0.000 A 
ATOM     21  C   UNL     1       7.167   4.512  15.629  0.00  0.00    +0.000 A 
ATOM     22  N   UNL     1       7.559   4.654  16.912  0.00  0.00    +0.000 NA
ATOM     23  C   UNL     1       6.573   4.700  17.848  0.00  0.00    +0.000 A 
ENDBRANCH   8  18
TORSDOF 2
ENDMDL
