MODEL 1
REMARK VINA RESULT:      -6.8      0.000      0.000
REMARK  Name = 
REMARK  6 active torsions:
REMARK  status: ('A' for Active; 'I' for Inactive)
REMARK    1  A    between atoms: C_2  and  C_3
REMARK    2  A    between atoms: C_3  and  C_4
REMARK    3  A    between atoms: C_3  and  N_11
REMARK    4  A    between atoms: C_4  and  O_5
REMARK    5  A    between atoms: O_5  and  C_6
REMARK    6  A    between atoms: C_6  and  P_7
REMARK                            x       y       z     vdW  Elec       q    Type
REMARK                         _______ _______ _______ _____ _____    ______ ____
ROOT
ATOM      1  N   UNL     1       2.338   5.970  19.078  0.00  0.00    +0.000 N 
ATOM      2  C   UNL     1       2.195   6.367  20.374  0.00  0.00    +0.000 A 
ATOM      3  N   UNL     1       1.903   5.366  21.180  0.00  0.00    +0.000 NA
ATOM      4  C   UNL     1       1.855   4.262  20.353  0.00  0.00    +0.000 A 
ATOM      5  C   UNL     1       1.642   2.900  20.614  0.00  0.00    +0.000 A 
ATOM      6  N   UNL     1       1.476   2.413  21.905  0.00  0.00    +0.000 N 
ATOM      7  N   UNL     1       1.602   2.038  19.572  0.00  0.00    +0.000 NA
ATOM      8  C   UNL     1       1.788   2.547  18.319  0.00  0.00    +0.000 A 
ATOM      9  N   UNL     1       2.035   3.809  17.963  0.00  0.00    +0.000 NA
ATOM     10  C   UNL     1       2.062   4.625  19.033  0.00  0.00    +0.000 A 
ATOM     11  H   UNL     1       1.235   3.130  22.581  0.00  0.00    +0.000 HD
ATOM     12  H   UNL     1       0.983   1.533  21.934  0.00  0.00    +0.000 HD
ENDROOT
BRANCH   1  13
ATOM     13  C   UNL     1       2.745   6.780  17.945  0.00  0.00    +0.000 C 
BRANCH  13  15
ATOM     14  C   UNL     1       1.447   8.931  17.619  0.00  0.00    +0.000 C 
ATOM     15  C   UNL     1       2.458   8.259  18.191  0.00  0.00    +0.000 C 
ENDBRANCH  13  15
BRANCH  13  16
ATOM     16  C   UNL     1       4.241   6.578  17.594  0.00  0.00    +0.000 C 
BRANCH  16  17
ATOM     17  O   UNL     1       4.544   5.553  16.653  0.00  0.00    +0.000 OA
BRANCH  17  18
ATOM     18  C   UNL     1       5.471   4.555  17.100  0.00  0.00    +0.000 C 
BRANCH  18  19
ATOM     19  P   UNL     1       7.157   5.213  17.553  0.00  0.00    +0.000 P 
ATOM     20  O   UNL     1       7.274   5.325  19.048  0.00  0.00    +0.000 OA
ATOM     21  O   UNL     1       8.113   4.177  16.957  0.00  0.00    +0.000 OA
ATOM     22  O   UNL     1       7.572   6.523  16.843  0.00  0.00    +0.000 OA
ENDBRANCH  18  19
ENDBRANCH  17  18
ENDBRANCH  16  17
ENDBRANCH  13  16
ENDBRANCH   1  13
TORSDOF 6
ENDMDL
MODEL 2
REMARK VINA RESULT:      -6.8      0.196      1.032
REMARK  Name = 
REMARK  6 active torsions:
REMARK  status: ('A' for Active; 'I' for Inactive)
REMARK    1  A    between atoms: C_2  and  C_3
REMARK    2  A    between atoms: C_3  and  C_4
REMARK    3  A    between atoms: C_3  and  N_11
REMARK    4  A    between atoms: C_4  and  O_5
REMARK    5  A    between atoms: O_5  and  C_6
REMARK    6  A    between atoms: C_6  and  P_7
REMARK                            x       y       z     vdW  Elec       q    Type
REMARK                         _______ _______ _______ _____ _____    ______ ____
ROOT
ATOM      1  N   UNL     1       2.299   6.057  19.036  0.00  0.00    +0.000 N 
ATOM      2  C   UNL     1       2.138   6.457  20.330  0.00  0.00    +0.000 A 
ATOM      3  N   UNL     1       1.847   5.455  21.137  0.00  0.00    +0.000 NA
ATOM      4  C   UNL     1       1.817   4.349  20.312  0.00  0.00    +0.000 A 
ATOM      5  C   UNL     1       1.614   2.986  20.576  0.00  0.00    +0.000 A 
ATOM      6  N   UNL     1       1.438   2.502  21.866  0.00  0.00    +0.000 N 
ATOM      7  N   UNL     1       1.592   2.121  19.536  0.00  0.00    +0.000 NA
ATOM      8  C   UNL     1       1.787   2.627  18.283  0.00  0.00    +0.000 A 
ATOM      9  N   UNL     1       2.027   3.890  17.926  0.00  0.00    +0.000 NA
ATOM     10  C   UNL     1       2.035   4.709  18.994  0.00  0.00    +0.000 A 
ATOM     11  H   UNL     1       1.184   3.218  22.538  0.00  0.00    +0.000 HD
ATOM     12  H   UNL     1       0.953   1.618  21.893  0.00  0.00    +0.000 HD
ENDROOT
BRANCH   1  13
ATOM     13  C   UNL     1       2.711   6.867  17.905  0.00  0.00    +0.000 C 
BRANCH  13  15
ATOM     14  C   UNL     1       1.285   8.952  17.710  0.00  0.00    +0.000 C 
ATOM     15  C   UNL     1       2.401   8.343  18.140  0.00  0.00    +0.000 C 
ENDBRANCH  13  15
BRANCH  13  16
ATOM     16  C   UNL     1       4.214   6.683  17.576  0.00  0.00    +0.000 C 
BRANCH  16  17
ATOM     17  O   UNL     1       4.539   5.694  16.605  0.00  0.00    +0.000 OA
BRANCH  17  18
ATOM     18  C   UNL     1       5.436   4.666  17.042  0.00  0.00    +0.000 C 
BRANCH  18  19
ATOM     19  P   UNL     1       7.167   5.257  17.414  0.00  0.00    +0.000 P 
ATOM     20  O   UNL     1       7.520   6.401  16.504  0.00  0.00    +0.000 OA
ATOM     21  O   UNL     1       7.092   5.669  18.886  0.00  0.00    +0.000 OA
ATOM     22  O   UNL     1       8.258   4.160  17.411  0.00  0.00    +0.000 OA
ENDBRANCH  18  19
ENDBRANCH  17  18
ENDBRANCH  16  17
ENDBRANCH  13  16
ENDBRANCH   1  13
TORSDOF 6
ENDMDL
MODEL 3
REMARK VINA RESULT:      -6.7      2.262      2.776
REMARK  Name = 
REMARK  6 active torsions:
REMARK  status: ('A' for Active; 'I' for Inactive)
REMARK    1  A    between atoms: C_2  and  C_3
REMARK    2  A    between atoms: C_3  and  C_4
REMARK    3  A    between atoms: C_3  and  N_11
REMARK    4  A    between atoms: C_4  and  O_5
REMARK    5  A    between atoms: O_5  and  C_6
REMARK    6  A    between atoms: C_6  and  P_7
REMARK                            x       y       z     vdW  Elec       q    Type
REMARK                         _______ _______ _______ _____ _____    ______ ____
ROOT
ATOM      1  N   UNL     1       4.373   5.384  18.304  0.00  0.00    +0.000 N 
ATOM      2  C   UNL     1       5.464   5.344  19.121  0.00  0.00    +0.000 A 
ATOM      3  N   UNL     1       5.650   4.155  19.659  0.00  0.00    +0.000 NA
ATOM      4  C   UNL     1       4.616   3.388  19.159  0.00  0.00    +0.000 A 
ATOM      5  C   UNL     1       4.293   2.031  19.315  0.00  0.00    +0.000 A 
ATOM      6  N   UNL     1       5.092   1.161  20.047  0.00  0.00    +0.000 N 
ATOM      7  N   UNL     1       3.167   1.562  18.730  0.00  0.00    +0.000 NA
ATOM      8  C   UNL     1       2.415   2.439  18.004  0.00  0.00    +0.000 A 
ATOM      9  N   UNL     1       2.649   3.730  17.759  0.00  0.00    +0.000 NA
ATOM     10  C   UNL     1       3.776   4.148  18.364  0.00  0.00    +0.000 A 
ATOM     11  H   UNL     1       5.736   1.631  20.674  0.00  0.00    +0.000 HD
ATOM     12  H   UNL     1       4.590   0.353  20.384  0.00  0.00    +0.000 HD
ENDROOT
BRANCH   1  13
ATOM     13  C   UNL     1       3.924   6.492  17.482  0.00  0.00    +0.000 C 
BRANCH  13  15
ATOM     14  C   UNL     1       2.410   8.502  17.772  0.00  0.00    +0.000 C 
ATOM     15  C   UNL     1       2.840   7.301  18.189  0.00  0.00    +0.000 C 
ENDBRANCH  13  15
BRANCH  13  16
ATOM     16  C   UNL     1       5.095   7.418  17.067  0.00  0.00    +0.000 C 
BRANCH  16  17
ATOM     17  O   UNL     1       5.894   6.985  15.970  0.00  0.00    +0.000 OA
BRANCH  17  18
ATOM     18  C   UNL     1       5.319   5.957  15.153  0.00  0.00    +0.000 C 
BRANCH  18  19
ATOM     19  P   UNL     1       6.346   4.404  15.027  0.00  0.00    +0.000 P 
ATOM     20  O   UNL     1       6.595   4.075  13.580  0.00  0.00    +0.000 OA
ATOM     21  O   UNL     1       7.626   4.763  15.785  0.00  0.00    +0.000 OA
ATOM     22  O   UNL     1       5.804   3.184  15.810  0.00  0.00    +0.000 OA
ENDBRANCH  18  19
ENDBRANCH  17  18
ENDBRANCH  16  17
ENDBRANCH  13  16
ENDBRANCH   1  13
TORSDOF 6
ENDMDL
MODEL 4
REMARK VINA RESULT:      -6.7      1.921      2.268
REMARK  Name = 
REMARK  6 active torsions:
REMARK  status: ('A' for Active; 'I' for Inactive)
REMARK    1  A    between atoms: C_2  and  C_3
REMARK    2  A    between atoms: C_3  and  C_4
REMARK    3  A    between atoms: C_3  and  N_11
REMARK    4  A    between atoms: C_4  and  O_5
REMARK    5  A    between atoms: O_5  and  C_6
REMARK    6  A    between atoms: C_6  and  P_7
REMARK                            x       y       z     vdW  Elec       q    Type
REMARK                         _______ _______ _______ _____ _____    ______ ____
ROOT
ATOM      1  N   UNL     1       3.709   5.474  18.625  0.00  0.00    +0.000 N 
ATOM      2  C   UNL     1       4.771   5.528  19.478  0.00  0.00    +0.000 A 
ATOM      3  N   UNL     1       5.151   4.333  19.888  0.00  0.00    +0.000 NA
ATOM      4  C   UNL     1       4.280   3.464  19.264  0.00  0.00    +0.000 A 
ATOM      5  C   UNL     1       4.196   2.063  19.254  0.00  0.00    +0.000 A 
ATOM      6  N   UNL     1       5.119   1.264  19.918  0.00  0.00    +0.000 N 
ATOM      7  N   UNL     1       3.183   1.478  18.573  0.00  0.00    +0.000 NA
ATOM      8  C   UNL     1       2.306   2.291  17.917  0.00  0.00    +0.000 A 
ATOM      9  N   UNL     1       2.315   3.623  17.827  0.00  0.00    +0.000 NA
ATOM     10  C   UNL     1       3.338   4.155  18.523  0.00  0.00    +0.000 A 
ATOM     11  H   UNL     1       5.656   1.761  20.620  0.00  0.00    +0.000 HD
ATOM     12  H   UNL     1       4.759   0.348  20.141  0.00  0.00    +0.000 HD
ENDROOT
BRANCH   1  13
ATOM     13  C   UNL     1       3.090   6.577  17.912  0.00  0.00    +0.000 C 
BRANCH  13  15
ATOM     14  C   UNL     1       1.859   8.698  18.546  0.00  0.00    +0.000 C 
ATOM     15  C   UNL     1       2.286   7.464  18.858  0.00  0.00    +0.000 C 
ENDBRANCH  13  15
BRANCH  13  16
ATOM     16  C   UNL     1       4.133   7.425  17.141  0.00  0.00    +0.000 C 
BRANCH  16  17
ATOM     17  O   UNL     1       4.932   6.739  16.183  0.00  0.00    +0.000 OA
BRANCH  17  18
ATOM     18  C   UNL     1       6.290   6.495  16.569  0.00  0.00    +0.000 C 
BRANCH  18  19
ATOM     19  P   UNL     1       6.939   4.810  16.098  0.00  0.00    +0.000 P 
ATOM     20  O   UNL     1       5.793   3.845  15.962  0.00  0.00    +0.000 OA
ATOM     21  O   UNL     1       7.661   5.067  14.773  0.00  0.00    +0.000 OA
ATOM     22  O   UNL     1       8.058   4.251  17.007  0.00  0.00    +0.000 OA
ENDBRANCH  18  19
ENDBRANCH  17  18
ENDBRANCH  16  17
ENDBRANCH  13  16
ENDBRANCH   1  13
TORSDOF 6
ENDMDL
MODEL 5
REMARK VINA RESULT:      -6.6      2.114      3.505
REMARK  Name = 
REMARK  6 active torsions:
REMARK  status: ('A' for Active; 'I' for Inactive)
REMARK    1  A    between atoms: C_2  and  C_3
REMARK    2  A    between atoms: C_3  and  C_4
REMARK    3  A    between atoms: C_3  and  N_11
REMARK    4  A    between atoms: C_4  and  O_5
REMARK    5  A    between atoms: O_5  and  C_6
REMARK    6  A    between atoms: C_6  and  P_7
REMARK                            x       y       z     vdW  Elec       q    Type
REMARK                         _______ _______ _______ _____ _____    ______ ____
ROOT
ATOM      1  N   UNL     1       4.320   4.561  18.482  0.00  0.00    +0.000 N 
ATOM      2  C   UNL     1       4.407   3.483  17.652  0.00  0.00    +0.000 A 
ATOM      3  N   UNL     1       3.363   2.684  17.750  0.00  0.00    +0.000 NA
ATOM      4  C   UNL     1       2.561   3.283  18.700  0.00  0.00    +0.000 A 
ATOM      5  C   UNL     1       1.295   2.950  19.206  0.00  0.00    +0.000 A 
ATOM      6  N   UNL     1       0.571   1.864  18.730  0.00  0.00    +0.000 N 
ATOM      7  N   UNL     1       0.767   3.717  20.189  0.00  0.00    +0.000 NA
ATOM      8  C   UNL     1       1.496   4.787  20.620  0.00  0.00    +0.000 A 
ATOM      9  N   UNL     1       2.682   5.215  20.184  0.00  0.00    +0.000 NA
ATOM     10  C   UNL     1       3.164   4.418  19.212  0.00  0.00    +0.000 A 
ATOM     11  H   UNL     1       1.135   1.192  18.221  0.00  0.00    +0.000 HD
ATOM     12  H   UNL     1      -0.110   1.523  19.391  0.00  0.00    +0.000 HD
ENDROOT
BRANCH   1  13
ATOM     13  C   UNL     1       5.235   5.684  18.573  0.00  0.00    +0.000 C 
BRANCH  13  15
ATOM     14  C   UNL     1       7.660   5.809  19.295  0.00  0.00    +0.000 C 
ATOM     15  C   UNL     1       6.687   5.214  18.587  0.00  0.00    +0.000 C 
ENDBRANCH  13  15
BRANCH  13  16
ATOM     16  C   UNL     1       5.016   6.704  17.427  0.00  0.00    +0.000 C 
BRANCH  16  17
ATOM     17  O   UNL     1       5.929   6.646  16.336  0.00  0.00    +0.000 OA
BRANCH  17  18
ATOM     18  C   UNL     1       5.469   5.935  15.180  0.00  0.00    +0.000 C 
BRANCH  18  19
ATOM     19  P   UNL     1       6.715   4.750  14.454  0.00  0.00    +0.000 P 
ATOM     20  O   UNL     1       7.843   5.522  13.824  0.00  0.00    +0.000 OA
ATOM     21  O   UNL     1       7.162   3.922  15.661  0.00  0.00    +0.000 OA
ATOM     22  O   UNL     1       6.137   3.686  13.491  0.00  0.00    +0.000 OA
ENDBRANCH  18  19
ENDBRANCH  17  18
ENDBRANCH  16  17
ENDBRANCH  13  16
ENDBRANCH   1  13
TORSDOF 6
ENDMDL
MODEL 6
REMARK VINA RESULT:      -6.6      0.928      1.362
REMARK  Name = 
REMARK  6 active torsions:
REMARK  status: ('A' for Active; 'I' for Inactive)
REMARK    1  A    between atoms: C_2  and  C_3
REMARK    2  A    between atoms: C_3  and  C_4
REMARK    3  A    between atoms: C_3  and  N_11
REMARK    4  A    between atoms: C_4  and  O_5
REMARK    5  A    between atoms: O_5  and  C_6
REMARK    6  A    between atoms: C_6  and  P_7
REMARK                            x       y       z     vdW  Elec       q    Type
REMARK                         _______ _______ _______ _____ _____    ______ ____
ROOT
ATOM      1  N   UNL     1       2.288   5.836  19.016  0.00  0.00    +0.000 N 
ATOM      2  C   UNL     1       2.204   6.291  20.299  0.00  0.00    +0.000 A 
ATOM      3  N   UNL     1       1.949   5.326  21.161  0.00  0.00    +0.000 NA
ATOM      4  C   UNL     1       1.863   4.188  20.386  0.00  0.00    +0.000 A 
ATOM      5  C   UNL     1       1.663   2.839  20.717  0.00  0.00    +0.000 A 
ATOM      6  N   UNL     1       1.555   2.409  22.034  0.00  0.00    +0.000 N 
ATOM      7  N   UNL     1       1.574   1.932  19.716  0.00  0.00    +0.000 NA
ATOM      8  C   UNL     1       1.703   2.384  18.435  0.00  0.00    +0.000 A 
ATOM      9  N   UNL     1       1.934   3.629  18.013  0.00  0.00    +0.000 NA
ATOM     10  C   UNL     1       2.010   4.491  19.044  0.00  0.00    +0.000 A 
ATOM     11  H   UNL     1       1.346   3.156  22.689  0.00  0.00    +0.000 HD
ATOM     12  H   UNL     1       1.064   1.533  22.125  0.00  0.00    +0.000 HD
ENDROOT
BRANCH   1  13
ATOM     13  C   UNL     1       2.643   6.595  17.831  0.00  0.00    +0.000 C 
BRANCH  13  15
ATOM     14  C   UNL     1       1.823   8.985  17.653  0.00  0.00    +0.000 C 
ATOM     15  C   UNL     1       2.703   8.091  18.130  0.00  0.00    +0.000 C 
ENDBRANCH  13  15
BRANCH  13  16
ATOM     16  C   UNL     1       3.984   6.119  17.218  0.00  0.00    +0.000 C 
BRANCH  16  17
ATOM     17  O   UNL     1       5.170   6.469  17.925  0.00  0.00    +0.000 OA
BRANCH  17  18
ATOM     18  C   UNL     1       5.657   5.484  18.845  0.00  0.00    +0.000 C 
BRANCH  18  19
ATOM     19  P   UNL     1       7.514   5.441  19.022  0.00  0.00    +0.000 P 
ATOM     20  O   UNL     1       8.084   4.362  18.142  0.00  0.00    +0.000 OA
ATOM     21  O   UNL     1       7.943   6.846  18.593  0.00  0.00    +0.000 OA
ATOM     22  O   UNL     1       8.041   5.339  20.472  0.00  0.00    +0.000 OA
ENDBRANCH  18  19
ENDBRANCH  17  18
ENDBRANCH  16  17
ENDBRANCH  13  16
ENDBRANCH   1  13
TORSDOF 6
ENDMDL
MODEL 7
REMARK VINA RESULT:      -6.6      1.283      1.673
REMARK  Name = 
REMARK  6 active torsions:
REMARK  status: ('A' for Active; 'I' for Inactive)
REMARK    1  A    between atoms: C_2  and  C_3
REMARK    2  A    between atoms: C_3  and  C_4
REMARK    3  A    between atoms: C_3  and  N_11
REMARK    4  A    between atoms: C_4  and  O_5
REMARK    5  A    between atoms: O_5  and  C_6
REMARK    6  A    between atoms: C_6  and  P_7
REMARK                            x       y       z     vdW  Elec       q    Type
REMARK                         _______ _______ _______ _____ _____    ______ ____
ROOT
ATOM      1  N   UNL     1       2.505   6.120  18.885  0.00  0.00    +0.000 N 
ATOM      2  C   UNL     1       2.172   6.534  20.141  0.00  0.00    +0.000 A 
ATOM      3  N   UNL     1       1.705   5.554  20.890  0.00  0.00    +0.000 NA
ATOM      4  C   UNL     1       1.738   4.448  20.065  0.00  0.00    +0.000 A 
ATOM      5  C   UNL     1       1.420   3.099  20.288  0.00  0.00    +0.000 A 
ATOM      6  N   UNL     1       1.023   2.631  21.535  0.00  0.00    +0.000 N 
ATOM      7  N   UNL     1       1.507   2.232  19.253  0.00  0.00    +0.000 NA
ATOM      8  C   UNL     1       1.918   2.721  18.047  0.00  0.00    +0.000 A 
ATOM      9  N   UNL     1       2.281   3.968  17.736  0.00  0.00    +0.000 NA
ATOM     10  C   UNL     1       2.173   4.789  18.797  0.00  0.00    +0.000 A 
ATOM     11  H   UNL     1       0.711   3.364  22.163  0.00  0.00    +0.000 HD
ATOM     12  H   UNL     1       0.490   1.776  21.484  0.00  0.00    +0.000 HD
ENDROOT
BRANCH   1  13
ATOM     13  C   UNL     1       3.129   6.901  17.833  0.00  0.00    +0.000 C 
BRANCH  13  15
ATOM     14  C   UNL     1       1.504   8.838  17.679  0.00  0.00    +0.000 C 
ATOM     15  C   UNL     1       2.737   8.373  17.931  0.00  0.00    +0.000 C 
ENDBRANCH  13  15
BRANCH  13  16
ATOM     16  C   UNL     1       4.672   6.757  17.842  0.00  0.00    +0.000 C 
BRANCH  16  17
ATOM     17  O   UNL     1       5.214   5.655  17.122  0.00  0.00    +0.000 OA
BRANCH  17  18
ATOM     18  C   UNL     1       5.505   5.900  15.740  0.00  0.00    +0.000 C 
BRANCH  18  19
ATOM     19  P   UNL     1       6.825   4.795  15.019  0.00  0.00    +0.000 P 
ATOM     20  O   UNL     1       7.676   5.581  14.059  0.00  0.00    +0.000 OA
ATOM     21  O   UNL     1       7.600   4.321  16.250  0.00  0.00    +0.000 OA
ATOM     22  O   UNL     1       6.317   3.475  14.392  0.00  0.00    +0.000 OA
ENDBRANCH  18  19
ENDBRANCH  17  18
ENDBRANCH  16  17
ENDBRANCH  13  16
ENDBRANCH   1  13
TORSDOF 6
ENDMDL
MODEL 8
REMARK VINA RESULT:      -6.5      4.250      6.100
REMARK  Name = 
REMARK  6 active torsions:
REMARK  status: ('A' for Active; 'I' for Inactive)
REMARK    1  A    between atoms: C_2  and  C_3
REMARK    2  A    between atoms: C_3  and  C_4
REMARK    3  A    between atoms: C_3  and  N_11
REMARK    4  A    between atoms: C_4  and  O_5
REMARK    5  A    between atoms: O_5  and  C_6
REMARK    6  A    between atoms: C_6  and  P_7
REMARK                            x       y       z     vdW  Elec       q    Type
REMARK                         _______ _______ _______ _____ _____    ______ ____
ROOT
ATOM      1  N   UNL     1       5.854   5.661  17.606  0.00  0.00    +0.000 N 
ATOM      2  C   UNL     1       6.858   6.583  17.580  0.00  0.00    +0.000 A 
ATOM      3  N   UNL     1       7.547   6.548  16.456  0.00  0.00    +0.000 NA
ATOM      4  C   UNL     1       6.952   5.544  15.720  0.00  0.00    +0.000 A 
ATOM      5  C   UNL     1       7.192   5.059  14.425  0.00  0.00    +0.000 A 
ATOM      6  N   UNL     1       8.148   5.625  13.591  0.00  0.00    +0.000 N 
ATOM      7  N   UNL     1       6.463   4.009  13.980  0.00  0.00    +0.000 NA
ATOM      8  C   UNL     1       5.519   3.490  14.818  0.00  0.00    +0.000 A 
ATOM      9  N   UNL     1       5.183   3.896  16.044  0.00  0.00    +0.000 NA
ATOM     10  C   UNL     1       5.937   4.938  16.440  0.00  0.00    +0.000 A 
ATOM     11  H   UNL     1       8.829   6.195  14.081  0.00  0.00    +0.000 HD
ATOM     12  H   UNL     1       8.472   4.991  12.876  0.00  0.00    +0.000 HD
ENDROOT
BRANCH   1  13
ATOM     13  C   UNL     1       4.848   5.479  18.636  0.00  0.00    +0.000 C 
BRANCH  13  15
ATOM     14  C   UNL     1       2.704   6.779  18.276  0.00  0.00    +0.000 C 
ATOM     15  C   UNL     1       3.442   5.676  18.076  0.00  0.00    +0.000 C 
ENDBRANCH  13  15
BRANCH  13  16
ATOM     16  C   UNL     1       4.962   4.092  19.319  0.00  0.00    +0.000 C 
BRANCH  16  17
ATOM     17  O   UNL     1       3.931   3.153  19.032  0.00  0.00    +0.000 OA
BRANCH  17  18
ATOM     18  C   UNL     1       3.351   2.503  20.170  0.00  0.00    +0.000 C 
BRANCH  18  19
ATOM     19  P   UNL     1       1.855   3.367  20.876  0.00  0.00    +0.000 P 
ATOM     20  O   UNL     1       0.690   3.215  19.937  0.00  0.00    +0.000 OA
ATOM     21  O   UNL     1       1.636   2.658  22.215  0.00  0.00    +0.000 OA
ATOM     22  O   UNL     1       2.074   4.841  21.290  0.00  0.00    +0.000 OA
ENDBRANCH  18  19
ENDBRANCH  17  18
ENDBRANCH  16  17
ENDBRANCH  13  16
ENDBRANCH   1  13
TORSDOF 6
ENDMDL
MODEL 9
REMARK VINA RESULT:      -6.4      1.789      3.026
REMARK  Name = 
REMARK  6 active torsions:
REMARK  status: ('A' for Active; 'I' for Inactive)
REMARK    1  A    between atoms: C_2  and  C_3
REMARK    2  A    between atoms: C_3  and  C_4
REMARK    3  A    between atoms: C_3  and  N_11
REMARK    4  A    between atoms: C_4  and  O_5
REMARK    5  A    between atoms: O_5  and  C_6
REMARK    6  A    between atoms: C_6  and  P_7
REMARK                            x       y       z     vdW  Elec       q    Type
REMARK                         _______ _______ _______ _____ _____    ______ ____
ROOT
ATOM      1  N   UNL     1       4.014   4.849  17.353  0.00  0.00    +0.000 N 
ATOM      2  C   UNL     1       3.242   5.916  17.706  0.00  0.00    +0.000 A 
ATOM      3  N   UNL     1       2.228   5.573  18.477  0.00  0.00    +0.000 NA
ATOM      4  C   UNL     1       2.357   4.207  18.624  0.00  0.00    +0.000 A 
ATOM      5  C   UNL     1       1.622   3.268  19.365  0.00  0.00    +0.000 A 
ATOM      6  N   UNL     1       0.563   3.640  20.185  0.00  0.00    +0.000 N 
ATOM      7  N   UNL     1       1.962   1.961  19.275  0.00  0.00    +0.000 NA
ATOM      8  C   UNL     1       3.018   1.633  18.475  0.00  0.00    +0.000 A 
ATOM      9  N   UNL     1       3.805   2.443  17.764  0.00  0.00    +0.000 NA
ATOM     10  C   UNL     1       3.424   3.728  17.885  0.00  0.00    +0.000 A 
ATOM     11  H   UNL     1       0.197   4.563  19.981  0.00  0.00    +0.000 HD
ATOM     12  H   UNL     1      -0.086   2.887  20.357  0.00  0.00    +0.000 HD
ENDROOT
BRANCH   1  13
ATOM     13  C   UNL     1       5.252   4.866  16.596  0.00  0.00    +0.000 C 
BRANCH  13  15
ATOM     14  C   UNL     1       5.923   4.287  14.223  0.00  0.00    +0.000 C 
ATOM     15  C   UNL     1       5.099   4.126  15.270  0.00  0.00    +0.000 C 
ENDBRANCH  13  15
BRANCH  13  16
ATOM     16  C   UNL     1       5.758   6.310  16.346  0.00  0.00    +0.000 C 
BRANCH  16  17
ATOM     17  O   UNL     1       7.134   6.559  16.616  0.00  0.00    +0.000 OA
BRANCH  17  18
ATOM     18  C   UNL     1       7.451   6.873  17.978  0.00  0.00    +0.000 C 
BRANCH  18  19
ATOM     19  P   UNL     1       7.570   5.391  19.106  0.00  0.00    +0.000 P 
ATOM     20  O   UNL     1       6.223   5.104  19.712  0.00  0.00    +0.000 OA
ATOM     21  O   UNL     1       8.053   4.276  18.176  0.00  0.00    +0.000 OA
ATOM     22  O   UNL     1       8.681   5.461  20.180  0.00  0.00    +0.000 OA
ENDBRANCH  18  19
ENDBRANCH  17  18
ENDBRANCH  16  17
ENDBRANCH  13  16
ENDBRANCH   1  13
TORSDOF 6
ENDMDL
