MODEL 1
REMARK VINA RESULT:      -8.4      0.000      0.000
REMARK  Name = 
REMARK  5 active torsions:
REMARK  status: ('A' for Active; 'I' for Inactive)
REMARK    1  A    between atoms: C_2  and  C_20
REMARK    2  A    between atoms: N_3  and  C_4
REMARK    3  A    between atoms: N_7  and  S_8
REMARK    4  A    between atoms: S_8  and  C_11
REMARK    5  A    between atoms: C_11  and  C_12
REMARK                            x       y       z     vdW  Elec       q    Type
REMARK                         _______ _______ _______ _____ _____    ______ ____
ROOT
ATOM      1  C   UNL     1       7.995   7.045  18.515  0.00  0.00    +0.000 A 
ATOM      2  C   UNL     1       7.950   5.758  19.119  0.00  0.00    +0.000 A 
ATOM      3  C   UNL     1       7.143   4.950  18.352  0.00  0.00    +0.000 A 
ATOM      4  N   UNL     1       6.641   5.732  17.351  0.00  0.00    +0.000 N 
ATOM      5  C   UNL     1       7.143   7.010  17.428  0.00  0.00    +0.000 A 
ENDROOT
BRANCH   1   8
ATOM      6  O   UNL     1       7.646   9.735  17.604  0.00  0.00    +0.000 OA
ATOM      7  C   UNL     1       8.524   9.417  18.403  0.00  0.00    +0.000 C 
ATOM      8  N   UNL     1       8.756   8.140  18.892  0.00  0.00    +0.000 N 
ATOM      9  H   UNL     1       9.448   8.042  19.628  0.00  0.00    +0.000 HD
BRANCH   7  10
ATOM     10  C   UNL     1       9.416  10.489  18.937  0.00  0.00    +0.000 A 
ATOM     11  C   UNL     1      10.253  11.160  18.047  0.00  0.00    +0.000 A 
ATOM     12  C   UNL     1      11.123  12.118  18.549  0.00  0.00    +0.000 A 
ATOM     13  C   UNL     1      11.134  12.369  19.915  0.00  0.00    +0.000 A 
ATOM     14  C   UNL     1      10.254  11.663  20.726  0.00  0.00    +0.000 A 
ATOM     15  N   UNL     1       9.380  10.732  20.275  0.00  0.00    +0.000 NA
ENDBRANCH   7  10
ENDBRANCH   1   8
BRANCH   4  16
ATOM     16  S   UNL     1       5.788   5.101  16.014  0.00  0.00    +0.000 S 
ATOM     17  O   UNL     1       5.379   6.279  15.269  0.00  0.00    +0.000 OA
ATOM     18  O   UNL     1       6.698   4.117  15.460  0.00  0.00    +0.000 OA
BRANCH  16  19
ATOM     19  C   UNL     1       4.340   4.276  16.671  0.00  0.00    +0.000 C 
BRANCH  19  20
ATOM     20  C   UNL     1       3.667   5.156  17.692  0.00  0.00    +0.000 A 
ATOM     21  C   UNL     1       3.364   6.495  17.391  0.00  0.00    +0.000 A 
ATOM     22  C   UNL     1       2.741   7.310  18.338  0.00  0.00    +0.000 A 
ATOM     23  C   UNL     1       2.421   6.795  19.591  0.00  0.00    +0.000 A 
ATOM     24 CL   UNL     1       1.661   7.802  20.762  0.00  0.00    +0.000 Cl
ATOM     25  C   UNL     1       2.714   5.470  19.905  0.00  0.00    +0.000 A 
ATOM     26  C   UNL     1       3.335   4.653  18.958  0.00  0.00    +0.000 A 
ENDBRANCH  19  20
ENDBRANCH  16  19
ENDBRANCH   4  16
TORSDOF 5
ENDMDL
MODEL 2
REMARK VINA RESULT:      -8.4      1.587      1.797
REMARK  Name = 
REMARK  5 active torsions:
REMARK  status: ('A' for Active; 'I' for Inactive)
REMARK    1  A    between atoms: C_2  and  C_20
REMARK    2  A    between atoms: N_3  and  C_4
REMARK    3  A    between atoms: N_7  and  S_8
REMARK    4  A    between atoms: S_8  and  C_11
REMARK    5  A    between atoms: C_11  and  C_12
REMARK                            x       y       z     vdW  Elec       q    Type
REMARK                         _______ _______ _______ _____ _____    ______ ____
ROOT
ATOM      1  C   UNL     1       8.132   7.283  18.556  0.00  0.00    +0.000 A 
ATOM      2  C   UNL     1       8.146   5.954  19.063  0.00  0.00    +0.000 A 
ATOM      3  C   UNL     1       7.319   5.184  18.277  0.00  0.00    +0.000 A 
ATOM      4  N   UNL     1       6.751   6.025  17.364  0.00  0.00    +0.000 N 
ATOM      5  C   UNL     1       7.228   7.306  17.513  0.00  0.00    +0.000 A 
ENDROOT
BRANCH   1   8
ATOM      6  O   UNL     1       7.848   9.986  17.661  0.00  0.00    +0.000 OA
ATOM      7  C   UNL     1       8.688   9.651  18.492  0.00  0.00    +0.000 C 
ATOM      8  N   UNL     1       8.887   8.366  18.976  0.00  0.00    +0.000 N 
ATOM      9  H   UNL     1       9.547   8.253  19.740  0.00  0.00    +0.000 HD
BRANCH   7  10
ATOM     10  C   UNL     1       9.567  10.707  19.075  0.00  0.00    +0.000 A 
ATOM     11  C   UNL     1       9.463  10.978  20.439  0.00  0.00    +0.000 A 
ATOM     12  C   UNL     1      10.239  11.998  20.975  0.00  0.00    +0.000 A 
ATOM     13  C   UNL     1      11.082  12.714  20.135  0.00  0.00    +0.000 A 
ATOM     14  C   UNL     1      11.131  12.366  18.790  0.00  0.00    +0.000 A 
ATOM     15  N   UNL     1      10.404  11.370  18.232  0.00  0.00    +0.000 NA
ENDBRANCH   7  10
ENDBRANCH   1   8
BRANCH   4  16
ATOM     16  S   UNL     1       5.845   5.473  16.027  0.00  0.00    +0.000 S 
ATOM     17  O   UNL     1       4.689   6.354  15.996  0.00  0.00    +0.000 OA
ATOM     18  O   UNL     1       6.814   5.437  14.948  0.00  0.00    +0.000 OA
BRANCH  16  19
ATOM     19  C   UNL     1       5.317   3.806  16.415  0.00  0.00    +0.000 C 
BRANCH  19  20
ATOM     20  C   UNL     1       4.171   3.845  17.393  0.00  0.00    +0.000 A 
ATOM     21  C   UNL     1       2.843   3.807  16.938  0.00  0.00    +0.000 A 
ATOM     22  C   UNL     1       1.782   3.844  17.844  0.00  0.00    +0.000 A 
ATOM     23  C   UNL     1       2.042   3.923  19.210  0.00  0.00    +0.000 A 
ATOM     24 CL   UNL     1       0.734   3.979  20.328  0.00  0.00    +0.000 Cl
ATOM     25  C   UNL     1       3.353   3.962  19.677  0.00  0.00    +0.000 A 
ATOM     26  C   UNL     1       4.415   3.923  18.771  0.00  0.00    +0.000 A 
ENDBRANCH  19  20
ENDBRANCH  16  19
ENDBRANCH   4  16
TORSDOF 5
ENDMDL
MODEL 3
REMARK VINA RESULT:      -8.3      0.913      1.364
REMARK  Name = 
REMARK  5 active torsions:
REMARK  status: ('A' for Active; 'I' for Inactive)
REMARK    1  A    between atoms: C_2  and  C_20
REMARK    2  A    between atoms: N_3  and  C_4
REMARK    3  A    between atoms: N_7  and  S_8
REMARK    4  A    between atoms: S_8  and  C_11
REMARK    5  A    between atoms: C_11  and  C_12
REMARK                            x       y       z     vdW  Elec       q    Type
REMARK                         _______ _______ _______ _____ _____    ______ ____
ROOT
ATOM      1  C   UNL     1       8.224   7.240  18.634  0.00  0.00    +0.000 A 
ATOM      2  C   UNL     1       8.047   5.990  19.290  0.00  0.00    +0.000 A 
ATOM      3  C   UNL     1       7.455   5.119  18.405  0.00  0.00    +0.000 A 
ATOM      4  N   UNL     1       7.203   5.828  17.265  0.00  0.00    +0.000 N 
ATOM      5  C   UNL     1       7.659   7.120  17.380  0.00  0.00    +0.000 A 
ENDROOT
BRANCH   1   8
ATOM      6  O   UNL     1       7.970   9.889  17.582  0.00  0.00    +0.000 OA
ATOM      7  C   UNL     1       8.687   9.627  18.545  0.00  0.00    +0.000 C 
ATOM      8  N   UNL     1       8.862   8.373  19.112  0.00  0.00    +0.000 N 
ATOM      9  H   UNL     1       9.402   8.322  19.970  0.00  0.00    +0.000 HD
BRANCH   7  10
ATOM     10  C   UNL     1       9.424  10.746  19.203  0.00  0.00    +0.000 A 
ATOM     11  C   UNL     1      10.199  11.589  18.408  0.00  0.00    +0.000 A 
ATOM     12  C   UNL     1      10.929  12.597  19.023  0.00  0.00    +0.000 A 
ATOM     13  C   UNL     1      10.867  12.725  20.405  0.00  0.00    +0.000 A 
ATOM     14  C   UNL     1      10.057  11.849  21.117  0.00  0.00    +0.000 A 
ATOM     15  N   UNL     1       9.318  10.864  20.554  0.00  0.00    +0.000 NA
ENDBRANCH   7  10
ENDBRANCH   1   8
BRANCH   4  16
ATOM     16  S   UNL     1       6.702   5.099  15.806  0.00  0.00    +0.000 S 
ATOM     17  O   UNL     1       7.608   5.645  14.809  0.00  0.00    +0.000 OA
ATOM     18  O   UNL     1       6.668   3.684  16.123  0.00  0.00    +0.000 OA
BRANCH  16  19
ATOM     19  C   UNL     1       5.038   5.681  15.484  0.00  0.00    +0.000 C 
BRANCH  19  20
ATOM     20  C   UNL     1       4.230   5.655  16.755  0.00  0.00    +0.000 A 
ATOM     21  C   UNL     1       3.828   4.434  17.320  0.00  0.00    +0.000 A 
ATOM     22  C   UNL     1       3.079   4.410  18.498  0.00  0.00    +0.000 A 
ATOM     23  C   UNL     1       2.724   5.607  19.116  0.00  0.00    +0.000 A 
ATOM     24 CL   UNL     1       1.792   5.579  20.563  0.00  0.00    +0.000 Cl
ATOM     25  C   UNL     1       3.115   6.826  18.568  0.00  0.00    +0.000 A 
ATOM     26  C   UNL     1       3.866   6.850  17.391  0.00  0.00    +0.000 A 
ENDBRANCH  19  20
ENDBRANCH  16  19
ENDBRANCH   4  16
TORSDOF 5
ENDMDL
MODEL 4
REMARK VINA RESULT:      -8.3      1.467      1.931
REMARK  Name = 
REMARK  5 active torsions:
REMARK  status: ('A' for Active; 'I' for Inactive)
REMARK    1  A    between atoms: C_2  and  C_20
REMARK    2  A    between atoms: N_3  and  C_4
REMARK    3  A    between atoms: N_7  and  S_8
REMARK    4  A    between atoms: S_8  and  C_11
REMARK    5  A    between atoms: C_11  and  C_12
REMARK                            x       y       z     vdW  Elec       q    Type
REMARK                         _______ _______ _______ _____ _____    ______ ____
ROOT
ATOM      1  C   UNL     1       7.988   7.205  18.584  0.00  0.00    +0.000 A 
ATOM      2  C   UNL     1       8.137   5.829  18.910  0.00  0.00    +0.000 A 
ATOM      3  C   UNL     1       7.137   5.126  18.279  0.00  0.00    +0.000 A 
ATOM      4  N   UNL     1       6.348   6.045  17.648  0.00  0.00    +0.000 N 
ATOM      5  C   UNL     1       6.843   7.316  17.820  0.00  0.00    +0.000 A 
ENDROOT
BRANCH   1   8
ATOM      6  O   UNL     1       7.750   9.906  17.667  0.00  0.00    +0.000 OA
ATOM      7  C   UNL     1       8.641   9.544  18.432  0.00  0.00    +0.000 C 
ATOM      8  N   UNL     1       8.822   8.259  18.921  0.00  0.00    +0.000 N 
ATOM      9  H   UNL     1       9.538   8.127  19.629  0.00  0.00    +0.000 HD
BRANCH   7  10
ATOM     10  C   UNL     1       9.612  10.568  18.921  0.00  0.00    +0.000 A 
ATOM     11  C   UNL     1       9.605  10.894  20.277  0.00  0.00    +0.000 A 
ATOM     12  C   UNL     1      10.467  11.885  20.726  0.00  0.00    +0.000 A 
ATOM     13  C   UNL     1      11.299  12.518  19.811  0.00  0.00    +0.000 A 
ATOM     14  C   UNL     1      11.249  12.119  18.481  0.00  0.00    +0.000 A 
ATOM     15  N   UNL     1      10.434  11.147  18.006  0.00  0.00    +0.000 NA
ENDBRANCH   7  10
ENDBRANCH   1   8
BRANCH   4  16
ATOM     16  S   UNL     1       5.128   5.618  16.534  0.00  0.00    +0.000 S 
ATOM     17  O   UNL     1       5.532   6.273  15.301  0.00  0.00    +0.000 OA
ATOM     18  O   UNL     1       5.048   4.175  16.649  0.00  0.00    +0.000 OA
BRANCH  16  19
ATOM     19  C   UNL     1       3.606   6.353  17.130  0.00  0.00    +0.000 C 
BRANCH  19  20
ATOM     20  C   UNL     1       2.978   5.459  18.169  0.00  0.00    +0.000 A 
ATOM     21  C   UNL     1       1.942   4.578  17.818  0.00  0.00    +0.000 A 
ATOM     22  C   UNL     1       1.359   3.751  18.781  0.00  0.00    +0.000 A 
ATOM     23  C   UNL     1       1.806   3.803  20.099  0.00  0.00    +0.000 A 
ATOM     24 CL   UNL     1       1.082   2.791  21.288  0.00  0.00    +0.000 Cl
ATOM     25  C   UNL     1       2.832   4.672  20.462  0.00  0.00    +0.000 A 
ATOM     26  C   UNL     1       3.417   5.497  19.499  0.00  0.00    +0.000 A 
ENDBRANCH  19  20
ENDBRANCH  16  19
ENDBRANCH   4  16
TORSDOF 5
ENDMDL
MODEL 5
REMARK VINA RESULT:      -8.3      1.036      1.721
REMARK  Name = 
REMARK  5 active torsions:
REMARK  status: ('A' for Active; 'I' for Inactive)
REMARK    1  A    between atoms: C_2  and  C_20
REMARK    2  A    between atoms: N_3  and  C_4
REMARK    3  A    between atoms: N_7  and  S_8
REMARK    4  A    between atoms: S_8  and  C_11
REMARK    5  A    between atoms: C_11  and  C_12
REMARK                            x       y       z     vdW  Elec       q    Type
REMARK                         _______ _______ _______ _____ _____    ______ ____
ROOT
ATOM      1  C   UNL     1       8.150   7.298  18.528  0.00  0.00    +0.000 A 
ATOM      2  C   UNL     1       8.019   5.999  19.094  0.00  0.00    +0.000 A 
ATOM      3  C   UNL     1       7.304   5.218  18.215  0.00  0.00    +0.000 A 
ATOM      4  N   UNL     1       6.937   6.027  17.178  0.00  0.00    +0.000 N 
ATOM      5  C   UNL     1       7.438   7.297  17.345  0.00  0.00    +0.000 A 
ENDROOT
BRANCH   1   8
ATOM      6  O   UNL     1       7.939  10.012  17.646  0.00  0.00    +0.000 OA
ATOM      7  C   UNL     1       8.711   9.666  18.537  0.00  0.00    +0.000 C 
ATOM      8  N   UNL     1       8.870   8.375  19.020  0.00  0.00    +0.000 N 
ATOM      9  H   UNL     1       9.467   8.252  19.832  0.00  0.00    +0.000 HD
BRANCH   7  10
ATOM     10  C   UNL     1       9.541  10.714  19.200  0.00  0.00    +0.000 A 
ATOM     11  C   UNL     1       9.318  10.982  20.550  0.00  0.00    +0.000 A 
ATOM     12  C   UNL     1      10.049  11.994  21.156  0.00  0.00    +0.000 A 
ATOM     13  C   UNL     1      10.969  12.707  20.398  0.00  0.00    +0.000 A 
ATOM     14  C   UNL     1      11.137  12.362  19.062  0.00  0.00    +0.000 A 
ATOM     15  N   UNL     1      10.455  11.372  18.437  0.00  0.00    +0.000 NA
ENDBRANCH   7  10
ENDBRANCH   1   8
BRANCH   4  16
ATOM     16  S   UNL     1       6.247   5.435  15.733  0.00  0.00    +0.000 S 
ATOM     17  O   UNL     1       5.324   6.482  15.329  0.00  0.00    +0.000 OA
ATOM     18  O   UNL     1       7.398   5.070  14.929  0.00  0.00    +0.000 OA
BRANCH  16  19
ATOM     19  C   UNL     1       5.326   3.961  16.168  0.00  0.00    +0.000 C 
BRANCH  19  20
ATOM     20  C   UNL     1       4.384   4.261  17.305  0.00  0.00    +0.000 A 
ATOM     21  C   UNL     1       4.244   3.359  18.372  0.00  0.00    +0.000 A 
ATOM     22  C   UNL     1       3.370   3.637  19.425  0.00  0.00    +0.000 A 
ATOM     23  C   UNL     1       2.629   4.815  19.416  0.00  0.00    +0.000 A 
ATOM     24 CL   UNL     1       1.544   5.154  20.709  0.00  0.00    +0.000 Cl
ATOM     25  C   UNL     1       2.756   5.720  18.365  0.00  0.00    +0.000 A 
ATOM     26  C   UNL     1       3.632   5.444  17.313  0.00  0.00    +0.000 A 
ENDBRANCH  19  20
ENDBRANCH  16  19
ENDBRANCH   4  16
TORSDOF 5
ENDMDL
MODEL 6
REMARK VINA RESULT:      -8.1      1.855      2.352
REMARK  Name = 
REMARK  5 active torsions:
REMARK  status: ('A' for Active; 'I' for Inactive)
REMARK    1  A    between atoms: C_2  and  C_20
REMARK    2  A    between atoms: N_3  and  C_4
REMARK    3  A    between atoms: N_7  and  S_8
REMARK    4  A    between atoms: S_8  and  C_11
REMARK    5  A    between atoms: C_11  and  C_12
REMARK                            x       y       z     vdW  Elec       q    Type
REMARK                         _______ _______ _______ _____ _____    ______ ____
ROOT
ATOM      1  C   UNL     1       8.171   8.354  17.987  0.00  0.00    +0.000 A 
ATOM      2  C   UNL     1       8.488   7.528  19.102  0.00  0.00    +0.000 A 
ATOM      3  C   UNL     1       7.935   6.286  18.888  0.00  0.00    +0.000 A 
ATOM      4  N   UNL     1       7.233   6.364  17.719  0.00  0.00    +0.000 N 
ATOM      5  C   UNL     1       7.360   7.610  17.152  0.00  0.00    +0.000 A 
ENDROOT
BRANCH   1   8
ATOM      6  O   UNL     1       9.389  10.129  19.873  0.00  0.00    +0.000 OA
ATOM      7  C   UNL     1       9.181  10.448  18.704  0.00  0.00    +0.000 C 
ATOM      8  N   UNL     1       8.599   9.647  17.733  0.00  0.00    +0.000 N 
ATOM      9  H   UNL     1       8.586  10.003  16.782  0.00  0.00    +0.000 HD
BRANCH   7  10
ATOM     10  C   UNL     1       9.614  11.804  18.254  0.00  0.00    +0.000 A 
ATOM     11  C   UNL     1       8.770  12.886  18.500  0.00  0.00    +0.000 A 
ATOM     12  C   UNL     1       9.143  14.139  18.034  0.00  0.00    +0.000 A 
ATOM     13  C   UNL     1      10.337  14.269  17.335  0.00  0.00    +0.000 A 
ATOM     14  C   UNL     1      11.123  13.139  17.149  0.00  0.00    +0.000 A 
ATOM     15  N   UNL     1      10.803  11.903  17.600  0.00  0.00    +0.000 NA
ENDBRANCH   7  10
ENDBRANCH   1   8
BRANCH   4  16
ATOM     16  S   UNL     1       6.586   4.997  16.929  0.00  0.00    +0.000 S 
ATOM     17  O   UNL     1       7.483   4.780  15.807  0.00  0.00    +0.000 OA
ATOM     18  O   UNL     1       6.436   4.024  17.994  0.00  0.00    +0.000 OA
BRANCH  16  19
ATOM     19  C   UNL     1       4.970   5.473  16.318  0.00  0.00    +0.000 C 
BRANCH  19  20
ATOM     20  C   UNL     1       3.912   5.103  17.325  0.00  0.00    +0.000 A 
ATOM     21  C   UNL     1       3.191   3.905  17.195  0.00  0.00    +0.000 A 
ATOM     22  C   UNL     1       2.210   3.563  18.128  0.00  0.00    +0.000 A 
ATOM     23  C   UNL     1       1.941   4.418  19.193  0.00  0.00    +0.000 A 
ATOM     24 CL   UNL     1       0.725   4.002  20.339  0.00  0.00    +0.000 Cl
ATOM     25  C   UNL     1       2.647   5.610  19.336  0.00  0.00    +0.000 A 
ATOM     26  C   UNL     1       3.630   5.951  18.405  0.00  0.00    +0.000 A 
ENDBRANCH  19  20
ENDBRANCH  16  19
ENDBRANCH   4  16
TORSDOF 5
ENDMDL
MODEL 7
REMARK VINA RESULT:      -8.1      1.761      2.096
REMARK  Name = 
REMARK  5 active torsions:
REMARK  status: ('A' for Active; 'I' for Inactive)
REMARK    1  A    between atoms: C_2  and  C_20
REMARK    2  A    between atoms: N_3  and  C_4
REMARK    3  A    between atoms: N_7  and  S_8
REMARK    4  A    between atoms: S_8  and  C_11
REMARK    5  A    between atoms: C_11  and  C_12
REMARK                            x       y       z     vdW  Elec       q    Type
REMARK                         _______ _______ _______ _____ _____    ______ ____
ROOT
ATOM      1  C   UNL     1       8.154   8.612  17.976  0.00  0.00    +0.000 A 
ATOM      2  C   UNL     1       8.505   7.712  19.021  0.00  0.00    +0.000 A 
ATOM      3  C   UNL     1       7.983   6.475  18.717  0.00  0.00    +0.000 A 
ATOM      4  N   UNL     1       7.267   6.623  17.564  0.00  0.00    +0.000 N 
ATOM      5  C   UNL     1       7.354   7.913  17.094  0.00  0.00    +0.000 A 
ENDROOT
BRANCH   1   8
ATOM      6  O   UNL     1       9.444  10.237  19.948  0.00  0.00    +0.000 OA
ATOM      7  C   UNL     1       9.165  10.655  18.826  0.00  0.00    +0.000 C 
ATOM      8  N   UNL     1       8.544   9.932  17.819  0.00  0.00    +0.000 N 
ATOM      9  H   UNL     1       8.472  10.372  16.907  0.00  0.00    +0.000 HD
BRANCH   7  10
ATOM     10  C   UNL     1       9.549  12.055  18.479  0.00  0.00    +0.000 A 
ATOM     11  C   UNL     1      10.549  12.253  17.528  0.00  0.00    +0.000 A 
ATOM     12  C   UNL     1      10.947  13.552  17.242  0.00  0.00    +0.000 A 
ATOM     13  C   UNL     1      10.342  14.605  17.917  0.00  0.00    +0.000 A 
ATOM     14  C   UNL     1       9.343  14.315  18.839  0.00  0.00    +0.000 A 
ATOM     15  N   UNL     1       8.916  13.065  19.135  0.00  0.00    +0.000 NA
ENDBRANCH   7  10
ENDBRANCH   1   8
BRANCH   4  16
ATOM     16  S   UNL     1       6.647   5.304  16.676  0.00  0.00    +0.000 S 
ATOM     17  O   UNL     1       7.494   5.243  15.497  0.00  0.00    +0.000 OA
ATOM     18  O   UNL     1       6.602   4.228  17.648  0.00  0.00    +0.000 OA
BRANCH  16  19
ATOM     19  C   UNL     1       4.979   5.746  16.193  0.00  0.00    +0.000 C 
BRANCH  19  20
ATOM     20  C   UNL     1       4.011   5.363  17.283  0.00  0.00    +0.000 A 
ATOM     21  C   UNL     1       3.779   6.227  18.366  0.00  0.00    +0.000 A 
ATOM     22  C   UNL     1       2.882   5.871  19.376  0.00  0.00    +0.000 A 
ATOM     23  C   UNL     1       2.216   4.650  19.310  0.00  0.00    +0.000 A 
ATOM     24 CL   UNL     1       1.117   4.207  20.559  0.00  0.00    +0.000 Cl
ATOM     25  C   UNL     1       2.435   3.784  18.242  0.00  0.00    +0.000 A 
ATOM     26  C   UNL     1       3.330   4.140  17.231  0.00  0.00    +0.000 A 
ENDBRANCH  19  20
ENDBRANCH  16  19
ENDBRANCH   4  16
TORSDOF 5
ENDMDL
MODEL 8
REMARK VINA RESULT:      -8.1      4.541      6.928
REMARK  Name = 
REMARK  5 active torsions:
REMARK  status: ('A' for Active; 'I' for Inactive)
REMARK    1  A    between atoms: C_2  and  C_20
REMARK    2  A    between atoms: N_3  and  C_4
REMARK    3  A    between atoms: N_7  and  S_8
REMARK    4  A    between atoms: S_8  and  C_11
REMARK    5  A    between atoms: C_11  and  C_12
REMARK                            x       y       z     vdW  Elec       q    Type
REMARK                         _______ _______ _______ _____ _____    ______ ____
ROOT
ATOM      1  C   UNL     1       1.696   5.221  20.502  0.00  0.00    +0.000 A 
ATOM      2  C   UNL     1       1.082   3.957  20.721  0.00  0.00    +0.000 A 
ATOM      3  C   UNL     1       1.871   2.990  20.140  0.00  0.00    +0.000 A 
ATOM      4  N   UNL     1       2.896   3.641  19.515  0.00  0.00    +0.000 N 
ATOM      5  C   UNL     1       2.811   4.999  19.719  0.00  0.00    +0.000 A 
ENDROOT
BRANCH   1   8
ATOM      6  O   UNL     1       2.098   7.746  19.216  0.00  0.00    +0.000 OA
ATOM      7  C   UNL     1       1.535   7.641  20.303  0.00  0.00    +0.000 C 
ATOM      8  N   UNL     1       1.302   6.458  20.988  0.00  0.00    +0.000 N 
ATOM      9  H   UNL     1       0.731   6.510  21.826  0.00  0.00    +0.000 HD
BRANCH   7  10
ATOM     10  C   UNL     1       1.016   8.881  20.953  0.00  0.00    +0.000 A 
ATOM     11  C   UNL     1       0.493   8.785  22.242  0.00  0.00    +0.000 A 
ATOM     12  C   UNL     1      -0.041   9.925  22.829  0.00  0.00    +0.000 A 
ATOM     13  C   UNL     1      -0.042  11.114  22.111  0.00  0.00    +0.000 A 
ATOM     14  C   UNL     1       0.514  11.120  20.837  0.00  0.00    +0.000 A 
ATOM     15  N   UNL     1       1.058  10.036  20.235  0.00  0.00    +0.000 NA
ENDBRANCH   7  10
ENDBRANCH   1   8
BRANCH   4  16
ATOM     16  S   UNL     1       4.256   2.837  18.871  0.00  0.00    +0.000 S 
ATOM     17  O   UNL     1       5.348   3.238  19.742  0.00  0.00    +0.000 OA
ATOM     18  O   UNL     1       3.821   1.457  18.768  0.00  0.00    +0.000 OA
BRANCH  16  19
ATOM     19  C   UNL     1       4.521   3.507  17.231  0.00  0.00    +0.000 C 
BRANCH  19  20
ATOM     20  C   UNL     1       5.383   4.740  17.313  0.00  0.00    +0.000 A 
ATOM     21  C   UNL     1       6.738   4.641  17.668  0.00  0.00    +0.000 A 
ATOM     22  C   UNL     1       7.536   5.784  17.746  0.00  0.00    +0.000 A 
ATOM     23  C   UNL     1       6.983   7.033  17.473  0.00  0.00    +0.000 A 
ATOM     24 CL   UNL     1       7.963   8.444  17.577  0.00  0.00    +0.000 Cl
ATOM     25  C   UNL     1       5.641   7.148  17.120  0.00  0.00    +0.000 A 
ATOM     26  C   UNL     1       4.843   6.005  17.040  0.00  0.00    +0.000 A 
ENDBRANCH  19  20
ENDBRANCH  16  19
ENDBRANCH   4  16
TORSDOF 5
ENDMDL
MODEL 9
REMARK VINA RESULT:      -8.0      1.967      2.386
REMARK  Name = 
REMARK  5 active torsions:
REMARK  status: ('A' for Active; 'I' for Inactive)
REMARK    1  A    between atoms: C_2  and  C_20
REMARK    2  A    between atoms: N_3  and  C_4
REMARK    3  A    between atoms: N_7  and  S_8
REMARK    4  A    between atoms: S_8  and  C_11
REMARK    5  A    between atoms: C_11  and  C_12
REMARK                            x       y       z     vdW  Elec       q    Type
REMARK                         _______ _______ _______ _____ _____    ______ ____
ROOT
ATOM      1  C   UNL     1       8.108   8.552  17.957  0.00  0.00    +0.000 A 
ATOM      2  C   UNL     1       8.326   7.279  18.553  0.00  0.00    +0.000 A 
ATOM      3  C   UNL     1       7.286   6.452  18.194  0.00  0.00    +0.000 A 
ATOM      4  N   UNL     1       6.414   7.210  17.467  0.00  0.00    +0.000 N 
ATOM      5  C   UNL     1       6.890   8.490  17.309  0.00  0.00    +0.000 A 
ENDROOT
BRANCH   1   8
ATOM      6  O   UNL     1       8.915  10.026  20.273  0.00  0.00    +0.000 OA
ATOM      7  C   UNL     1       9.289  10.320  19.140  0.00  0.00    +0.000 C 
ATOM      8  N   UNL     1       8.944   9.657  17.971  0.00  0.00    +0.000 N 
ATOM      9  H   UNL     1       9.411   9.945  17.117  0.00  0.00    +0.000 HD
BRANCH   7  10
ATOM     10  C   UNL     1      10.226  11.472  18.980  0.00  0.00    +0.000 A 
ATOM     11  C   UNL     1      10.530  12.240  20.103  0.00  0.00    +0.000 A 
ATOM     12  C   UNL     1      11.356  13.344  19.948  0.00  0.00    +0.000 A 
ATOM     13  C   UNL     1      11.845  13.648  18.684  0.00  0.00    +0.000 A 
ATOM     14  C   UNL     1      11.501  12.818  17.623  0.00  0.00    +0.000 A 
ATOM     15  N   UNL     1      10.711  11.724  17.735  0.00  0.00    +0.000 NA
ENDBRANCH   7  10
ENDBRANCH   1   8
BRANCH   4  16
ATOM     16  S   UNL     1       5.100   6.547  16.603  0.00  0.00    +0.000 S 
ATOM     17  O   UNL     1       3.929   7.085  17.275  0.00  0.00    +0.000 OA
ATOM     18  O   UNL     1       5.406   6.860  15.220  0.00  0.00    +0.000 OA
BRANCH  16  19
ATOM     19  C   UNL     1       5.165   4.773  16.846  0.00  0.00    +0.000 C 
BRANCH  19  20
ATOM     20  C   UNL     1       4.089   4.347  17.810  0.00  0.00    +0.000 A 
ATOM     21  C   UNL     1       2.846   3.896  17.337  0.00  0.00    +0.000 A 
ATOM     22  C   UNL     1       1.848   3.501  18.231  0.00  0.00    +0.000 A 
ATOM     23  C   UNL     1       2.085   3.560  19.601  0.00  0.00    +0.000 A 
ATOM     24 CL   UNL     1       0.852   3.083  20.704  0.00  0.00    +0.000 Cl
ATOM     25  C   UNL     1       3.312   4.005  20.086  0.00  0.00    +0.000 A 
ATOM     26  C   UNL     1       4.312   4.397  19.193  0.00  0.00    +0.000 A 
ENDBRANCH  19  20
ENDBRANCH  16  19
ENDBRANCH   4  16
TORSDOF 5
ENDMDL
