MODEL 1
REMARK VINA RESULT:      -6.6      0.000      0.000
REMARK  Name = 
REMARK  16 active torsions:
REMARK  status: ('A' for Active; 'I' for Inactive)
REMARK    1  A    between atoms: C_1  and  C_2
REMARK    2  A    between atoms: C_2  and  C_3
REMARK    3  A    between atoms: C_3  and  C_4
REMARK    4  A    between atoms: C_4  and  C_5
REMARK    5  A    between atoms: C_5  and  C_7
REMARK    6  A    between atoms: C_8  and  O_9
REMARK    7  A    between atoms: C_11  and  O_12
REMARK    8  A    between atoms: C_13  and  C_14
REMARK    9  A    between atoms: C_14  and  C_15
REMARK   10  A    between atoms: C_16  and  C_17
REMARK   11  A    between atoms: C_16  and  C_18
REMARK   12  A    between atoms: C_18  and  C_19
REMARK   13  A    between atoms: C_19  and  C_20
REMARK   14  A    between atoms: C_21  and  C_22
REMARK   15  A    between atoms: C_21  and  C_23
REMARK   16  A    between atoms: C_24  and  O_25
REMARK                            x       y       z     vdW  Elec       q    Type
REMARK                         _______ _______ _______ _____ _____    ______ ____
ROOT
ATOM      1  C   UNL     1       1.067   9.623  19.289  0.00  0.00    +0.000 A 
ATOM      2  C   UNL     1       0.812   9.320  20.638  0.00  0.00    +0.000 A 
ATOM      3  C   UNL     1       1.228   8.114  21.201  0.00  0.00    +0.000 A 
ATOM      4  C   UNL     1       1.877   7.172  20.409  0.00  0.00    +0.000 A 
ATOM      5  C   UNL     1       2.163   7.425  19.060  0.00  0.00    +0.000 A 
ATOM      6  C   UNL     1       1.776   8.672  18.524  0.00  0.00    +0.000 A 
ENDROOT
BRANCH   1   7
ATOM      7  C   UNL     1       0.568  10.930  18.736  0.00  0.00    +0.000 C 
ATOM      8  O   UNL     1       1.386  11.839  18.544  0.00  0.00    +0.000 OA
BRANCH   7   9
ATOM      9  C   UNL     1      -0.907  11.109  18.430  0.00  0.00    +0.000 C 
BRANCH   9  10
ATOM     10  C   UNL     1      -1.460  10.153  17.378  0.00  0.00    +0.000 C 
BRANCH  10  12
ATOM     11  C   UNL     1      -3.881  10.827  17.138  0.00  0.00    +0.000 C 
ATOM     12  C   UNL     1      -2.913   9.810  17.713  0.00  0.00    +0.000 C 
ENDBRANCH  10  12
ENDBRANCH   9  10
ENDBRANCH   7   9
ENDBRANCH   1   7
BRANCH   2  13
ATOM     13  O   UNL     1       0.148  10.162  21.495  0.00  0.00    +0.000 OA
ATOM     14  H   UNL     1      -0.810   9.934  21.464  0.00  0.00    +0.000 HD
ENDBRANCH   2  13
BRANCH   4  15
ATOM     15  O   UNL     1       2.225   5.963  20.943  0.00  0.00    +0.000 OA
ATOM     16  H   UNL     1       1.418   5.475  21.178  0.00  0.00    +0.000 HD
ENDBRANCH   4  15
BRANCH   6  17
ATOM     17  O   UNL     1       2.091   8.946  17.220  0.00  0.00    +0.000 OA
ATOM     18  H   UNL     1       2.489   9.831  17.175  0.00  0.00    +0.000 HD
ENDBRANCH   6  17
BRANCH   5  19
ATOM     19  C   UNL     1       2.734   6.316  18.187  0.00  0.00    +0.000 C 
BRANCH  19  20
ATOM     20  C   UNL     1       4.241   6.344  18.187  0.00  0.00    +0.000 C 
ATOM     21  C   UNL     1       5.102   5.431  18.685  0.00  0.00    +0.000 C 
ATOM     22  C   UNL     1       4.659   4.117  19.275  0.00  0.00    +0.000 C 
BRANCH  21  23
ATOM     23  C   UNL     1       6.622   5.633  18.687  0.00  0.00    +0.000 C 
BRANCH  23  24
ATOM     24  C   UNL     1       7.397   4.653  17.791  0.00  0.00    +0.000 C 
BRANCH  24  25
ATOM     25  C   UNL     1       7.496   4.996  16.333  0.00  0.00    +0.000 C 
ATOM     26  C   UNL     1       6.668   4.474  15.403  0.00  0.00    +0.000 C 
ATOM     27  C   UNL     1       5.564   3.496  15.715  0.00  0.00    +0.000 C 
ATOM     28  C   UNL     1       6.783   4.834  13.948  0.00  0.00    +0.000 C 
ENDBRANCH  24  25
ENDBRANCH  23  24
ENDBRANCH  21  23
ENDBRANCH  19  20
ENDBRANCH   5  19
TORSDOF 12
ENDMDL
MODEL 2
REMARK VINA RESULT:      -6.6      3.436      5.829
REMARK  Name = 
REMARK  16 active torsions:
REMARK  status: ('A' for Active; 'I' for Inactive)
REMARK    1  A    between atoms: C_1  and  C_2
REMARK    2  A    between atoms: C_2  and  C_3
REMARK    3  A    between atoms: C_3  and  C_4
REMARK    4  A    between atoms: C_4  and  C_5
REMARK    5  A    between atoms: C_5  and  C_7
REMARK    6  A    between atoms: C_8  and  O_9
REMARK    7  A    between atoms: C_11  and  O_12
REMARK    8  A    between atoms: C_13  and  C_14
REMARK    9  A    between atoms: C_14  and  C_15
REMARK   10  A    between atoms: C_16  and  C_17
REMARK   11  A    between atoms: C_16  and  C_18
REMARK   12  A    between atoms: C_18  and  C_19
REMARK   13  A    between atoms: C_19  and  C_20
REMARK   14  A    between atoms: C_21  and  C_22
REMARK   15  A    between atoms: C_21  and  C_23
REMARK   16  A    between atoms: C_24  and  O_25
REMARK                            x       y       z     vdW  Elec       q    Type
REMARK                         _______ _______ _______ _____ _____    ______ ____
ROOT
ATOM      1  C   UNL     1       2.931   4.486  20.248  0.00  0.00    +0.000 A 
ATOM      2  C   UNL     1       2.143   5.638  20.071  0.00  0.00    +0.000 A 
ATOM      3  C   UNL     1       2.589   6.707  19.296  0.00  0.00    +0.000 A 
ATOM      4  C   UNL     1       3.851   6.656  18.713  0.00  0.00    +0.000 A 
ATOM      5  C   UNL     1       4.674   5.530  18.850  0.00  0.00    +0.000 A 
ATOM      6  C   UNL     1       4.182   4.440  19.599  0.00  0.00    +0.000 A 
ENDROOT
BRANCH   1   7
ATOM      7  C   UNL     1       2.403   3.378  21.118  0.00  0.00    +0.000 C 
ATOM      8  O   UNL     1       2.468   3.512  22.347  0.00  0.00    +0.000 OA
BRANCH   7   9
ATOM      9  C   UNL     1       1.812   2.133  20.483  0.00  0.00    +0.000 C 
BRANCH   9  10
ATOM     10  C   UNL     1       1.121   2.369  19.145  0.00  0.00    +0.000 C 
BRANCH  10  12
ATOM     11  C   UNL     1       2.368   3.114  17.080  0.00  0.00    +0.000 C 
ATOM     12  C   UNL     1       2.057   1.954  18.006  0.00  0.00    +0.000 C 
ENDBRANCH  10  12
ENDBRANCH   9  10
ENDBRANCH   7   9
ENDBRANCH   1   7
BRANCH   2  13
ATOM     13  O   UNL     1       0.902   5.804  20.632  0.00  0.00    +0.000 OA
ATOM     14  H   UNL     1       0.427   6.499  20.119  0.00  0.00    +0.000 HD
ENDBRANCH   2  13
BRANCH   4  15
ATOM     15  O   UNL     1       4.315   7.732  18.009  0.00  0.00    +0.000 OA
ATOM     16  H   UNL     1       4.296   7.524  17.060  0.00  0.00    +0.000 HD
ENDBRANCH   4  15
BRANCH   6  17
ATOM     17  O   UNL     1       4.961   3.317  19.702  0.00  0.00    +0.000 OA
ATOM     18  H   UNL     1       5.895   3.580  19.657  0.00  0.00    +0.000 HD
ENDBRANCH   6  17
BRANCH   5  19
ATOM     19  C   UNL     1       6.105   5.570  18.331  0.00  0.00    +0.000 C 
BRANCH  19  20
ATOM     20  C   UNL     1       6.309   4.570  17.222  0.00  0.00    +0.000 C 
ATOM     21  C   UNL     1       5.968   4.671  15.919  0.00  0.00    +0.000 C 
ATOM     22  C   UNL     1       5.373   5.919  15.319  0.00  0.00    +0.000 C 
BRANCH  21  23
ATOM     23  C   UNL     1       6.166   3.531  14.914  0.00  0.00    +0.000 C 
BRANCH  23  24
ATOM     24  C   UNL     1       6.323   3.986  13.454  0.00  0.00    +0.000 C 
BRANCH  24  25
ATOM     25  C   UNL     1       5.088   3.972  12.601  0.00  0.00    +0.000 C 
ATOM     26  C   UNL     1       4.855   3.023  11.669  0.00  0.00    +0.000 C 
ATOM     27  C   UNL     1       5.798   1.883  11.377  0.00  0.00    +0.000 C 
ATOM     28  C   UNL     1       3.610   3.027  10.827  0.00  0.00    +0.000 C 
ENDBRANCH  24  25
ENDBRANCH  23  24
ENDBRANCH  21  23
ENDBRANCH  19  20
ENDBRANCH   5  19
TORSDOF 12
ENDMDL
MODEL 3
REMARK VINA RESULT:      -6.5      1.820      3.414
REMARK  Name = 
REMARK  16 active torsions:
REMARK  status: ('A' for Active; 'I' for Inactive)
REMARK    1  A    between atoms: C_1  and  C_2
REMARK    2  A    between atoms: C_2  and  C_3
REMARK    3  A    between atoms: C_3  and  C_4
REMARK    4  A    between atoms: C_4  and  C_5
REMARK    5  A    between atoms: C_5  and  C_7
REMARK    6  A    between atoms: C_8  and  O_9
REMARK    7  A    between atoms: C_11  and  O_12
REMARK    8  A    between atoms: C_13  and  C_14
REMARK    9  A    between atoms: C_14  and  C_15
REMARK   10  A    between atoms: C_16  and  C_17
REMARK   11  A    between atoms: C_16  and  C_18
REMARK   12  A    between atoms: C_18  and  C_19
REMARK   13  A    between atoms: C_19  and  C_20
REMARK   14  A    between atoms: C_21  and  C_22
REMARK   15  A    between atoms: C_21  and  C_23
REMARK   16  A    between atoms: C_24  and  O_25
REMARK                            x       y       z     vdW  Elec       q    Type
REMARK                         _______ _______ _______ _____ _____    ______ ____
ROOT
ATOM      1  C   UNL     1       0.596   9.776  19.299  0.00  0.00    +0.000 A 
ATOM      2  C   UNL     1       0.334   9.266  20.584  0.00  0.00    +0.000 A 
ATOM      3  C   UNL     1       1.000   8.141  21.066  0.00  0.00    +0.000 A 
ATOM      4  C   UNL     1       1.918   7.483  20.253  0.00  0.00    +0.000 A 
ATOM      5  C   UNL     1       2.223   7.952  18.968  0.00  0.00    +0.000 A 
ATOM      6  C   UNL     1       1.572   9.121  18.519  0.00  0.00    +0.000 A 
ENDROOT
BRANCH   1   7
ATOM      7  C   UNL     1      -0.176  10.978  18.828  0.00  0.00    +0.000 C 
ATOM      8  O   UNL     1       0.128  12.089  19.282  0.00  0.00    +0.000 OA
BRANCH   7   9
ATOM      9  C   UNL     1      -1.299  10.809  17.822  0.00  0.00    +0.000 C 
BRANCH   9  10
ATOM     10  C   UNL     1      -2.675  11.229  18.327  0.00  0.00    +0.000 C 
BRANCH  10  12
ATOM     11  C   UNL     1      -5.140  11.146  17.789  0.00  0.00    +0.000 C 
ATOM     12  C   UNL     1      -3.754  10.675  17.393  0.00  0.00    +0.000 C 
ENDBRANCH  10  12
ENDBRANCH   9  10
ENDBRANCH   7   9
ENDBRANCH   1   7
BRANCH   2  13
ATOM     13  O   UNL     1      -0.577   9.817  21.449  0.00  0.00    +0.000 OA
ATOM     14  H   UNL     1      -0.355   9.513  22.360  0.00  0.00    +0.000 HD
ENDBRANCH   2  13
BRANCH   4  15
ATOM     15  O   UNL     1       2.521   6.341  20.701  0.00  0.00    +0.000 OA
ATOM     16  H   UNL     1       2.188   5.584  20.191  0.00  0.00    +0.000 HD
ENDBRANCH   4  15
BRANCH   6  17
ATOM     17  O   UNL     1       1.897   9.612  17.282  0.00  0.00    +0.000 OA
ATOM     18  H   UNL     1       1.443  10.461  17.155  0.00  0.00    +0.000 HD
ENDBRANCH   6  17
BRANCH   5  19
ATOM     19  C   UNL     1       3.112   7.123  18.051  0.00  0.00    +0.000 C 
BRANCH  19  20
ATOM     20  C   UNL     1       2.560   5.733  17.868  0.00  0.00    +0.000 C 
ATOM     21  C   UNL     1       3.194   4.622  17.435  0.00  0.00    +0.000 C 
ATOM     22  C   UNL     1       4.670   4.581  17.137  0.00  0.00    +0.000 C 
BRANCH  21  23
ATOM     23  C   UNL     1       2.478   3.284  17.219  0.00  0.00    +0.000 C 
BRANCH  23  24
ATOM     24  C   UNL     1       2.964   2.145  18.131  0.00  0.00    +0.000 C 
BRANCH  24  25
ATOM     25  C   UNL     1       3.103   2.455  19.593  0.00  0.00    +0.000 C 
ATOM     26  C   UNL     1       2.057   2.819  20.365  0.00  0.00    +0.000 C 
ATOM     27  C   UNL     1       0.644   2.957  19.855  0.00  0.00    +0.000 C 
ATOM     28  C   UNL     1       2.219   3.123  21.827  0.00  0.00    +0.000 C 
ENDBRANCH  24  25
ENDBRANCH  23  24
ENDBRANCH  21  23
ENDBRANCH  19  20
ENDBRANCH   5  19
TORSDOF 12
ENDMDL
MODEL 4
REMARK VINA RESULT:      -6.5      2.279      8.399
REMARK  Name = 
REMARK  16 active torsions:
REMARK  status: ('A' for Active; 'I' for Inactive)
REMARK    1  A    between atoms: C_1  and  C_2
REMARK    2  A    between atoms: C_2  and  C_3
REMARK    3  A    between atoms: C_3  and  C_4
REMARK    4  A    between atoms: C_4  and  C_5
REMARK    5  A    between atoms: C_5  and  C_7
REMARK    6  A    between atoms: C_8  and  O_9
REMARK    7  A    between atoms: C_11  and  O_12
REMARK    8  A    between atoms: C_13  and  C_14
REMARK    9  A    between atoms: C_14  and  C_15
REMARK   10  A    between atoms: C_16  and  C_17
REMARK   11  A    between atoms: C_16  and  C_18
REMARK   12  A    between atoms: C_18  and  C_19
REMARK   13  A    between atoms: C_19  and  C_20
REMARK   14  A    between atoms: C_21  and  C_22
REMARK   15  A    between atoms: C_21  and  C_23
REMARK   16  A    between atoms: C_24  and  O_25
REMARK                            x       y       z     vdW  Elec       q    Type
REMARK                         _______ _______ _______ _____ _____    ______ ____
ROOT
ATOM      1  C   UNL     1       5.323   5.204  17.061  0.00  0.00    +0.000 A 
ATOM      2  C   UNL     1       5.031   4.545  18.269  0.00  0.00    +0.000 A 
ATOM      3  C   UNL     1       4.135   5.085  19.191  0.00  0.00    +0.000 A 
ATOM      4  C   UNL     1       3.541   6.316  18.934  0.00  0.00    +0.000 A 
ATOM      5  C   UNL     1       3.790   7.012  17.742  0.00  0.00    +0.000 A 
ATOM      6  C   UNL     1       4.663   6.424  16.802  0.00  0.00    +0.000 A 
ENDROOT
BRANCH   1   7
ATOM      7  C   UNL     1       6.319   4.581  16.121  0.00  0.00    +0.000 C 
ATOM      8  O   UNL     1       7.496   4.483  16.490  0.00  0.00    +0.000 OA
BRANCH   7   9
ATOM      9  C   UNL     1       5.869   4.094  14.757  0.00  0.00    +0.000 C 
BRANCH   9  10
ATOM     10  C   UNL     1       6.867   4.342  13.631  0.00  0.00    +0.000 C 
BRANCH  10  12
ATOM     11  C   UNL     1       4.915   3.403  12.334  0.00  0.00    +0.000 C 
ATOM     12  C   UNL     1       6.420   3.588  12.376  0.00  0.00    +0.000 C 
ENDBRANCH  10  12
ENDBRANCH   9  10
ENDBRANCH   7   9
ENDBRANCH   1   7
BRANCH   2  13
ATOM     13  O   UNL     1       5.590   3.346  18.636  0.00  0.00    +0.000 OA
ATOM     14  H   UNL     1       5.903   2.893  17.819  0.00  0.00    +0.000 HD
ENDBRANCH   2  13
BRANCH   4  15
ATOM     15  O   UNL     1       2.715   6.877  19.867  0.00  0.00    +0.000 OA
ATOM     16  H   UNL     1       2.603   7.821  19.666  0.00  0.00    +0.000 HD
ENDBRANCH   4  15
BRANCH   6  17
ATOM     17  O   UNL     1       4.877   7.075  15.617  0.00  0.00    +0.000 OA
ATOM     18  H   UNL     1       5.826   7.264  15.531  0.00  0.00    +0.000 HD
ENDBRANCH   6  17
BRANCH   5  19
ATOM     19  C   UNL     1       3.246   8.423  17.563  0.00  0.00    +0.000 C 
BRANCH  19  20
ATOM     20  C   UNL     1       1.786   8.494  17.929  0.00  0.00    +0.000 C 
ATOM     21  C   UNL     1       1.069   9.564  18.338  0.00  0.00    +0.000 C 
ATOM     22  C   UNL     1       1.637  10.957  18.407  0.00  0.00    +0.000 C 
BRANCH  21  23
ATOM     23  C   UNL     1      -0.402   9.469  18.758  0.00  0.00    +0.000 C 
BRANCH  23  24
ATOM     24  C   UNL     1      -1.332  10.473  18.057  0.00  0.00    +0.000 C 
BRANCH  24  25
ATOM     25  C   UNL     1      -1.842  10.093  16.697  0.00  0.00    +0.000 C 
ATOM     26  C   UNL     1      -3.034  10.512  16.221  0.00  0.00    +0.000 C 
ATOM     27  C   UNL     1      -3.981  11.398  16.990  0.00  0.00    +0.000 C 
ATOM     28  C   UNL     1      -3.523  10.121  14.855  0.00  0.00    +0.000 C 
ENDBRANCH  24  25
ENDBRANCH  23  24
ENDBRANCH  21  23
ENDBRANCH  19  20
ENDBRANCH   5  19
TORSDOF 12
ENDMDL
MODEL 5
REMARK VINA RESULT:      -6.5      2.973      8.279
REMARK  Name = 
REMARK  16 active torsions:
REMARK  status: ('A' for Active; 'I' for Inactive)
REMARK    1  A    between atoms: C_1  and  C_2
REMARK    2  A    between atoms: C_2  and  C_3
REMARK    3  A    between atoms: C_3  and  C_4
REMARK    4  A    between atoms: C_4  and  C_5
REMARK    5  A    between atoms: C_5  and  C_7
REMARK    6  A    between atoms: C_8  and  O_9
REMARK    7  A    between atoms: C_11  and  O_12
REMARK    8  A    between atoms: C_13  and  C_14
REMARK    9  A    between atoms: C_14  and  C_15
REMARK   10  A    between atoms: C_16  and  C_17
REMARK   11  A    between atoms: C_16  and  C_18
REMARK   12  A    between atoms: C_18  and  C_19
REMARK   13  A    between atoms: C_19  and  C_20
REMARK   14  A    between atoms: C_21  and  C_22
REMARK   15  A    between atoms: C_21  and  C_23
REMARK   16  A    between atoms: C_24  and  O_25
REMARK                            x       y       z     vdW  Elec       q    Type
REMARK                         _______ _______ _______ _____ _____    ______ ____
ROOT
ATOM      1  C   UNL     1       5.986   5.885  17.771  0.00  0.00    +0.000 A 
ATOM      2  C   UNL     1       6.177   4.608  18.330  0.00  0.00    +0.000 A 
ATOM      3  C   UNL     1       5.102   3.859  18.807  0.00  0.00    +0.000 A 
ATOM      4  C   UNL     1       3.818   4.392  18.764  0.00  0.00    +0.000 A 
ATOM      5  C   UNL     1       3.570   5.656  18.210  0.00  0.00    +0.000 A 
ATOM      6  C   UNL     1       4.667   6.376  17.690  0.00  0.00    +0.000 A 
ENDROOT
BRANCH   1   7
ATOM      7  C   UNL     1       7.191   6.654  17.300  0.00  0.00    +0.000 C 
ATOM      8  O   UNL     1       7.555   6.515  16.125  0.00  0.00    +0.000 OA
BRANCH   7   9
ATOM      9  C   UNL     1       7.928   7.569  18.260  0.00  0.00    +0.000 C 
BRANCH   9  10
ATOM     10  C   UNL     1       8.140   8.989  17.748  0.00  0.00    +0.000 C 
BRANCH  10  12
ATOM     11  C   UNL     1       9.148  11.226  18.345  0.00  0.00    +0.000 C 
ATOM     12  C   UNL     1       8.982   9.775  18.757  0.00  0.00    +0.000 C 
ENDBRANCH  10  12
ENDBRANCH   9  10
ENDBRANCH   7   9
ENDBRANCH   1   7
BRANCH   2  13
ATOM     13  O   UNL     1       7.404   4.007  18.453  0.00  0.00    +0.000 OA
ATOM     14  H   UNL     1       7.965   4.303  17.699  0.00  0.00    +0.000 HD
ENDBRANCH   2  13
BRANCH   4  15
ATOM     15  O   UNL     1       2.774   3.685  19.292  0.00  0.00    +0.000 OA
ATOM     16  H   UNL     1       3.123   2.969  19.849  0.00  0.00    +0.000 HD
ENDBRANCH   4  15
BRANCH   6  17
ATOM     17  O   UNL     1       4.428   7.592  17.107  0.00  0.00    +0.000 OA
ATOM     18  H   UNL     1       4.736   8.292  17.706  0.00  0.00    +0.000 HD
ENDBRANCH   6  17
BRANCH   5  19
ATOM     19  C   UNL     1       2.181   6.271  18.320  0.00  0.00    +0.000 C 
BRANCH  19  20
ATOM     20  C   UNL     1       1.972   6.905  19.670  0.00  0.00    +0.000 C 
ATOM     21  C   UNL     1       1.656   8.185  19.963  0.00  0.00    +0.000 C 
ATOM     22  C   UNL     1       1.356   9.220  18.910  0.00  0.00    +0.000 C 
BRANCH  21  23
ATOM     23  C   UNL     1       1.554   8.711  21.399  0.00  0.00    +0.000 C 
BRANCH  23  24
ATOM     24  C   UNL     1       0.118   8.835  21.934  0.00  0.00    +0.000 C 
BRANCH  24  25
ATOM     25  C   UNL     1      -0.224  10.092  22.680  0.00  0.00    +0.000 C 
ATOM     26  C   UNL     1      -0.755  11.178  22.078  0.00  0.00    +0.000 C 
ATOM     27  C   UNL     1      -1.059  11.256  20.604  0.00  0.00    +0.000 C 
ATOM     28  C   UNL     1      -1.092  12.425  22.846  0.00  0.00    +0.000 C 
ENDBRANCH  24  25
ENDBRANCH  23  24
ENDBRANCH  21  23
ENDBRANCH  19  20
ENDBRANCH   5  19
TORSDOF 12
ENDMDL
MODEL 6
REMARK VINA RESULT:      -6.4      1.336      1.766
REMARK  Name = 
REMARK  16 active torsions:
REMARK  status: ('A' for Active; 'I' for Inactive)
REMARK    1  A    between atoms: C_1  and  C_2
REMARK    2  A    between atoms: C_2  and  C_3
REMARK    3  A    between atoms: C_3  and  C_4
REMARK    4  A    between atoms: C_4  and  C_5
REMARK    5  A    between atoms: C_5  and  C_7
REMARK    6  A    between atoms: C_8  and  O_9
REMARK    7  A    between atoms: C_11  and  O_12
REMARK    8  A    between atoms: C_13  and  C_14
REMARK    9  A    between atoms: C_14  and  C_15
REMARK   10  A    between atoms: C_16  and  C_17
REMARK   11  A    between atoms: C_16  and  C_18
REMARK   12  A    between atoms: C_18  and  C_19
REMARK   13  A    between atoms: C_19  and  C_20
REMARK   14  A    between atoms: C_21  and  C_22
REMARK   15  A    between atoms: C_21  and  C_23
REMARK   16  A    between atoms: C_24  and  O_25
REMARK                            x       y       z     vdW  Elec       q    Type
REMARK                         _______ _______ _______ _____ _____    ______ ____
ROOT
ATOM      1  C   UNL     1       0.964  10.261  19.664  0.00  0.00    +0.000 A 
ATOM      2  C   UNL     1       0.796   9.882  21.008  0.00  0.00    +0.000 A 
ATOM      3  C   UNL     1       1.179   8.619  21.458  0.00  0.00    +0.000 A 
ATOM      4  C   UNL     1       1.705   7.698  20.558  0.00  0.00    +0.000 A 
ATOM      5  C   UNL     1       1.901   8.026  19.209  0.00  0.00    +0.000 A 
ATOM      6  C   UNL     1       1.552   9.326  18.786  0.00  0.00    +0.000 A 
ENDROOT
BRANCH   1   7
ATOM      7  C   UNL     1       0.506  11.629  19.237  0.00  0.00    +0.000 C 
ATOM      8  O   UNL     1       1.186  12.609  19.569  0.00  0.00    +0.000 OA
BRANCH   7   9
ATOM      9  C   UNL     1      -0.764  11.781  18.422  0.00  0.00    +0.000 C 
BRANCH   9  10
ATOM     10  C   UNL     1      -1.719  10.595  18.503  0.00  0.00    +0.000 C 
BRANCH  10  12
ATOM     11  C   UNL     1      -3.178  10.003  16.530  0.00  0.00    +0.000 C 
ATOM     12  C   UNL     1      -1.793   9.904  17.139  0.00  0.00    +0.000 C 
ENDBRANCH  10  12
ENDBRANCH   9  10
ENDBRANCH   7   9
ENDBRANCH   1   7
BRANCH   2  13
ATOM     13  O   UNL     1       0.254  10.701  21.967  0.00  0.00    +0.000 OA
ATOM     14  H   UNL     1       0.973  11.275  22.319  0.00  0.00    +0.000 HD
ENDBRANCH   2  13
BRANCH   4  15
ATOM     15  O   UNL     1       2.018   6.438  20.985  0.00  0.00    +0.000 OA
ATOM     16  H   UNL     1       1.225   6.026  21.368  0.00  0.00    +0.000 HD
ENDBRANCH   4  15
BRANCH   6  17
ATOM     17  O   UNL     1       1.782   9.670  17.481  0.00  0.00    +0.000 OA
ATOM     18  H   UNL     1       0.973  10.064  17.115  0.00  0.00    +0.000 HD
ENDBRANCH   6  17
BRANCH   5  19
ATOM     19  C   UNL     1       2.333   6.948  18.224  0.00  0.00    +0.000 C 
BRANCH  19  20
ATOM     20  C   UNL     1       3.588   6.256  18.690  0.00  0.00    +0.000 C 
ATOM     21  C   UNL     1       4.012   5.002  18.417  0.00  0.00    +0.000 C 
ATOM     22  C   UNL     1       3.293   4.078  17.471  0.00  0.00    +0.000 C 
BRANCH  21  23
ATOM     23  C   UNL     1       5.281   4.400  19.033  0.00  0.00    +0.000 C 
BRANCH  23  24
ATOM     24  C   UNL     1       6.550   4.579  18.183  0.00  0.00    +0.000 C 
BRANCH  24  25
ATOM     25  C   UNL     1       7.297   5.871  18.340  0.00  0.00    +0.000 C 
ATOM     26  C   UNL     1       7.141   6.912  17.494  0.00  0.00    +0.000 C 
ATOM     27  C   UNL     1       6.211   6.898  16.307  0.00  0.00    +0.000 C 
ATOM     28  C   UNL     1       7.898   8.198  17.672  0.00  0.00    +0.000 C 
ENDBRANCH  24  25
ENDBRANCH  23  24
ENDBRANCH  21  23
ENDBRANCH  19  20
ENDBRANCH   5  19
TORSDOF 12
ENDMDL
MODEL 7
REMARK VINA RESULT:      -6.4      4.001      7.301
REMARK  Name = 
REMARK  16 active torsions:
REMARK  status: ('A' for Active; 'I' for Inactive)
REMARK    1  A    between atoms: C_1  and  C_2
REMARK    2  A    between atoms: C_2  and  C_3
REMARK    3  A    between atoms: C_3  and  C_4
REMARK    4  A    between atoms: C_4  and  C_5
REMARK    5  A    between atoms: C_5  and  C_7
REMARK    6  A    between atoms: C_8  and  O_9
REMARK    7  A    between atoms: C_11  and  O_12
REMARK    8  A    between atoms: C_13  and  C_14
REMARK    9  A    between atoms: C_14  and  C_15
REMARK   10  A    between atoms: C_16  and  C_17
REMARK   11  A    between atoms: C_16  and  C_18
REMARK   12  A    between atoms: C_18  and  C_19
REMARK   13  A    between atoms: C_19  and  C_20
REMARK   14  A    between atoms: C_21  and  C_22
REMARK   15  A    between atoms: C_21  and  C_23
REMARK   16  A    between atoms: C_24  and  O_25
REMARK                            x       y       z     vdW  Elec       q    Type
REMARK                         _______ _______ _______ _____ _____    ______ ____
ROOT
ATOM      1  C   UNL     1       6.498   5.541  16.595  0.00  0.00    +0.000 A 
ATOM      2  C   UNL     1       7.359   6.487  17.179  0.00  0.00    +0.000 A 
ATOM      3  C   UNL     1       7.739   6.392  18.517  0.00  0.00    +0.000 A 
ATOM      4  C   UNL     1       7.231   5.364  19.305  0.00  0.00    +0.000 A 
ATOM      5  C   UNL     1       6.375   4.390  18.772  0.00  0.00    +0.000 A 
ATOM      6  C   UNL     1       6.043   4.479  17.404  0.00  0.00    +0.000 A 
ENDROOT
BRANCH   1   7
ATOM      7  C   UNL     1       6.106   5.716  15.153  0.00  0.00    +0.000 C 
ATOM      8  O   UNL     1       5.334   6.638  14.859  0.00  0.00    +0.000 OA
BRANCH   7   9
ATOM      9  C   UNL     1       6.653   4.770  14.100  0.00  0.00    +0.000 C 
BRANCH   9  10
ATOM     10  C   UNL     1       5.671   3.703  13.631  0.00  0.00    +0.000 C 
BRANCH  10  12
ATOM     11  C   UNL     1       4.507   3.137  11.463  0.00  0.00    +0.000 C 
ATOM     12  C   UNL     1       5.827   3.492  12.123  0.00  0.00    +0.000 C 
ENDBRANCH  10  12
ENDBRANCH   9  10
ENDBRANCH   7   9
ENDBRANCH   1   7
BRANCH   2  13
ATOM     13  O   UNL     1       7.886   7.558  16.501  0.00  0.00    +0.000 OA
ATOM     14  H   UNL     1       8.299   7.221  15.673  0.00  0.00    +0.000 HD
ENDBRANCH   2  13
BRANCH   4  15
ATOM     15  O   UNL     1       7.550   5.309  20.633  0.00  0.00    +0.000 OA
ATOM     16  H   UNL     1       6.909   5.839  21.137  0.00  0.00    +0.000 HD
ENDBRANCH   4  15
BRANCH   6  17
ATOM     17  O   UNL     1       5.244   3.506  16.864  0.00  0.00    +0.000 OA
ATOM     18  H   UNL     1       5.427   2.665  17.315  0.00  0.00    +0.000 HD
ENDBRANCH   6  17
BRANCH   5  19
ATOM     19  C   UNL     1       5.718   3.373  19.696  0.00  0.00    +0.000 C 
BRANCH  19  20
ATOM     20  C   UNL     1       4.260   3.689  19.903  0.00  0.00    +0.000 C 
ATOM     21  C   UNL     1       3.177   2.996  19.487  0.00  0.00    +0.000 C 
ATOM     22  C   UNL     1       3.272   1.667  18.785  0.00  0.00    +0.000 C 
BRANCH  21  23
ATOM     23  C   UNL     1       1.741   3.485  19.703  0.00  0.00    +0.000 C 
BRANCH  23  24
ATOM     24  C   UNL     1       1.198   4.387  18.582  0.00  0.00    +0.000 C 
BRANCH  24  25
ATOM     25  C   UNL     1       2.185   5.282  17.891  0.00  0.00    +0.000 C 
ATOM     26  C   UNL     1       2.617   6.444  18.427  0.00  0.00    +0.000 C 
ATOM     27  C   UNL     1       2.162   6.973  19.763  0.00  0.00    +0.000 C 
ATOM     28  C   UNL     1       3.608   7.324  17.718  0.00  0.00    +0.000 C 
ENDBRANCH  24  25
ENDBRANCH  23  24
ENDBRANCH  21  23
ENDBRANCH  19  20
ENDBRANCH   5  19
TORSDOF 12
ENDMDL
MODEL 8
REMARK VINA RESULT:      -6.3      2.208      8.082
REMARK  Name = 
REMARK  16 active torsions:
REMARK  status: ('A' for Active; 'I' for Inactive)
REMARK    1  A    between atoms: C_1  and  C_2
REMARK    2  A    between atoms: C_2  and  C_3
REMARK    3  A    between atoms: C_3  and  C_4
REMARK    4  A    between atoms: C_4  and  C_5
REMARK    5  A    between atoms: C_5  and  C_7
REMARK    6  A    between atoms: C_8  and  O_9
REMARK    7  A    between atoms: C_11  and  O_12
REMARK    8  A    between atoms: C_13  and  C_14
REMARK    9  A    between atoms: C_14  and  C_15
REMARK   10  A    between atoms: C_16  and  C_17
REMARK   11  A    between atoms: C_16  and  C_18
REMARK   12  A    between atoms: C_18  and  C_19
REMARK   13  A    between atoms: C_19  and  C_20
REMARK   14  A    between atoms: C_21  and  C_22
REMARK   15  A    between atoms: C_21  and  C_23
REMARK   16  A    between atoms: C_24  and  O_25
REMARK                            x       y       z     vdW  Elec       q    Type
REMARK                         _______ _______ _______ _____ _____    ______ ____
ROOT
ATOM      1  C   UNL     1       5.461   6.085  17.607  0.00  0.00    +0.000 A 
ATOM      2  C   UNL     1       5.409   5.397  18.833  0.00  0.00    +0.000 A 
ATOM      3  C   UNL     1       4.258   5.404  19.619  0.00  0.00    +0.000 A 
ATOM      4  C   UNL     1       3.146   6.131  19.206  0.00  0.00    +0.000 A 
ATOM      5  C   UNL     1       3.140   6.828  17.989  0.00  0.00    +0.000 A 
ATOM      6  C   UNL     1       4.300   6.768  17.187  0.00  0.00    +0.000 A 
ENDROOT
BRANCH   1   7
ATOM      7  C   UNL     1       6.743   6.061  16.819  0.00  0.00    +0.000 C 
ATOM      8  O   UNL     1       7.459   7.071  16.827  0.00  0.00    +0.000 OA
BRANCH   7   9
ATOM      9  C   UNL     1       7.127   4.818  16.039  0.00  0.00    +0.000 C 
BRANCH   9  10
ATOM     10  C   UNL     1       6.910   4.920  14.533  0.00  0.00    +0.000 C 
BRANCH  10  12
ATOM     11  C   UNL     1       6.177   3.522  12.562  0.00  0.00    +0.000 C 
ATOM     12  C   UNL     1       6.058   3.739  14.059  0.00  0.00    +0.000 C 
ENDBRANCH  10  12
ENDBRANCH   9  10
ENDBRANCH   7   9
ENDBRANCH   1   7
BRANCH   2  13
ATOM     13  O   UNL     1       6.461   4.682  19.349  0.00  0.00    +0.000 OA
ATOM     14  H   UNL     1       7.158   4.623  18.656  0.00  0.00    +0.000 HD
ENDBRANCH   2  13
BRANCH   4  15
ATOM     15  O   UNL     1       2.041   6.192  20.008  0.00  0.00    +0.000 OA
ATOM     16  H   UNL     1       2.240   6.743  20.783  0.00  0.00    +0.000 HD
ENDBRANCH   4  15
BRANCH   6  17
ATOM     17  O   UNL     1       4.288   7.408  15.977  0.00  0.00    +0.000 OA
ATOM     18  H   UNL     1       4.584   6.786  15.292  0.00  0.00    +0.000 HD
ENDBRANCH   6  17
BRANCH   5  19
ATOM     19  C   UNL     1       1.968   7.736  17.643  0.00  0.00    +0.000 C 
BRANCH  19  20
ATOM     20  C   UNL     1       2.163   9.117  18.212  0.00  0.00    +0.000 C 
ATOM     21  C   UNL     1       1.257  10.110  18.351  0.00  0.00    +0.000 C 
ATOM     22  C   UNL     1      -0.202   9.943  18.019  0.00  0.00    +0.000 C 
BRANCH  21  23
ATOM     23  C   UNL     1       1.622  11.503  18.876  0.00  0.00    +0.000 C 
BRANCH  23  24
ATOM     24  C   UNL     1       1.328  11.719  20.370  0.00  0.00    +0.000 C 
BRANCH  24  25
ATOM     25  C   UNL     1       0.943  10.509  21.170  0.00  0.00    +0.000 C 
ATOM     26  C   UNL     1      -0.163  10.466  21.943  0.00  0.00    +0.000 C 
ATOM     27  C   UNL     1      -1.128  11.615  22.094  0.00  0.00    +0.000 C 
ATOM     28  C   UNL     1      -0.531   9.242  22.734  0.00  0.00    +0.000 C 
ENDBRANCH  24  25
ENDBRANCH  23  24
ENDBRANCH  21  23
ENDBRANCH  19  20
ENDBRANCH   5  19
TORSDOF 12
ENDMDL
MODEL 9
REMARK VINA RESULT:      -6.3      3.777      7.576
REMARK  Name = 
REMARK  16 active torsions:
REMARK  status: ('A' for Active; 'I' for Inactive)
REMARK    1  A    between atoms: C_1  and  C_2
REMARK    2  A    between atoms: C_2  and  C_3
REMARK    3  A    between atoms: C_3  and  C_4
REMARK    4  A    between atoms: C_4  and  C_5
REMARK    5  A    between atoms: C_5  and  C_7
REMARK    6  A    between atoms: C_8  and  O_9
REMARK    7  A    between atoms: C_11  and  O_12
REMARK    8  A    between atoms: C_13  and  C_14
REMARK    9  A    between atoms: C_14  and  C_15
REMARK   10  A    between atoms: C_16  and  C_17
REMARK   11  A    between atoms: C_16  and  C_18
REMARK   12  A    between atoms: C_18  and  C_19
REMARK   13  A    between atoms: C_19  and  C_20
REMARK   14  A    between atoms: C_21  and  C_22
REMARK   15  A    between atoms: C_21  and  C_23
REMARK   16  A    between atoms: C_24  and  O_25
REMARK                            x       y       z     vdW  Elec       q    Type
REMARK                         _______ _______ _______ _____ _____    ______ ____
ROOT
ATOM      1  C   UNL     1       6.460   4.991  16.137  0.00  0.00    +0.000 A 
ATOM      2  C   UNL     1       7.216   4.544  17.236  0.00  0.00    +0.000 A 
ATOM      3  C   UNL     1       6.747   4.684  18.542  0.00  0.00    +0.000 A 
ATOM      4  C   UNL     1       5.526   5.309  18.772  0.00  0.00    +0.000 A 
ATOM      5  C   UNL     1       4.728   5.765  17.713  0.00  0.00    +0.000 A 
ATOM      6  C   UNL     1       5.200   5.570  16.398  0.00  0.00    +0.000 A 
ENDROOT
BRANCH   1   7
ATOM      7  C   UNL     1       7.034   4.834  14.755  0.00  0.00    +0.000 C 
ATOM      8  O   UNL     1       7.905   5.632  14.384  0.00  0.00    +0.000 OA
BRANCH   7   9
ATOM      9  C   UNL     1       6.540   3.719  13.853  0.00  0.00    +0.000 C 
BRANCH   9  10
ATOM     10  C   UNL     1       5.185   3.978  13.203  0.00  0.00    +0.000 C 
BRANCH  10  12
ATOM     11  C   UNL     1       6.124   2.164  11.719  0.00  0.00    +0.000 C 
ATOM     12  C   UNL     1       5.146   3.319  11.822  0.00  0.00    +0.000 C 
ENDBRANCH  10  12
ENDBRANCH   9  10
ENDBRANCH   7   9
ENDBRANCH   1   7
BRANCH   2  13
ATOM     13  O   UNL     1       8.447   3.950  17.121  0.00  0.00    +0.000 OA
ATOM     14  H   UNL     1       8.663   3.878  16.163  0.00  0.00    +0.000 HD
ENDBRANCH   2  13
BRANCH   4  15
ATOM     15  O   UNL     1       5.098   5.506  20.055  0.00  0.00    +0.000 OA
ATOM     16  H   UNL     1       5.608   6.232  20.452  0.00  0.00    +0.000 HD
ENDBRANCH   4  15
BRANCH   6  17
ATOM     17  O   UNL     1       4.407   5.972  15.355  0.00  0.00    +0.000 OA
ATOM     18  H   UNL     1       3.832   5.232  15.097  0.00  0.00    +0.000 HD
ENDBRANCH   6  17
BRANCH   5  19
ATOM     19  C   UNL     1       3.475   6.579  18.006  0.00  0.00    +0.000 C 
BRANCH  19  20
ATOM     20  C   UNL     1       2.389   5.714  18.591  0.00  0.00    +0.000 C 
ATOM     21  C   UNL     1       1.753   5.843  19.776  0.00  0.00    +0.000 C 
ATOM     22  C   UNL     1       1.985   6.999  20.713  0.00  0.00    +0.000 C 
BRANCH  21  23
ATOM     23  C   UNL     1       0.717   4.831  20.279  0.00  0.00    +0.000 C 
BRANCH  23  24
ATOM     24  C   UNL     1       1.095   3.359  20.046  0.00  0.00    +0.000 C 
BRANCH  24  25
ATOM     25  C   UNL     1       2.417   2.902  20.589  0.00  0.00    +0.000 C 
ATOM     26  C   UNL     1       3.390   2.387  19.807  0.00  0.00    +0.000 C 
ATOM     27  C   UNL     1       3.263   2.212  18.315  0.00  0.00    +0.000 C 
ATOM     28  C   UNL     1       4.707   1.938  20.373  0.00  0.00    +0.000 C 
ENDBRANCH  24  25
ENDBRANCH  23  24
ENDBRANCH  21  23
ENDBRANCH  19  20
ENDBRANCH   5  19
TORSDOF 12
ENDMDL
