MODEL 1
REMARK VINA RESULT:      -8.4      0.000      0.000
REMARK  Name = 
REMARK  18 active torsions:
REMARK  status: ('A' for Active; 'I' for Inactive)
REMARK    1  A    between atoms: C_1  and  C_2
REMARK    2  A    between atoms: C_2  and  C_3
REMARK    3  A    between atoms: C_4  and  C_5
REMARK    4  A    between atoms: C_5  and  C_6
REMARK    5  A    between atoms: C_6  and  C_7
REMARK    6  A    between atoms: C_7  and  C_8
REMARK    7  A    between atoms: C_9  and  C_10
REMARK    8  A    between atoms: C_10  and  C_11
REMARK    9  A    between atoms: C_11  and  C_12
REMARK   10  A    between atoms: C_12  and  C_13
REMARK   11  A    between atoms: C_14  and  C_15
REMARK   12  A    between atoms: C_15  and  C_16
REMARK   13  A    between atoms: C_17  and  O_18
REMARK   14  A    between atoms: C_20  and  C_21
REMARK   15  A    between atoms: C_22  and  C_23
REMARK   16  A    between atoms: C_26  and  O_27
REMARK   17  A    between atoms: C_28  and  O_29
REMARK   18  A    between atoms: C_32  and  O_33
REMARK                            x       y       z     vdW  Elec       q    Type
REMARK                         _______ _______ _______ _____ _____    ______ ____
ROOT
ATOM      1  C   UNL     1       6.676   5.633  18.066  0.00  0.00    +0.000 A 
ATOM      2  C   UNL     1       7.676   6.044  18.958  0.00  0.00    +0.000 A 
ATOM      3  C   UNL     1       8.245   7.315  18.880  0.00  0.00    +0.000 A 
ATOM      4  C   UNL     1       7.850   8.214  17.888  0.00  0.00    +0.000 A 
ATOM      5  C   UNL     1       6.861   7.819  16.981  0.00  0.00    +0.000 A 
ATOM      6  C   UNL     1       6.296   6.544  17.066  0.00  0.00    +0.000 A 
ENDROOT
BRANCH   2   7
ATOM      7  O   UNL     1       8.168   5.256  19.963  0.00  0.00    +0.000 OA
ATOM      8  H   UNL     1       8.622   4.493  19.579  0.00  0.00    +0.000 HD
ENDBRANCH   2   7
BRANCH   4   9
ATOM      9  C   UNL     1       8.398   9.572  17.789  0.00  0.00    +0.000 C 
ATOM     10  C   UNL     1       9.316  10.075  18.630  0.00  0.00    +0.000 C 
BRANCH  10  11
ATOM     11  C   UNL     1       9.896  11.418  18.498  0.00  0.00    +0.000 A 
ATOM     12  C   UNL     1      11.229  11.700  18.844  0.00  0.00    +0.000 A 
ATOM     13  C   UNL     1      11.744  12.993  18.727  0.00  0.00    +0.000 A 
ATOM     14  C   UNL     1      10.925  14.005  18.243  0.00  0.00    +0.000 A 
ATOM     15  C   UNL     1       9.615  13.726  17.860  0.00  0.00    +0.000 A 
ATOM     16  C   UNL     1       9.096  12.444  17.978  0.00  0.00    +0.000 A 
BRANCH  14  17
ATOM     17  O   UNL     1      11.364  15.292  18.122  0.00  0.00    +0.000 OA
ATOM     18  H   UNL     1      12.140  15.400  18.700  0.00  0.00    +0.000 HD
ENDBRANCH  14  17
BRANCH  15  19
ATOM     19  O   UNL     1       8.821  14.723  17.369  0.00  0.00    +0.000 OA
ATOM     20  H   UNL     1       9.384  15.522  17.403  0.00  0.00    +0.000 HD
ENDBRANCH  15  19
ENDBRANCH  10  11
ENDBRANCH   4   9
BRANCH   6  21
ATOM     21  O   UNL     1       5.341   6.182  16.153  0.00  0.00    +0.000 OA
ATOM     22  H   UNL     1       5.239   6.894  15.500  0.00  0.00    +0.000 HD
ENDBRANCH   6  21
BRANCH   1  23
ATOM     23  C   UNL     1       5.987   4.291  18.188  0.00  0.00    +0.000 C 
BRANCH  23  26
ATOM     24  C   UNL     1       3.740   3.528  19.116  0.00  0.00    +0.000 C 
ATOM     25  C   UNL     1       3.612   2.458  18.057  0.00  0.00    +0.000 C 
ATOM     26  C   UNL     1       4.827   4.326  19.154  0.00  0.00    +0.000 C 
BRANCH  24  27
ATOM     27  C   UNL     1       2.625   3.770  20.124  0.00  0.00    +0.000 C 
BRANCH  27  28
ATOM     28  C   UNL     1       1.584   4.778  19.652  0.00  0.00    +0.000 C 
BRANCH  28  31
ATOM     29  C   UNL     1       2.290   7.065  18.998  0.00  0.00    +0.000 C 
ATOM     30  C   UNL     1       2.144   7.485  20.444  0.00  0.00    +0.000 C 
ATOM     31  C   UNL     1       2.027   5.791  18.639  0.00  0.00    +0.000 C 
BRANCH  29  32
ATOM     32  C   UNL     1       2.744   8.056  17.947  0.00  0.00    +0.000 C 
BRANCH  32  33
ATOM     33  C   UNL     1       1.727   9.141  17.589  0.00  0.00    +0.000 C 
BRANCH  33  37
ATOM     34  C   UNL     1      -0.774  10.769  20.081  0.00  0.00    +0.000 C 
ATOM     35  C   UNL     1      -0.233  10.114  18.842  0.00  0.00    +0.000 C 
ATOM     36  C   UNL     1      -1.185   9.905  17.694  0.00  0.00    +0.000 C 
ATOM     37  C   UNL     1       1.054   9.731  18.792  0.00  0.00    +0.000 C 
ENDBRANCH  33  37
ENDBRANCH  32  33
ENDBRANCH  29  32
ENDBRANCH  28  31
ENDBRANCH  27  28
ENDBRANCH  24  27
ENDBRANCH  23  26
ENDBRANCH   1  23
TORSDOF 14
ENDMDL
MODEL 2
REMARK VINA RESULT:      -8.3      1.303      1.668
REMARK  Name = 
REMARK  18 active torsions:
REMARK  status: ('A' for Active; 'I' for Inactive)
REMARK    1  A    between atoms: C_1  and  C_2
REMARK    2  A    between atoms: C_2  and  C_3
REMARK    3  A    between atoms: C_4  and  C_5
REMARK    4  A    between atoms: C_5  and  C_6
REMARK    5  A    between atoms: C_6  and  C_7
REMARK    6  A    between atoms: C_7  and  C_8
REMARK    7  A    between atoms: C_9  and  C_10
REMARK    8  A    between atoms: C_10  and  C_11
REMARK    9  A    between atoms: C_11  and  C_12
REMARK   10  A    between atoms: C_12  and  C_13
REMARK   11  A    between atoms: C_14  and  C_15
REMARK   12  A    between atoms: C_15  and  C_16
REMARK   13  A    between atoms: C_17  and  O_18
REMARK   14  A    between atoms: C_20  and  C_21
REMARK   15  A    between atoms: C_22  and  C_23
REMARK   16  A    between atoms: C_26  and  O_27
REMARK   17  A    between atoms: C_28  and  O_29
REMARK   18  A    between atoms: C_32  and  O_33
REMARK                            x       y       z     vdW  Elec       q    Type
REMARK                         _______ _______ _______ _____ _____    ______ ____
ROOT
ATOM      1  C   UNL     1       5.885   5.165  16.769  0.00  0.00    +0.000 A 
ATOM      2  C   UNL     1       6.695   4.956  17.893  0.00  0.00    +0.000 A 
ATOM      3  C   UNL     1       7.468   5.983  18.435  0.00  0.00    +0.000 A 
ATOM      4  C   UNL     1       7.478   7.252  17.853  0.00  0.00    +0.000 A 
ATOM      5  C   UNL     1       6.684   7.477  16.724  0.00  0.00    +0.000 A 
ATOM      6  C   UNL     1       5.911   6.444  16.188  0.00  0.00    +0.000 A 
ENDROOT
BRANCH   2   7
ATOM      7  O   UNL     1       6.794   3.758  18.547  0.00  0.00    +0.000 OA
ATOM      8  H   UNL     1       7.278   3.883  19.375  0.00  0.00    +0.000 HD
ENDBRANCH   2   7
BRANCH   4   9
ATOM      9  C   UNL     1       8.250   8.370  18.408  0.00  0.00    +0.000 C 
ATOM     10  C   UNL     1       8.371   9.568  17.813  0.00  0.00    +0.000 C 
BRANCH  10  11
ATOM     11  C   UNL     1       9.106  10.699  18.396  0.00  0.00    +0.000 A 
ATOM     12  C   UNL     1       9.861  10.579  19.576  0.00  0.00    +0.000 A 
ATOM     13  C   UNL     1      10.531  11.679  20.116  0.00  0.00    +0.000 A 
ATOM     14  C   UNL     1      10.460  12.901  19.459  0.00  0.00    +0.000 A 
ATOM     15  C   UNL     1       9.748  13.018  18.269  0.00  0.00    +0.000 A 
ATOM     16  C   UNL     1       9.077  11.930  17.729  0.00  0.00    +0.000 A 
BRANCH  14  17
ATOM     17  O   UNL     1      11.078  14.018  19.946  0.00  0.00    +0.000 OA
ATOM     18  H   UNL     1      11.113  13.942  20.915  0.00  0.00    +0.000 HD
ENDBRANCH  14  17
BRANCH  15  19
ATOM     19  O   UNL     1       9.696  14.220  17.620  0.00  0.00    +0.000 OA
ATOM     20  H   UNL     1      10.631  14.498  17.549  0.00  0.00    +0.000 HD
ENDBRANCH  15  19
ENDBRANCH  10  11
ENDBRANCH   4   9
BRANCH   6  21
ATOM     21  O   UNL     1       5.156   6.692  15.072  0.00  0.00    +0.000 OA
ATOM     22  H   UNL     1       4.224   6.503  15.269  0.00  0.00    +0.000 HD
ENDBRANCH   6  21
BRANCH   1  23
ATOM     23  C   UNL     1       4.974   4.088  16.219  0.00  0.00    +0.000 C 
BRANCH  23  26
ATOM     24  C   UNL     1       3.122   3.030  17.614  0.00  0.00    +0.000 C 
ATOM     25  C   UNL     1       3.920   1.759  17.796  0.00  0.00    +0.000 C 
ATOM     26  C   UNL     1       3.631   4.062  16.911  0.00  0.00    +0.000 C 
BRANCH  24  27
ATOM     27  C   UNL     1       1.709   3.153  18.167  0.00  0.00    +0.000 C 
BRANCH  27  28
ATOM     28  C   UNL     1       1.644   3.835  19.528  0.00  0.00    +0.000 C 
BRANCH  28  31
ATOM     29  C   UNL     1       2.435   6.182  19.688  0.00  0.00    +0.000 C 
ATOM     30  C   UNL     1       3.845   5.658  19.844  0.00  0.00    +0.000 C 
ATOM     31  C   UNL     1       1.411   5.317  19.537  0.00  0.00    +0.000 C 
BRANCH  29  32
ATOM     32  C   UNL     1       2.160   7.671  19.682  0.00  0.00    +0.000 C 
BRANCH  32  33
ATOM     33  C   UNL     1       1.900   8.282  18.305  0.00  0.00    +0.000 C 
BRANCH  33  37
ATOM     34  C   UNL     1       1.312  12.121  18.491  0.00  0.00    +0.000 C 
ATOM     35  C   UNL     1       1.074  10.644  18.622  0.00  0.00    +0.000 C 
ATOM     36  C   UNL     1      -0.269  10.199  19.138  0.00  0.00    +0.000 C 
ATOM     37  C   UNL     1       2.044   9.775  18.292  0.00  0.00    +0.000 C 
ENDBRANCH  33  37
ENDBRANCH  32  33
ENDBRANCH  29  32
ENDBRANCH  28  31
ENDBRANCH  27  28
ENDBRANCH  24  27
ENDBRANCH  23  26
ENDBRANCH   1  23
TORSDOF 14
ENDMDL
MODEL 3
REMARK VINA RESULT:      -8.0      1.260      1.636
REMARK  Name = 
REMARK  18 active torsions:
REMARK  status: ('A' for Active; 'I' for Inactive)
REMARK    1  A    between atoms: C_1  and  C_2
REMARK    2  A    between atoms: C_2  and  C_3
REMARK    3  A    between atoms: C_4  and  C_5
REMARK    4  A    between atoms: C_5  and  C_6
REMARK    5  A    between atoms: C_6  and  C_7
REMARK    6  A    between atoms: C_7  and  C_8
REMARK    7  A    between atoms: C_9  and  C_10
REMARK    8  A    between atoms: C_10  and  C_11
REMARK    9  A    between atoms: C_11  and  C_12
REMARK   10  A    between atoms: C_12  and  C_13
REMARK   11  A    between atoms: C_14  and  C_15
REMARK   12  A    between atoms: C_15  and  C_16
REMARK   13  A    between atoms: C_17  and  O_18
REMARK   14  A    between atoms: C_20  and  C_21
REMARK   15  A    between atoms: C_22  and  C_23
REMARK   16  A    between atoms: C_26  and  O_27
REMARK   17  A    between atoms: C_28  and  O_29
REMARK   18  A    between atoms: C_32  and  O_33
REMARK                            x       y       z     vdW  Elec       q    Type
REMARK                         _______ _______ _______ _____ _____    ______ ____
ROOT
ATOM      1  C   UNL     1       6.483   5.228  16.821  0.00  0.00    +0.000 A 
ATOM      2  C   UNL     1       7.517   5.108  17.759  0.00  0.00    +0.000 A 
ATOM      3  C   UNL     1       8.126   6.231  18.320  0.00  0.00    +0.000 A 
ATOM      4  C   UNL     1       7.737   7.517  17.942  0.00  0.00    +0.000 A 
ATOM      5  C   UNL     1       6.714   7.658  16.999  0.00  0.00    +0.000 A 
ATOM      6  C   UNL     1       6.109   6.528  16.442  0.00  0.00    +0.000 A 
ENDROOT
BRANCH   2   7
ATOM      7  O   UNL     1       8.007   3.909  18.201  0.00  0.00    +0.000 OA
ATOM      8  H   UNL     1       7.384   3.205  17.973  0.00  0.00    +0.000 HD
ENDBRANCH   2   7
BRANCH   4   9
ATOM      9  C   UNL     1       8.327   8.726  18.530  0.00  0.00    +0.000 C 
ATOM     10  C   UNL     1       8.633   9.829  17.829  0.00  0.00    +0.000 C 
BRANCH  10  11
ATOM     11  C   UNL     1       9.180  11.053  18.430  0.00  0.00    +0.000 A 
ATOM     12  C   UNL     1       9.955  11.035  19.603  0.00  0.00    +0.000 A 
ATOM     13  C   UNL     1      10.442  12.220  20.161  0.00  0.00    +0.000 A 
ATOM     14  C   UNL     1      10.166  13.426  19.531  0.00  0.00    +0.000 A 
ATOM     15  C   UNL     1       9.433  13.449  18.347  0.00  0.00    +0.000 A 
ATOM     16  C   UNL     1       8.943  12.276  17.790  0.00  0.00    +0.000 A 
BRANCH  14  17
ATOM     17  O   UNL     1      10.598  14.619  20.036  0.00  0.00    +0.000 OA
ATOM     18  H   UNL     1      10.200  14.733  20.917  0.00  0.00    +0.000 HD
ENDBRANCH  14  17
BRANCH  15  19
ATOM     19  O   UNL     1       9.180  14.638  17.724  0.00  0.00    +0.000 OA
ATOM     20  H   UNL     1       9.647  14.568  16.867  0.00  0.00    +0.000 HD
ENDBRANCH  15  19
ENDBRANCH  10  11
ENDBRANCH   4   9
BRANCH   6  21
ATOM     21  O   UNL     1       5.120   6.699  15.509  0.00  0.00    +0.000 OA
ATOM     22  H   UNL     1       4.265   6.460  15.903  0.00  0.00    +0.000 HD
ENDBRANCH   6  21
BRANCH   1  23
ATOM     23  C   UNL     1       5.753   4.023  16.266  0.00  0.00    +0.000 C 
BRANCH  23  26
ATOM     24  C   UNL     1       3.785   3.530  17.808  0.00  0.00    +0.000 C 
ATOM     25  C   UNL     1       4.700   2.970  18.873  0.00  0.00    +0.000 C 
ATOM     26  C   UNL     1       4.293   4.007  16.653  0.00  0.00    +0.000 C 
BRANCH  24  27
ATOM     27  C   UNL     1       2.274   3.514  17.987  0.00  0.00    +0.000 C 
BRANCH  27  28
ATOM     28  C   UNL     1       1.640   4.899  17.941  0.00  0.00    +0.000 C 
BRANCH  28  31
ATOM     29  C   UNL     1       2.086   6.895  19.348  0.00  0.00    +0.000 C 
ATOM     30  C   UNL     1       2.760   7.539  18.157  0.00  0.00    +0.000 C 
ATOM     31  C   UNL     1       1.562   5.657  19.233  0.00  0.00    +0.000 C 
BRANCH  29  32
ATOM     32  C   UNL     1       1.979   7.630  20.667  0.00  0.00    +0.000 C 
BRANCH  32  33
ATOM     33  C   UNL     1       0.758   8.540  20.811  0.00  0.00    +0.000 C 
BRANCH  33  37
ATOM     34  C   UNL     1       0.736  12.025  19.088  0.00  0.00    +0.000 C 
ATOM     35  C   UNL     1       0.315  10.639  19.485  0.00  0.00    +0.000 C 
ATOM     36  C   UNL     1      -0.923  10.077  18.840  0.00  0.00    +0.000 C 
ATOM     37  C   UNL     1       1.031   9.954  20.393  0.00  0.00    +0.000 C 
ENDBRANCH  33  37
ENDBRANCH  32  33
ENDBRANCH  29  32
ENDBRANCH  28  31
ENDBRANCH  27  28
ENDBRANCH  24  27
ENDBRANCH  23  26
ENDBRANCH   1  23
TORSDOF 14
ENDMDL
MODEL 4
REMARK VINA RESULT:      -7.9      1.638      2.716
REMARK  Name = 
REMARK  18 active torsions:
REMARK  status: ('A' for Active; 'I' for Inactive)
REMARK    1  A    between atoms: C_1  and  C_2
REMARK    2  A    between atoms: C_2  and  C_3
REMARK    3  A    between atoms: C_4  and  C_5
REMARK    4  A    between atoms: C_5  and  C_6
REMARK    5  A    between atoms: C_6  and  C_7
REMARK    6  A    between atoms: C_7  and  C_8
REMARK    7  A    between atoms: C_9  and  C_10
REMARK    8  A    between atoms: C_10  and  C_11
REMARK    9  A    between atoms: C_11  and  C_12
REMARK   10  A    between atoms: C_12  and  C_13
REMARK   11  A    between atoms: C_14  and  C_15
REMARK   12  A    between atoms: C_15  and  C_16
REMARK   13  A    between atoms: C_17  and  O_18
REMARK   14  A    between atoms: C_20  and  C_21
REMARK   15  A    between atoms: C_22  and  C_23
REMARK   16  A    between atoms: C_26  and  O_27
REMARK   17  A    between atoms: C_28  and  O_29
REMARK   18  A    between atoms: C_32  and  O_33
REMARK                            x       y       z     vdW  Elec       q    Type
REMARK                         _______ _______ _______ _____ _____    ______ ____
ROOT
ATOM      1  C   UNL     1       6.433   5.104  16.753  0.00  0.00    +0.000 A 
ATOM      2  C   UNL     1       5.799   6.284  16.341  0.00  0.00    +0.000 A 
ATOM      3  C   UNL     1       6.257   7.537  16.747  0.00  0.00    +0.000 A 
ATOM      4  C   UNL     1       7.354   7.653  17.604  0.00  0.00    +0.000 A 
ATOM      5  C   UNL     1       7.993   6.486  18.035  0.00  0.00    +0.000 A 
ATOM      6  C   UNL     1       7.529   5.234  17.622  0.00  0.00    +0.000 A 
ENDROOT
BRANCH   2   7
ATOM      7  O   UNL     1       4.705   6.312  15.520  0.00  0.00    +0.000 OA
ATOM      8  H   UNL     1       4.470   7.231  15.330  0.00  0.00    +0.000 HD
ENDBRANCH   2   7
BRANCH   4   9
ATOM      9  C   UNL     1       7.890   8.951  18.030  0.00  0.00    +0.000 C 
ATOM     10  C   UNL     1       8.937   9.096  18.858  0.00  0.00    +0.000 C 
BRANCH  10  11
ATOM     11  C   UNL     1       9.499  10.397  19.245  0.00  0.00    +0.000 A 
ATOM     12  C   UNL     1      10.214  11.205  18.343  0.00  0.00    +0.000 A 
ATOM     13  C   UNL     1      10.755  12.428  18.748  0.00  0.00    +0.000 A 
ATOM     14  C   UNL     1      10.562  12.851  20.057  0.00  0.00    +0.000 A 
ATOM     15  C   UNL     1       9.821  12.075  20.944  0.00  0.00    +0.000 A 
ATOM     16  C   UNL     1       9.284  10.858  20.550  0.00  0.00    +0.000 A 
BRANCH  14  17
ATOM     17  O   UNL     1      11.080  14.028  20.518  0.00  0.00    +0.000 OA
ATOM     18  H   UNL     1      10.800  14.736  19.912  0.00  0.00    +0.000 HD
ENDBRANCH  14  17
BRANCH  15  19
ATOM     19  O   UNL     1       9.621  12.506  22.225  0.00  0.00    +0.000 OA
ATOM     20  H   UNL     1       9.346  11.704  22.712  0.00  0.00    +0.000 HD
ENDBRANCH  15  19
ENDBRANCH  10  11
ENDBRANCH   4   9
BRANCH   6  21
ATOM     21  O   UNL     1       8.167   4.110  18.074  0.00  0.00    +0.000 OA
ATOM     22  H   UNL     1       8.778   4.356  18.788  0.00  0.00    +0.000 HD
ENDBRANCH   6  21
BRANCH   1  23
ATOM     23  C   UNL     1       6.003   3.740  16.254  0.00  0.00    +0.000 C 
BRANCH  23  26
ATOM     24  C   UNL     1       3.952   3.253  17.685  0.00  0.00    +0.000 C 
ATOM     25  C   UNL     1       4.773   3.276  18.954  0.00  0.00    +0.000 C 
ATOM     26  C   UNL     1       4.534   3.479  16.490  0.00  0.00    +0.000 C 
BRANCH  24  27
ATOM     27  C   UNL     1       2.467   2.918  17.720  0.00  0.00    +0.000 C 
BRANCH  27  28
ATOM     28  C   UNL     1       1.564   4.130  17.527  0.00  0.00    +0.000 C 
BRANCH  28  31
ATOM     29  C   UNL     1       1.401   4.967  19.859  0.00  0.00    +0.000 C 
ATOM     30  C   UNL     1       1.026   3.569  20.296  0.00  0.00    +0.000 C 
ATOM     31  C   UNL     1       1.654   5.218  18.557  0.00  0.00    +0.000 C 
BRANCH  29  32
ATOM     32  C   UNL     1       1.512   6.089  20.868  0.00  0.00    +0.000 C 
BRANCH  32  33
ATOM     33  C   UNL     1       2.256   7.334  20.383  0.00  0.00    +0.000 C 
BRANCH  33  37
ATOM     34  C   UNL     1       0.354  10.480  19.115  0.00  0.00    +0.000 C 
ATOM     35  C   UNL     1       1.219   9.252  19.114  0.00  0.00    +0.000 C 
ATOM     36  C   UNL     1       1.892   8.876  17.821  0.00  0.00    +0.000 C 
ATOM     37  C   UNL     1       1.361   8.530  20.239  0.00  0.00    +0.000 C 
ENDBRANCH  33  37
ENDBRANCH  32  33
ENDBRANCH  29  32
ENDBRANCH  28  31
ENDBRANCH  27  28
ENDBRANCH  24  27
ENDBRANCH  23  26
ENDBRANCH   1  23
TORSDOF 14
ENDMDL
MODEL 5
REMARK VINA RESULT:      -7.8      1.813      3.532
REMARK  Name = 
REMARK  18 active torsions:
REMARK  status: ('A' for Active; 'I' for Inactive)
REMARK    1  A    between atoms: C_1  and  C_2
REMARK    2  A    between atoms: C_2  and  C_3
REMARK    3  A    between atoms: C_4  and  C_5
REMARK    4  A    between atoms: C_5  and  C_6
REMARK    5  A    between atoms: C_6  and  C_7
REMARK    6  A    between atoms: C_7  and  C_8
REMARK    7  A    between atoms: C_9  and  C_10
REMARK    8  A    between atoms: C_10  and  C_11
REMARK    9  A    between atoms: C_11  and  C_12
REMARK   10  A    between atoms: C_12  and  C_13
REMARK   11  A    between atoms: C_14  and  C_15
REMARK   12  A    between atoms: C_15  and  C_16
REMARK   13  A    between atoms: C_17  and  O_18
REMARK   14  A    between atoms: C_20  and  C_21
REMARK   15  A    between atoms: C_22  and  C_23
REMARK   16  A    between atoms: C_26  and  O_27
REMARK   17  A    between atoms: C_28  and  O_29
REMARK   18  A    between atoms: C_32  and  O_33
REMARK                            x       y       z     vdW  Elec       q    Type
REMARK                         _______ _______ _______ _____ _____    ______ ____
ROOT
ATOM      1  C   UNL     1       7.511   5.832  17.850  0.00  0.00    +0.000 A 
ATOM      2  C   UNL     1       7.229   6.923  17.017  0.00  0.00    +0.000 A 
ATOM      3  C   UNL     1       7.632   8.216  17.348  0.00  0.00    +0.000 A 
ATOM      4  C   UNL     1       8.312   8.468  18.540  0.00  0.00    +0.000 A 
ATOM      5  C   UNL     1       8.594   7.394  19.391  0.00  0.00    +0.000 A 
ATOM      6  C   UNL     1       8.187   6.101  19.051  0.00  0.00    +0.000 A 
ENDROOT
BRANCH   2   7
ATOM      7  O   UNL     1       6.553   6.818  15.832  0.00  0.00    +0.000 OA
ATOM      8  H   UNL     1       5.654   7.159  15.943  0.00  0.00    +0.000 HD
ENDBRANCH   2   7
BRANCH   4   9
ATOM      9  C   UNL     1       8.785   9.807  18.913  0.00  0.00    +0.000 C 
ATOM     10  C   UNL     1       9.378  10.658  18.061  0.00  0.00    +0.000 C 
BRANCH  10  11
ATOM     11  C   UNL     1       9.806  12.016  18.427  0.00  0.00    +0.000 A 
ATOM     12  C   UNL     1      10.621  12.272  19.542  0.00  0.00    +0.000 A 
ATOM     13  C   UNL     1      10.993  13.577  19.876  0.00  0.00    +0.000 A 
ATOM     14  C   UNL     1      10.561  14.627  19.076  0.00  0.00    +0.000 A 
ATOM     15  C   UNL     1       9.786  14.377  17.947  0.00  0.00    +0.000 A 
ATOM     16  C   UNL     1       9.410  13.084  17.612  0.00  0.00    +0.000 A 
BRANCH  14  17
ATOM     17  O   UNL     1      10.875  15.926  19.359  0.00  0.00    +0.000 OA
ATOM     18  H   UNL     1      11.842  15.987  19.448  0.00  0.00    +0.000 HD
ENDBRANCH  14  17
BRANCH  15  19
ATOM     19  O   UNL     1       9.378  15.414  17.156  0.00  0.00    +0.000 OA
ATOM     20  H   UNL     1       8.522  15.118  16.787  0.00  0.00    +0.000 HD
ENDBRANCH  15  19
ENDBRANCH  10  11
ENDBRANCH   4   9
BRANCH   6  21
ATOM     21  O   UNL     1       8.464   5.073  19.914  0.00  0.00    +0.000 OA
ATOM     22  H   UNL     1       8.131   5.300  20.797  0.00  0.00    +0.000 HD
ENDBRANCH   6  21
BRANCH   1  23
ATOM     23  C   UNL     1       7.157   4.410  17.467  0.00  0.00    +0.000 C 
BRANCH  23  26
ATOM     24  C   UNL     1       4.898   3.831  16.440  0.00  0.00    +0.000 C 
ATOM     25  C   UNL     1       5.514   3.647  15.072  0.00  0.00    +0.000 C 
ATOM     26  C   UNL     1       5.667   4.161  17.498  0.00  0.00    +0.000 C 
BRANCH  24  27
ATOM     27  C   UNL     1       3.394   3.707  16.646  0.00  0.00    +0.000 C 
BRANCH  27  28
ATOM     28  C   UNL     1       2.979   2.423  17.353  0.00  0.00    +0.000 C 
BRANCH  28  31
ATOM     29  C   UNL     1       1.727   2.550  19.493  0.00  0.00    +0.000 C 
ATOM     30  C   UNL     1       0.443   2.604  18.698  0.00  0.00    +0.000 C 
ATOM     31  C   UNL     1       2.911   2.462  18.852  0.00  0.00    +0.000 C 
BRANCH  29  32
ATOM     32  C   UNL     1       1.701   2.577  21.007  0.00  0.00    +0.000 C 
BRANCH  32  33
ATOM     33  C   UNL     1       2.284   3.838  21.648  0.00  0.00    +0.000 C 
BRANCH  33  37
ATOM     34  C   UNL     1       1.994   7.172  19.669  0.00  0.00    +0.000 C 
ATOM     35  C   UNL     1       2.558   5.886  20.203  0.00  0.00    +0.000 C 
ATOM     36  C   UNL     1       3.967   5.529  19.809  0.00  0.00    +0.000 C 
ATOM     37  C   UNL     1       1.808   5.100  20.993  0.00  0.00    +0.000 C 
ENDBRANCH  33  37
ENDBRANCH  32  33
ENDBRANCH  29  32
ENDBRANCH  28  31
ENDBRANCH  27  28
ENDBRANCH  24  27
ENDBRANCH  23  26
ENDBRANCH   1  23
TORSDOF 14
ENDMDL
MODEL 6
REMARK VINA RESULT:      -7.8      1.529      2.158
REMARK  Name = 
REMARK  18 active torsions:
REMARK  status: ('A' for Active; 'I' for Inactive)
REMARK    1  A    between atoms: C_1  and  C_2
REMARK    2  A    between atoms: C_2  and  C_3
REMARK    3  A    between atoms: C_4  and  C_5
REMARK    4  A    between atoms: C_5  and  C_6
REMARK    5  A    between atoms: C_6  and  C_7
REMARK    6  A    between atoms: C_7  and  C_8
REMARK    7  A    between atoms: C_9  and  C_10
REMARK    8  A    between atoms: C_10  and  C_11
REMARK    9  A    between atoms: C_11  and  C_12
REMARK   10  A    between atoms: C_12  and  C_13
REMARK   11  A    between atoms: C_14  and  C_15
REMARK   12  A    between atoms: C_15  and  C_16
REMARK   13  A    between atoms: C_17  and  O_18
REMARK   14  A    between atoms: C_20  and  C_21
REMARK   15  A    between atoms: C_22  and  C_23
REMARK   16  A    between atoms: C_26  and  O_27
REMARK   17  A    between atoms: C_28  and  O_29
REMARK   18  A    between atoms: C_32  and  O_33
REMARK                            x       y       z     vdW  Elec       q    Type
REMARK                         _______ _______ _______ _____ _____    ______ ____
ROOT
ATOM      1  C   UNL     1       5.541   5.616  17.621  0.00  0.00    +0.000 A 
ATOM      2  C   UNL     1       6.864   5.300  17.957  0.00  0.00    +0.000 A 
ATOM      3  C   UNL     1       7.853   6.281  18.023  0.00  0.00    +0.000 A 
ATOM      4  C   UNL     1       7.558   7.613  17.729  0.00  0.00    +0.000 A 
ATOM      5  C   UNL     1       6.246   7.947  17.381  0.00  0.00    +0.000 A 
ATOM      6  C   UNL     1       5.260   6.959  17.318  0.00  0.00    +0.000 A 
ENDROOT
BRANCH   2   7
ATOM      7  O   UNL     1       7.292   4.033  18.248  0.00  0.00    +0.000 OA
ATOM      8  H   UNL     1       7.730   3.656  17.472  0.00  0.00    +0.000 HD
ENDBRANCH   2   7
BRANCH   4   9
ATOM      9  C   UNL     1       8.560   8.683  17.818  0.00  0.00    +0.000 C 
ATOM     10  C   UNL     1       8.371   9.835  18.480  0.00  0.00    +0.000 C 
BRANCH  10  11
ATOM     11  C   UNL     1       9.394  10.882  18.606  0.00  0.00    +0.000 A 
ATOM     12  C   UNL     1      10.245  10.973  19.721  0.00  0.00    +0.000 A 
ATOM     13  C   UNL     1      11.193  11.994  19.821  0.00  0.00    +0.000 A 
ATOM     14  C   UNL     1      11.302  12.916  18.788  0.00  0.00    +0.000 A 
ATOM     15  C   UNL     1      10.491  12.809  17.662  0.00  0.00    +0.000 A 
ATOM     16  C   UNL     1       9.544  11.800  17.559  0.00  0.00    +0.000 A 
BRANCH  14  17
ATOM     17  O   UNL     1      12.197  13.947  18.834  0.00  0.00    +0.000 OA
ATOM     18  H   UNL     1      12.985  13.683  18.326  0.00  0.00    +0.000 HD
ENDBRANCH  14  17
BRANCH  15  19
ATOM     19  O   UNL     1      10.616  13.710  16.643  0.00  0.00    +0.000 OA
ATOM     20  H   UNL     1      11.579  13.757  16.475  0.00  0.00    +0.000 HD
ENDBRANCH  15  19
ENDBRANCH  10  11
ENDBRANCH   4   9
BRANCH   6  21
ATOM     21  O   UNL     1       3.987   7.316  16.958  0.00  0.00    +0.000 OA
ATOM     22  H   UNL     1       3.845   8.251  17.180  0.00  0.00    +0.000 HD
ENDBRANCH   6  21
BRANCH   1  23
ATOM     23  C   UNL     1       4.437   4.581  17.627  0.00  0.00    +0.000 C 
BRANCH  23  26
ATOM     24  C   UNL     1       2.241   4.527  18.919  0.00  0.00    +0.000 C 
ATOM     25  C   UNL     1       1.453   4.243  17.660  0.00  0.00    +0.000 C 
ATOM     26  C   UNL     1       3.582   4.659  18.870  0.00  0.00    +0.000 C 
BRANCH  24  27
ATOM     27  C   UNL     1       1.538   4.727  20.254  0.00  0.00    +0.000 C 
BRANCH  27  28
ATOM     28  C   UNL     1       1.830   6.075  20.902  0.00  0.00    +0.000 C 
BRANCH  28  31
ATOM     29  C   UNL     1       1.237   8.464  20.582  0.00  0.00    +0.000 C 
ATOM     30  C   UNL     1       0.959   8.556  22.066  0.00  0.00    +0.000 C 
ATOM     31  C   UNL     1       1.648   7.295  20.048  0.00  0.00    +0.000 C 
BRANCH  29  32
ATOM     32  C   UNL     1       1.074   9.675  19.688  0.00  0.00    +0.000 C 
BRANCH  32  33
ATOM     33  C   UNL     1      -0.179  10.513  19.944  0.00  0.00    +0.000 C 
BRANCH  33  37
ATOM     34  C   UNL     1       0.005  13.765  22.065  0.00  0.00    +0.000 C 
ATOM     35  C   UNL     1      -0.303  12.351  21.666  0.00  0.00    +0.000 C 
ATOM     36  C   UNL     1      -1.093  11.511  22.635  0.00  0.00    +0.000 C 
ATOM     37  C   UNL     1       0.130  11.876  20.486  0.00  0.00    +0.000 C 
ENDBRANCH  33  37
ENDBRANCH  32  33
ENDBRANCH  29  32
ENDBRANCH  28  31
ENDBRANCH  27  28
ENDBRANCH  24  27
ENDBRANCH  23  26
ENDBRANCH   1  23
TORSDOF 14
ENDMDL
MODEL 7
REMARK VINA RESULT:      -7.7      1.354      1.633
REMARK  Name = 
REMARK  18 active torsions:
REMARK  status: ('A' for Active; 'I' for Inactive)
REMARK    1  A    between atoms: C_1  and  C_2
REMARK    2  A    between atoms: C_2  and  C_3
REMARK    3  A    between atoms: C_4  and  C_5
REMARK    4  A    between atoms: C_5  and  C_6
REMARK    5  A    between atoms: C_6  and  C_7
REMARK    6  A    between atoms: C_7  and  C_8
REMARK    7  A    between atoms: C_9  and  C_10
REMARK    8  A    between atoms: C_10  and  C_11
REMARK    9  A    between atoms: C_11  and  C_12
REMARK   10  A    between atoms: C_12  and  C_13
REMARK   11  A    between atoms: C_14  and  C_15
REMARK   12  A    between atoms: C_15  and  C_16
REMARK   13  A    between atoms: C_17  and  O_18
REMARK   14  A    between atoms: C_20  and  C_21
REMARK   15  A    between atoms: C_22  and  C_23
REMARK   16  A    between atoms: C_26  and  O_27
REMARK   17  A    between atoms: C_28  and  O_29
REMARK   18  A    between atoms: C_32  and  O_33
REMARK                            x       y       z     vdW  Elec       q    Type
REMARK                         _______ _______ _______ _____ _____    ______ ____
ROOT
ATOM      1  C   UNL     1       7.126   5.513  17.845  0.00  0.00    +0.000 A 
ATOM      2  C   UNL     1       7.834   6.000  18.953  0.00  0.00    +0.000 A 
ATOM      3  C   UNL     1       8.289   7.317  19.006  0.00  0.00    +0.000 A 
ATOM      4  C   UNL     1       8.075   8.190  17.938  0.00  0.00    +0.000 A 
ATOM      5  C   UNL     1       7.380   7.720  16.818  0.00  0.00    +0.000 A 
ATOM      6  C   UNL     1       6.926   6.399  16.774  0.00  0.00    +0.000 A 
ENDROOT
BRANCH   2   7
ATOM      7  O   UNL     1       8.129   5.246  20.056  0.00  0.00    +0.000 OA
ATOM      8  H   UNL     1       7.352   5.199  20.631  0.00  0.00    +0.000 HD
ENDBRANCH   2   7
BRANCH   4   9
ATOM      9  C   UNL     1       8.507   9.592  17.964  0.00  0.00    +0.000 C 
ATOM     10  C   UNL     1       9.448  10.073  18.793  0.00  0.00    +0.000 C 
BRANCH  10  11
ATOM     11  C   UNL     1       9.911  11.467  18.782  0.00  0.00    +0.000 A 
ATOM     12  C   UNL     1       9.992  12.242  19.952  0.00  0.00    +0.000 A 
ATOM     13  C   UNL     1      10.417  13.572  19.906  0.00  0.00    +0.000 A 
ATOM     14  C   UNL     1      10.780  14.122  18.683  0.00  0.00    +0.000 A 
ATOM     15  C   UNL     1      10.741  13.349  17.526  0.00  0.00    +0.000 A 
ATOM     16  C   UNL     1      10.316  12.028  17.565  0.00  0.00    +0.000 A 
BRANCH  14  17
ATOM     17  O   UNL     1      11.186  15.421  18.569  0.00  0.00    +0.000 OA
ATOM     18  H   UNL     1      10.396  15.987  18.619  0.00  0.00    +0.000 HD
ENDBRANCH  14  17
BRANCH  15  19
ATOM     19  O   UNL     1      11.115  13.892  16.329  0.00  0.00    +0.000 OA
ATOM     20  H   UNL     1      11.122  13.135  15.710  0.00  0.00    +0.000 HD
ENDBRANCH  15  19
ENDBRANCH  10  11
ENDBRANCH   4   9
BRANCH   6  21
ATOM     21  O   UNL     1       6.263   5.965  15.656  0.00  0.00    +0.000 OA
ATOM     22  H   UNL     1       5.308   5.957  15.836  0.00  0.00    +0.000 HD
ENDBRANCH   6  21
BRANCH   1  23
ATOM     23  C   UNL     1       6.550   4.114  17.806  0.00  0.00    +0.000 C 
BRANCH  23  26
ATOM     24  C   UNL     1       4.072   3.535  17.923  0.00  0.00    +0.000 C 
ATOM     25  C   UNL     1       4.240   2.881  19.275  0.00  0.00    +0.000 C 
ATOM     26  C   UNL     1       5.129   4.092  17.296  0.00  0.00    +0.000 C 
BRANCH  24  27
ATOM     27  C   UNL     1       2.725   3.530  17.212  0.00  0.00    +0.000 C 
BRANCH  27  28
ATOM     28  C   UNL     1       1.629   4.263  17.977  0.00  0.00    +0.000 C 
BRANCH  28  31
ATOM     29  C   UNL     1       1.791   6.255  19.449  0.00  0.00    +0.000 C 
ATOM     30  C   UNL     1       1.562   5.350  20.639  0.00  0.00    +0.000 C 
ATOM     31  C   UNL     1       1.824   5.733  18.205  0.00  0.00    +0.000 C 
BRANCH  29  32
ATOM     32  C   UNL     1       2.001   7.743  19.638  0.00  0.00    +0.000 C 
BRANCH  32  33
ATOM     33  C   UNL     1       1.611   8.289  21.012  0.00  0.00    +0.000 C 
BRANCH  33  37
ATOM     34  C   UNL     1      -1.146  11.027  20.868  0.00  0.00    +0.000 C 
ATOM     35  C   UNL     1       0.201  10.367  20.781  0.00  0.00    +0.000 C 
ATOM     36  C   UNL     1       1.381  11.238  20.441  0.00  0.00    +0.000 C 
ATOM     37  C   UNL     1       0.316   9.045  20.994  0.00  0.00    +0.000 C 
ENDBRANCH  33  37
ENDBRANCH  32  33
ENDBRANCH  29  32
ENDBRANCH  28  31
ENDBRANCH  27  28
ENDBRANCH  24  27
ENDBRANCH  23  26
ENDBRANCH   1  23
TORSDOF 14
ENDMDL
MODEL 8
REMARK VINA RESULT:      -7.6      1.360      1.834
REMARK  Name = 
REMARK  18 active torsions:
REMARK  status: ('A' for Active; 'I' for Inactive)
REMARK    1  A    between atoms: C_1  and  C_2
REMARK    2  A    between atoms: C_2  and  C_3
REMARK    3  A    between atoms: C_4  and  C_5
REMARK    4  A    between atoms: C_5  and  C_6
REMARK    5  A    between atoms: C_6  and  C_7
REMARK    6  A    between atoms: C_7  and  C_8
REMARK    7  A    between atoms: C_9  and  C_10
REMARK    8  A    between atoms: C_10  and  C_11
REMARK    9  A    between atoms: C_11  and  C_12
REMARK   10  A    between atoms: C_12  and  C_13
REMARK   11  A    between atoms: C_14  and  C_15
REMARK   12  A    between atoms: C_15  and  C_16
REMARK   13  A    between atoms: C_17  and  O_18
REMARK   14  A    between atoms: C_20  and  C_21
REMARK   15  A    between atoms: C_22  and  C_23
REMARK   16  A    between atoms: C_26  and  O_27
REMARK   17  A    between atoms: C_28  and  O_29
REMARK   18  A    between atoms: C_32  and  O_33
REMARK                            x       y       z     vdW  Elec       q    Type
REMARK                         _______ _______ _______ _____ _____    ______ ____
ROOT
ATOM      1  C   UNL     1       5.913   5.495  17.525  0.00  0.00    +0.000 A 
ATOM      2  C   UNL     1       7.221   5.436  18.028  0.00  0.00    +0.000 A 
ATOM      3  C   UNL     1       8.024   6.574  18.103  0.00  0.00    +0.000 A 
ATOM      4  C   UNL     1       7.556   7.809  17.652  0.00  0.00    +0.000 A 
ATOM      5  C   UNL     1       6.258   7.886  17.136  0.00  0.00    +0.000 A 
ATOM      6  C   UNL     1       5.459   6.742  17.066  0.00  0.00    +0.000 A 
ENDROOT
BRANCH   2   7
ATOM      7  O   UNL     1       7.809   4.288  18.484  0.00  0.00    +0.000 OA
ATOM      8  H   UNL     1       7.203   3.835  19.087  0.00  0.00    +0.000 HD
ENDBRANCH   2   7
BRANCH   4   9
ATOM      9  C   UNL     1       8.354   9.038  17.741  0.00  0.00    +0.000 C 
ATOM     10  C   UNL     1       8.744   9.597  18.897  0.00  0.00    +0.000 C 
BRANCH  10  11
ATOM     11  C   UNL     1       9.583  10.800  18.981  0.00  0.00    +0.000 A 
ATOM     12  C   UNL     1      10.391  11.230  17.914  0.00  0.00    +0.000 A 
ATOM     13  C   UNL     1      11.195  12.367  18.032  0.00  0.00    +0.000 A 
ATOM     14  C   UNL     1      11.173  13.087  19.220  0.00  0.00    +0.000 A 
ATOM     15  C   UNL     1      10.345  12.691  20.267  0.00  0.00    +0.000 A 
ATOM     16  C   UNL     1       9.548  11.561  20.156  0.00  0.00    +0.000 A 
BRANCH  14  17
ATOM     17  O   UNL     1      11.948  14.196  19.404  0.00  0.00    +0.000 OA
ATOM     18  H   UNL     1      12.409  14.382  18.567  0.00  0.00    +0.000 HD
ENDBRANCH  14  17
BRANCH  15  19
ATOM     19  O   UNL     1      10.316  13.415  21.425  0.00  0.00    +0.000 OA
ATOM     20  H   UNL     1      10.572  12.774  22.119  0.00  0.00    +0.000 HD
ENDBRANCH  15  19
ENDBRANCH  10  11
ENDBRANCH   4   9
BRANCH   6  21
ATOM     21  O   UNL     1       4.197   6.847  16.542  0.00  0.00    +0.000 OA
ATOM     22  H   UNL     1       4.251   7.261  15.665  0.00  0.00    +0.000 HD
ENDBRANCH   6  21
BRANCH   1  23
ATOM     23  C   UNL     1       4.997   4.289  17.516  0.00  0.00    +0.000 C 
BRANCH  23  26
ATOM     24  C   UNL     1       3.704   3.659  19.620  0.00  0.00    +0.000 C 
ATOM     25  C   UNL     1       4.709   2.587  19.973  0.00  0.00    +0.000 C 
ATOM     26  C   UNL     1       3.871   4.415  18.515  0.00  0.00    +0.000 C 
BRANCH  24  27
ATOM     27  C   UNL     1       2.455   3.872  20.464  0.00  0.00    +0.000 C 
BRANCH  27  28
ATOM     28  C   UNL     1       1.545   4.976  19.940  0.00  0.00    +0.000 C 
BRANCH  28  31
ATOM     29  C   UNL     1       1.541   7.384  20.541  0.00  0.00    +0.000 C 
ATOM     30  C   UNL     1       2.188   7.681  19.207  0.00  0.00    +0.000 C 
ATOM     31  C   UNL     1       1.242   6.110  20.873  0.00  0.00    +0.000 C 
BRANCH  29  32
ATOM     32  C   UNL     1       1.211   8.502  21.507  0.00  0.00    +0.000 C 
BRANCH  32  33
ATOM     33  C   UNL     1       1.377   9.917  20.951  0.00  0.00    +0.000 C 
BRANCH  33  37
ATOM     34  C   UNL     1      -1.874  11.768  19.896  0.00  0.00    +0.000 C 
ATOM     35  C   UNL     1      -0.644  10.911  19.817  0.00  0.00    +0.000 C 
ATOM     36  C   UNL     1      -0.292  10.322  18.476  0.00  0.00    +0.000 C 
ATOM     37  C   UNL     1       0.091  10.687  20.919  0.00  0.00    +0.000 C 
ENDBRANCH  33  37
ENDBRANCH  32  33
ENDBRANCH  29  32
ENDBRANCH  28  31
ENDBRANCH  27  28
ENDBRANCH  24  27
ENDBRANCH  23  26
ENDBRANCH   1  23
TORSDOF 14
ENDMDL
MODEL 9
REMARK VINA RESULT:      -7.6      0.955      1.175
REMARK  Name = 
REMARK  18 active torsions:
REMARK  status: ('A' for Active; 'I' for Inactive)
REMARK    1  A    between atoms: C_1  and  C_2
REMARK    2  A    between atoms: C_2  and  C_3
REMARK    3  A    between atoms: C_4  and  C_5
REMARK    4  A    between atoms: C_5  and  C_6
REMARK    5  A    between atoms: C_6  and  C_7
REMARK    6  A    between atoms: C_7  and  C_8
REMARK    7  A    between atoms: C_9  and  C_10
REMARK    8  A    between atoms: C_10  and  C_11
REMARK    9  A    between atoms: C_11  and  C_12
REMARK   10  A    between atoms: C_12  and  C_13
REMARK   11  A    between atoms: C_14  and  C_15
REMARK   12  A    between atoms: C_15  and  C_16
REMARK   13  A    between atoms: C_17  and  O_18
REMARK   14  A    between atoms: C_20  and  C_21
REMARK   15  A    between atoms: C_22  and  C_23
REMARK   16  A    between atoms: C_26  and  O_27
REMARK   17  A    between atoms: C_28  and  O_29
REMARK   18  A    between atoms: C_32  and  O_33
REMARK                            x       y       z     vdW  Elec       q    Type
REMARK                         _______ _______ _______ _____ _____    ______ ____
ROOT
ATOM      1  C   UNL     1       6.878   5.583  17.798  0.00  0.00    +0.000 A 
ATOM      2  C   UNL     1       7.896   5.878  18.716  0.00  0.00    +0.000 A 
ATOM      3  C   UNL     1       8.419   7.166  18.835  0.00  0.00    +0.000 A 
ATOM      4  C   UNL     1       7.959   8.201  18.019  0.00  0.00    +0.000 A 
ATOM      5  C   UNL     1       6.951   7.925  17.090  0.00  0.00    +0.000 A 
ATOM      6  C   UNL     1       6.431   6.632  16.978  0.00  0.00    +0.000 A 
ENDROOT
BRANCH   2   7
ATOM      7  O   UNL     1       8.450   4.954  19.559  0.00  0.00    +0.000 OA
ATOM      8  H   UNL     1       7.852   4.799  20.303  0.00  0.00    +0.000 HD
ENDBRANCH   2   7
BRANCH   4   9
ATOM      9  C   UNL     1       8.457   9.577  18.132  0.00  0.00    +0.000 C 
ATOM     10  C   UNL     1       9.238  10.013  19.134  0.00  0.00    +0.000 C 
BRANCH  10  11
ATOM     11  C   UNL     1       9.773  11.379  19.218  0.00  0.00    +0.000 A 
ATOM     12  C   UNL     1      10.439  11.858  20.360  0.00  0.00    +0.000 A 
ATOM     13  C   UNL     1      10.917  13.169  20.416  0.00  0.00    +0.000 A 
ATOM     14  C   UNL     1      10.745  13.998  19.315  0.00  0.00    +0.000 A 
ATOM     15  C   UNL     1      10.123  13.518  18.165  0.00  0.00    +0.000 A 
ATOM     16  C   UNL     1       9.642  12.218  18.105  0.00  0.00    +0.000 A 
BRANCH  14  17
ATOM     17  O   UNL     1      11.175  15.294  19.314  0.00  0.00    +0.000 OA
ATOM     18  H   UNL     1      11.748  15.420  20.090  0.00  0.00    +0.000 HD
ENDBRANCH  14  17
BRANCH  15  19
ATOM     19  O   UNL     1       9.972  14.334  17.080  0.00  0.00    +0.000 OA
ATOM     20  H   UNL     1      10.509  15.124  17.292  0.00  0.00    +0.000 HD
ENDBRANCH  15  19
ENDBRANCH  10  11
ENDBRANCH   4   9
BRANCH   6  21
ATOM     21  O   UNL     1       5.455   6.391  16.047  0.00  0.00    +0.000 OA
ATOM     22  H   UNL     1       4.746   5.869  16.457  0.00  0.00    +0.000 HD
ENDBRANCH   6  21
BRANCH   1  23
ATOM     23  C   UNL     1       6.238   4.214  17.715  0.00  0.00    +0.000 C 
BRANCH  23  26
ATOM     24  C   UNL     1       3.916   3.567  18.540  0.00  0.00    +0.000 C 
ATOM     25  C   UNL     1       3.476   3.183  17.146  0.00  0.00    +0.000 C 
ATOM     26  C   UNL     1       5.169   4.014  18.763  0.00  0.00    +0.000 C 
BRANCH  24  27
ATOM     27  C   UNL     1       2.944   3.515  19.711  0.00  0.00    +0.000 C 
BRANCH  27  28
ATOM     28  C   UNL     1       2.809   4.840  20.451  0.00  0.00    +0.000 C 
BRANCH  28  31
ATOM     29  C   UNL     1       2.489   6.520  18.652  0.00  0.00    +0.000 C 
ATOM     30  C   UNL     1       1.259   5.759  18.210  0.00  0.00    +0.000 C 
ATOM     31  C   UNL     1       3.207   6.080  19.707  0.00  0.00    +0.000 C 
BRANCH  29  32
ATOM     32  C   UNL     1       2.919   7.781  17.933  0.00  0.00    +0.000 C 
BRANCH  32  33
ATOM     33  C   UNL     1       1.785   8.734  17.552  0.00  0.00    +0.000 C 
BRANCH  33  37
ATOM     34  C   UNL     1       1.391  12.162  19.342  0.00  0.00    +0.000 C 
ATOM     35  C   UNL     1       1.130  10.742  18.930  0.00  0.00    +0.000 C 
ATOM     36  C   UNL     1      -0.092  10.067  19.494  0.00  0.00    +0.000 C 
ATOM     37  C   UNL     1       1.979  10.119  18.095  0.00  0.00    +0.000 C 
ENDBRANCH  33  37
ENDBRANCH  32  33
ENDBRANCH  29  32
ENDBRANCH  28  31
ENDBRANCH  27  28
ENDBRANCH  24  27
ENDBRANCH  23  26
ENDBRANCH   1  23
TORSDOF 14
ENDMDL
