MODEL 1
REMARK VINA RESULT:      -8.3      0.000      0.000
REMARK  Name = 
REMARK  6 active torsions:
REMARK  status: ('A' for Active; 'I' for Inactive)
REMARK    1  A    between atoms: C_1  and  C_2
REMARK    2  A    between atoms: C_4  and  N_5
REMARK    3  A    between atoms: N_5  and  C_6
REMARK    4  A    between atoms: C_6  and  C_7
REMARK    5  A    between atoms: C_15  and  C_16
REMARK    6  A    between atoms: C_23  and  C_24
REMARK                            x       y       z     vdW  Elec       q    Type
REMARK                         _______ _______ _______ _____ _____    ______ ____
ROOT
ATOM      1  C   UNL     1      -0.516   9.145  22.214  0.00  0.00    +0.000 C 
ATOM      2  C   UNL     1       0.419   8.925  21.052  0.00  0.00    +0.000 A 
ATOM      3  C   UNL     1       0.705  10.092  20.170  0.00  0.00    +0.000 A 
ATOM      4  C   UNL     1       1.545   9.884  19.141  0.00  0.00    +0.000 A 
ATOM      5  N   UNL     1       2.073   8.574  18.948  0.00  0.00    +0.000 N 
ATOM      6  N   UNL     1       2.889   8.153  17.943  0.00  0.00    +0.000 NA
ATOM      7  C   UNL     1       3.065   6.836  18.158  0.00  0.00    +0.000 A 
ATOM      8  C   UNL     1       2.420   6.409  19.373  0.00  0.00    +0.000 A 
ATOM      9  C   UNL     1       1.748   7.537  19.820  0.00  0.00    +0.000 A 
ATOM     10  N   UNL     1       0.917   7.735  20.896  0.00  0.00    +0.000 NA
ENDROOT
BRANCH   7  11
ATOM     11  C   UNL     1       3.852   6.032  17.203  0.00  0.00    +0.000 A 
ATOM     12  C   UNL     1       4.816   6.642  16.386  0.00  0.00    +0.000 A 
ATOM     13  C   UNL     1       5.625   5.872  15.539  0.00  0.00    +0.000 A 
ATOM     14  C   UNL     1       5.475   4.493  15.514  0.00  0.00    +0.000 A 
ATOM     15  F   UNL     1       6.272   3.756  14.731  0.00  0.00    +0.000 F 
ATOM     16  C   UNL     1       4.512   3.869  16.292  0.00  0.00    +0.000 A 
ATOM     17  C   UNL     1       3.685   4.640  17.114  0.00  0.00    +0.000 A 
ENDBRANCH   7  11
BRANCH   8  18
ATOM     18  C   UNL     1       2.405   5.119  20.070  0.00  0.00    +0.000 A 
ATOM     19  C   UNL     1       1.194   4.554  20.506  0.00  0.00    +0.000 A 
ATOM     20  C   UNL     1       1.174   3.346  21.211  0.00  0.00    +0.000 A 
ATOM     21  C   UNL     1       2.361   2.664  21.436  0.00  0.00    +0.000 A 
ATOM     22  F   UNL     1       2.341   1.496  22.091  0.00  0.00    +0.000 F 
ATOM     23  C   UNL     1       3.569   3.177  20.984  0.00  0.00    +0.000 A 
ATOM     24  C   UNL     1       3.591   4.407  20.319  0.00  0.00    +0.000 A 
ENDBRANCH   8  18
BRANCH   4  25
ATOM     25  N   UNL     1       1.937  10.925  18.277  0.00  0.00    +0.000 N 
ATOM     26  H   UNL     1       1.620  10.665  17.338  0.00  0.00    +0.000 HD
BRANCH  25  27
ATOM     27  C   UNL     1       1.436  12.285  18.521  0.00  0.00    +0.000 C 
BRANCH  27  28
ATOM     28  C   UNL     1       2.470  13.226  19.084  0.00  0.00    +0.000 A 
ATOM     29  C   UNL     1       3.358  13.870  18.209  0.00  0.00    +0.000 A 
ATOM     30  C   UNL     1       4.308  14.763  18.699  0.00  0.00    +0.000 A 
ATOM     31  C   UNL     1       4.344  14.993  20.062  0.00  0.00    +0.000 A 
ATOM     32  N   UNL     1       3.514  14.395  20.941  0.00  0.00    +0.000 NA
ATOM     33  C   UNL     1       2.601  13.527  20.434  0.00  0.00    +0.000 A 
ENDBRANCH  27  28
ENDBRANCH  25  27
ENDBRANCH   4  25
TORSDOF 5
ENDMDL
MODEL 2
REMARK VINA RESULT:      -8.1      0.873      1.535
REMARK  Name = 
REMARK  6 active torsions:
REMARK  status: ('A' for Active; 'I' for Inactive)
REMARK    1  A    between atoms: C_1  and  C_2
REMARK    2  A    between atoms: C_4  and  N_5
REMARK    3  A    between atoms: N_5  and  C_6
REMARK    4  A    between atoms: C_6  and  C_7
REMARK    5  A    between atoms: C_15  and  C_16
REMARK    6  A    between atoms: C_23  and  C_24
REMARK                            x       y       z     vdW  Elec       q    Type
REMARK                         _______ _______ _______ _____ _____    ______ ____
ROOT
ATOM      1  C   UNL     1      -0.676   9.910  21.520  0.00  0.00    +0.000 C 
ATOM      2  C   UNL     1       0.370   9.547  20.496  0.00  0.00    +0.000 A 
ATOM      3  C   UNL     1       0.888  10.641  19.626  0.00  0.00    +0.000 A 
ATOM      4  C   UNL     1       1.824  10.306  18.721  0.00  0.00    +0.000 A 
ATOM      5  N   UNL     1       2.228   8.941  18.634  0.00  0.00    +0.000 N 
ATOM      6  N   UNL     1       3.115   8.397  17.756  0.00  0.00    +0.000 NA
ATOM      7  C   UNL     1       3.119   7.079  18.028  0.00  0.00    +0.000 A 
ATOM      8  C   UNL     1       2.285   6.771  19.161  0.00  0.00    +0.000 A 
ATOM      9  C   UNL     1       1.686   7.980  19.486  0.00  0.00    +0.000 A 
ATOM     10  N   UNL     1       0.753   8.307  20.439  0.00  0.00    +0.000 NA
ENDROOT
BRANCH   7  11
ATOM     11  C   UNL     1       3.929   6.160  17.207  0.00  0.00    +0.000 A 
ATOM     12  C   UNL     1       3.809   4.771  17.367  0.00  0.00    +0.000 A 
ATOM     13  C   UNL     1       4.513   3.892  16.531  0.00  0.00    +0.000 A 
ATOM     14  C   UNL     1       5.330   4.401  15.532  0.00  0.00    +0.000 A 
ATOM     15  F   UNL     1       5.973   3.560  14.713  0.00  0.00    +0.000 F 
ATOM     16  C   UNL     1       5.486   5.769  15.371  0.00  0.00    +0.000 A 
ATOM     17  C   UNL     1       4.808   6.645  16.224  0.00  0.00    +0.000 A 
ENDBRANCH   7  11
BRANCH   8  18
ATOM     18  C   UNL     1       2.043   5.520  19.886  0.00  0.00    +0.000 A 
ATOM     19  C   UNL     1       2.677   5.269  21.114  0.00  0.00    +0.000 A 
ATOM     20  C   UNL     1       2.487   4.059  21.791  0.00  0.00    +0.000 A 
ATOM     21  C   UNL     1       1.615   3.113  21.271  0.00  0.00    +0.000 A 
ATOM     22  F   UNL     1       1.415   1.964  21.929  0.00  0.00    +0.000 F 
ATOM     23  C   UNL     1       0.945   3.347  20.079  0.00  0.00    +0.000 A 
ATOM     24  C   UNL     1       1.171   4.538  19.382  0.00  0.00    +0.000 A 
ENDBRANCH   8  18
BRANCH   4  25
ATOM     25  N   UNL     1       2.432  11.264  17.887  0.00  0.00    +0.000 N 
ATOM     26  H   UNL     1       2.303  10.940  16.923  0.00  0.00    +0.000 HD
BRANCH  25  27
ATOM     27  C   UNL     1       1.952  12.653  17.924  0.00  0.00    +0.000 C 
BRANCH  27  28
ATOM     28  C   UNL     1       2.890  13.605  18.620  0.00  0.00    +0.000 A 
ATOM     29  C   UNL     1       2.601  14.014  19.931  0.00  0.00    +0.000 A 
ATOM     30  C   UNL     1       3.463  14.874  20.608  0.00  0.00    +0.000 A 
ATOM     31  C   UNL     1       4.602  15.303  19.953  0.00  0.00    +0.000 A 
ATOM     32  N   UNL     1       4.920  14.939  18.693  0.00  0.00    +0.000 NA
ATOM     33  C   UNL     1       4.058  14.103  18.058  0.00  0.00    +0.000 A 
ENDBRANCH  27  28
ENDBRANCH  25  27
ENDBRANCH   4  25
TORSDOF 5
ENDMDL
MODEL 3
REMARK VINA RESULT:      -8.0      1.036      1.648
REMARK  Name = 
REMARK  6 active torsions:
REMARK  status: ('A' for Active; 'I' for Inactive)
REMARK    1  A    between atoms: C_1  and  C_2
REMARK    2  A    between atoms: C_4  and  N_5
REMARK    3  A    between atoms: N_5  and  C_6
REMARK    4  A    between atoms: C_6  and  C_7
REMARK    5  A    between atoms: C_15  and  C_16
REMARK    6  A    between atoms: C_23  and  C_24
REMARK                            x       y       z     vdW  Elec       q    Type
REMARK                         _______ _______ _______ _____ _____    ______ ____
ROOT
ATOM      1  C   UNL     1      -0.474   9.239  21.985  0.00  0.00    +0.000 C 
ATOM      2  C   UNL     1       0.450   8.996  20.818  0.00  0.00    +0.000 A 
ATOM      3  C   UNL     1       0.682  10.130  19.878  0.00  0.00    +0.000 A 
ATOM      4  C   UNL     1       1.513   9.903  18.846  0.00  0.00    +0.000 A 
ATOM      5  N   UNL     1       2.082   8.603  18.704  0.00  0.00    +0.000 N 
ATOM      6  N   UNL     1       2.897   8.164  17.706  0.00  0.00    +0.000 NA
ATOM      7  C   UNL     1       3.122   6.865  17.979  0.00  0.00    +0.000 A 
ATOM      8  C   UNL     1       2.511   6.474  19.223  0.00  0.00    +0.000 A 
ATOM      9  C   UNL     1       1.807   7.598  19.630  0.00  0.00    +0.000 A 
ATOM     10  N   UNL     1       0.987   7.818  20.709  0.00  0.00    +0.000 NA
ENDROOT
BRANCH   7  11
ATOM     11  C   UNL     1       3.921   6.045  17.050  0.00  0.00    +0.000 A 
ATOM     12  C   UNL     1       4.843   6.649  16.181  0.00  0.00    +0.000 A 
ATOM     13  C   UNL     1       5.666   5.868  15.357  0.00  0.00    +0.000 A 
ATOM     14  C   UNL     1       5.572   4.485  15.405  0.00  0.00    +0.000 A 
ATOM     15  F   UNL     1       6.382   3.741  14.643  0.00  0.00    +0.000 F 
ATOM     16  C   UNL     1       4.650   3.865  16.236  0.00  0.00    +0.000 A 
ATOM     17  C   UNL     1       3.809   4.645  17.035  0.00  0.00    +0.000 A 
ENDBRANCH   7  11
BRANCH   8  18
ATOM     18  C   UNL     1       2.552   5.218  19.980  0.00  0.00    +0.000 A 
ATOM     19  C   UNL     1       3.758   4.516  20.140  0.00  0.00    +0.000 A 
ATOM     20  C   UNL     1       3.798   3.295  20.822  0.00  0.00    +0.000 A 
ATOM     21  C   UNL     1       2.639   2.795  21.399  0.00  0.00    +0.000 A 
ATOM     22  F   UNL     1       2.680   1.638  22.071  0.00  0.00    +0.000 F 
ATOM     23  C   UNL     1       1.439   3.484  21.291  0.00  0.00    +0.000 A 
ATOM     24  C   UNL     1       1.393   4.682  20.570  0.00  0.00    +0.000 A 
ENDBRANCH   8  18
BRANCH   4  25
ATOM     25  N   UNL     1       1.855  10.914  17.928  0.00  0.00    +0.000 N 
ATOM     26  H   UNL     1       0.975  11.321  17.595  0.00  0.00    +0.000 HD
BRANCH  25  27
ATOM     27  C   UNL     1       2.685  12.040  18.380  0.00  0.00    +0.000 C 
BRANCH  27  28
ATOM     28  C   UNL     1       1.935  13.343  18.497  0.00  0.00    +0.000 A 
ATOM     29  C   UNL     1       0.537  13.321  18.611  0.00  0.00    +0.000 A 
ATOM     30  C   UNL     1      -0.179  14.508  18.744  0.00  0.00    +0.000 A 
ATOM     31  C   UNL     1       0.527  15.696  18.765  0.00  0.00    +0.000 A 
ATOM     32  N   UNL     1       1.869  15.767  18.656  0.00  0.00    +0.000 NA
ATOM     33  C   UNL     1       2.540  14.594  18.522  0.00  0.00    +0.000 A 
ENDBRANCH  27  28
ENDBRANCH  25  27
ENDBRANCH   4  25
TORSDOF 5
ENDMDL
MODEL 4
REMARK VINA RESULT:      -7.9      1.288      1.422
REMARK  Name = 
REMARK  6 active torsions:
REMARK  status: ('A' for Active; 'I' for Inactive)
REMARK    1  A    between atoms: C_1  and  C_2
REMARK    2  A    between atoms: C_4  and  N_5
REMARK    3  A    between atoms: N_5  and  C_6
REMARK    4  A    between atoms: C_6  and  C_7
REMARK    5  A    between atoms: C_15  and  C_16
REMARK    6  A    between atoms: C_23  and  C_24
REMARK                            x       y       z     vdW  Elec       q    Type
REMARK                         _______ _______ _______ _____ _____    ______ ____
ROOT
ATOM      1  C   UNL     1      -0.948  10.054  20.502  0.00  0.00    +0.000 C 
ATOM      2  C   UNL     1       0.288   9.767  19.687  0.00  0.00    +0.000 A 
ATOM      3  C   UNL     1       0.910  10.908  18.958  0.00  0.00    +0.000 A 
ATOM      4  C   UNL     1       2.015  10.641  18.241  0.00  0.00    +0.000 A 
ATOM      5  N   UNL     1       2.491   9.297  18.201  0.00  0.00    +0.000 N 
ATOM      6  N   UNL     1       3.552   8.819  17.495  0.00  0.00    +0.000 NA
ATOM      7  C   UNL     1       3.567   7.494  17.732  0.00  0.00    +0.000 A 
ATOM      8  C   UNL     1       2.548   7.116  18.677  0.00  0.00    +0.000 A 
ATOM      9  C   UNL     1       1.843   8.288  18.911  0.00  0.00    +0.000 A 
ATOM     10  N   UNL     1       0.732   8.546  19.675  0.00  0.00    +0.000 NA
ENDROOT
BRANCH   7  11
ATOM     11  C   UNL     1       4.560   6.636  17.059  0.00  0.00    +0.000 A 
ATOM     12  C   UNL     1       4.672   6.642  15.660  0.00  0.00    +0.000 A 
ATOM     13  C   UNL     1       5.670   5.893  15.020  0.00  0.00    +0.000 A 
ATOM     14  C   UNL     1       6.558   5.144  15.778  0.00  0.00    +0.000 A 
ATOM     15  F   UNL     1       7.532   4.458  15.167  0.00  0.00    +0.000 F 
ATOM     16  C   UNL     1       6.451   5.100  17.160  0.00  0.00    +0.000 A 
ATOM     17  C   UNL     1       5.437   5.823  17.795  0.00  0.00    +0.000 A 
ENDBRANCH   7  11
BRANCH   8  18
ATOM     18  C   UNL     1       2.232   5.833  19.313  0.00  0.00    +0.000 A 
ATOM     19  C   UNL     1       1.763   4.751  18.550  0.00  0.00    +0.000 A 
ATOM     20  C   UNL     1       1.417   3.538  19.154  0.00  0.00    +0.000 A 
ATOM     21  C   UNL     1       1.591   3.379  20.521  0.00  0.00    +0.000 A 
ATOM     22  F   UNL     1       1.281   2.211  21.098  0.00  0.00    +0.000 F 
ATOM     23  C   UNL     1       2.087   4.417  21.297  0.00  0.00    +0.000 A 
ATOM     24  C   UNL     1       2.390   5.644  20.697  0.00  0.00    +0.000 A 
ENDBRANCH   8  18
BRANCH   4  25
ATOM     25  N   UNL     1       2.724  11.649  17.560  0.00  0.00    +0.000 N 
ATOM     26  H   UNL     1       2.611  11.466  16.559  0.00  0.00    +0.000 HD
BRANCH  25  27
ATOM     27  C   UNL     1       2.346  13.055  17.768  0.00  0.00    +0.000 C 
BRANCH  27  28
ATOM     28  C   UNL     1       3.290  13.815  18.665  0.00  0.00    +0.000 A 
ATOM     29  C   UNL     1       4.389  14.477  18.098  0.00  0.00    +0.000 A 
ATOM     30  C   UNL     1       5.263  15.207  18.900  0.00  0.00    +0.000 A 
ATOM     31  C   UNL     1       5.012  15.260  20.258  0.00  0.00    +0.000 A 
ATOM     32  N   UNL     1       3.971  14.637  20.848  0.00  0.00    +0.000 NA
ATOM     33  C   UNL     1       3.138  13.930  20.041  0.00  0.00    +0.000 A 
ENDBRANCH  27  28
ENDBRANCH  25  27
ENDBRANCH   4  25
TORSDOF 5
ENDMDL
MODEL 5
REMARK VINA RESULT:      -7.8      1.606      1.922
REMARK  Name = 
REMARK  6 active torsions:
REMARK  status: ('A' for Active; 'I' for Inactive)
REMARK    1  A    between atoms: C_1  and  C_2
REMARK    2  A    between atoms: C_4  and  N_5
REMARK    3  A    between atoms: N_5  and  C_6
REMARK    4  A    between atoms: C_6  and  C_7
REMARK    5  A    between atoms: C_15  and  C_16
REMARK    6  A    between atoms: C_23  and  C_24
REMARK                            x       y       z     vdW  Elec       q    Type
REMARK                         _______ _______ _______ _____ _____    ______ ____
ROOT
ATOM      1  C   UNL     1      -1.094  10.133  20.300  0.00  0.00    +0.000 C 
ATOM      2  C   UNL     1       0.171   9.871  19.522  0.00  0.00    +0.000 A 
ATOM      3  C   UNL     1       0.787  11.022  18.805  0.00  0.00    +0.000 A 
ATOM      4  C   UNL     1       1.918  10.777  18.120  0.00  0.00    +0.000 A 
ATOM      5  N   UNL     1       2.426   9.445  18.101  0.00  0.00    +0.000 N 
ATOM      6  N   UNL     1       3.517   8.987  17.428  0.00  0.00    +0.000 NA
ATOM      7  C   UNL     1       3.555   7.665  17.674  0.00  0.00    +0.000 A 
ATOM      8  C   UNL     1       2.519   7.268  18.591  0.00  0.00    +0.000 A 
ATOM      9  C   UNL     1       1.781   8.425  18.798  0.00  0.00    +0.000 A 
ATOM     10  N   UNL     1       0.643   8.660  19.530  0.00  0.00    +0.000 NA
ENDROOT
BRANCH   7  11
ATOM     11  C   UNL     1       4.586   6.826  17.033  0.00  0.00    +0.000 A 
ATOM     12  C   UNL     1       5.469   6.064  17.815  0.00  0.00    +0.000 A 
ATOM     13  C   UNL     1       6.394   5.200  17.211  0.00  0.00    +0.000 A 
ATOM     14  C   UNL     1       6.432   5.094  15.828  0.00  0.00    +0.000 A 
ATOM     15  F   UNL     1       7.292   4.243  15.255  0.00  0.00    +0.000 F 
ATOM     16  C   UNL     1       5.589   5.856  15.033  0.00  0.00    +0.000 A 
ATOM     17  C   UNL     1       4.688   6.739  15.635  0.00  0.00    +0.000 A 
ENDBRANCH   7  11
BRANCH   8  18
ATOM     18  C   UNL     1       2.215   5.981  19.225  0.00  0.00    +0.000 A 
ATOM     19  C   UNL     1       1.778   4.889  18.457  0.00  0.00    +0.000 A 
ATOM     20  C   UNL     1       1.442   3.671  19.058  0.00  0.00    +0.000 A 
ATOM     21  C   UNL     1       1.596   3.519  20.429  0.00  0.00    +0.000 A 
ATOM     22  F   UNL     1       1.297   2.347  21.004  0.00  0.00    +0.000 F 
ATOM     23  C   UNL     1       2.061   4.568  21.210  0.00  0.00    +0.000 A 
ATOM     24  C   UNL     1       2.352   5.798  20.612  0.00  0.00    +0.000 A 
ENDBRANCH   8  18
BRANCH   4  25
ATOM     25  N   UNL     1       2.623  11.798  17.455  0.00  0.00    +0.000 N 
ATOM     26  H   UNL     1       1.929  12.351  16.942  0.00  0.00    +0.000 HD
BRANCH  25  27
ATOM     27  C   UNL     1       3.412  12.756  18.243  0.00  0.00    +0.000 C 
BRANCH  27  28
ATOM     28  C   UNL     1       2.867  14.161  18.219  0.00  0.00    +0.000 A 
ATOM     29  C   UNL     1       3.620  15.177  17.610  0.00  0.00    +0.000 A 
ATOM     30  C   UNL     1       3.131  16.479  17.552  0.00  0.00    +0.000 A 
ATOM     31  C   UNL     1       1.891  16.735  18.105  0.00  0.00    +0.000 A 
ATOM     32  N   UNL     1       1.133  15.793  18.703  0.00  0.00    +0.000 NA
ATOM     33  C   UNL     1       1.638  14.533  18.748  0.00  0.00    +0.000 A 
ENDBRANCH  27  28
ENDBRANCH  25  27
ENDBRANCH   4  25
TORSDOF 5
ENDMDL
MODEL 6
REMARK VINA RESULT:      -7.8      1.324      1.608
REMARK  Name = 
REMARK  6 active torsions:
REMARK  status: ('A' for Active; 'I' for Inactive)
REMARK    1  A    between atoms: C_1  and  C_2
REMARK    2  A    between atoms: C_4  and  N_5
REMARK    3  A    between atoms: N_5  and  C_6
REMARK    4  A    between atoms: C_6  and  C_7
REMARK    5  A    between atoms: C_15  and  C_16
REMARK    6  A    between atoms: C_23  and  C_24
REMARK                            x       y       z     vdW  Elec       q    Type
REMARK                         _______ _______ _______ _____ _____    ______ ____
ROOT
ATOM      1  C   UNL     1      -1.128  10.082  20.119  0.00  0.00    +0.000 C 
ATOM      2  C   UNL     1       0.178   9.824  19.410  0.00  0.00    +0.000 A 
ATOM      3  C   UNL     1       0.851  10.988  18.765  0.00  0.00    +0.000 A 
ATOM      4  C   UNL     1       2.017  10.747  18.142  0.00  0.00    +0.000 A 
ATOM      5  N   UNL     1       2.509   9.409  18.112  0.00  0.00    +0.000 N 
ATOM      6  N   UNL     1       3.633   8.956  17.492  0.00  0.00    +0.000 NA
ATOM      7  C   UNL     1       3.640   7.627  17.698  0.00  0.00    +0.000 A 
ATOM      8  C   UNL     1       2.546   7.218  18.541  0.00  0.00    +0.000 A 
ATOM      9  C   UNL     1       1.811   8.378  18.738  0.00  0.00    +0.000 A 
ATOM     10  N   UNL     1       0.634   8.608  19.408  0.00  0.00    +0.000 NA
ENDROOT
BRANCH   7  11
ATOM     11  C   UNL     1       4.696   6.793  17.095  0.00  0.00    +0.000 A 
ATOM     12  C   UNL     1       6.049   7.066  17.350  0.00  0.00    +0.000 A 
ATOM     13  C   UNL     1       7.054   6.226  16.849  0.00  0.00    +0.000 A 
ATOM     14  C   UNL     1       6.707   5.112  16.099  0.00  0.00    +0.000 A 
ATOM     15  F   UNL     1       7.665   4.292  15.651  0.00  0.00    +0.000 F 
ATOM     16  C   UNL     1       5.379   4.835  15.811  0.00  0.00    +0.000 A 
ATOM     17  C   UNL     1       4.379   5.690  16.285  0.00  0.00    +0.000 A 
ENDBRANCH   7  11
BRANCH   8  18
ATOM     18  C   UNL     1       2.188   5.917  19.116  0.00  0.00    +0.000 A 
ATOM     19  C   UNL     1       2.299   5.690  20.498  0.00  0.00    +0.000 A 
ATOM     20  C   UNL     1       2.002   4.439  21.050  0.00  0.00    +0.000 A 
ATOM     21  C   UNL     1       1.537   3.421  20.230  0.00  0.00    +0.000 A 
ATOM     22  F   UNL     1       1.231   2.230  20.760  0.00  0.00    +0.000 F 
ATOM     23  C   UNL     1       1.381   3.626  18.866  0.00  0.00    +0.000 A 
ATOM     24  C   UNL     1       1.721   4.864  18.310  0.00  0.00    +0.000 A 
ENDBRANCH   8  18
BRANCH   4  25
ATOM     25  N   UNL     1       2.773  11.778  17.550  0.00  0.00    +0.000 N 
ATOM     26  H   UNL     1       2.723  11.637  16.537  0.00  0.00    +0.000 HD
BRANCH  25  27
ATOM     27  C   UNL     1       2.390  13.176  17.792  0.00  0.00    +0.000 C 
BRANCH  27  28
ATOM     28  C   UNL     1       3.379  13.944  18.631  0.00  0.00    +0.000 A 
ATOM     29  C   UNL     1       4.512  14.499  18.017  0.00  0.00    +0.000 A 
ATOM     30  C   UNL     1       5.431  15.234  18.763  0.00  0.00    +0.000 A 
ATOM     31  C   UNL     1       5.189  15.400  20.114  0.00  0.00    +0.000 A 
ATOM     32  N   UNL     1       4.116  14.883  20.748  0.00  0.00    +0.000 NA
ATOM     33  C   UNL     1       3.240  14.168  19.995  0.00  0.00    +0.000 A 
ENDBRANCH  27  28
ENDBRANCH  25  27
ENDBRANCH   4  25
TORSDOF 5
ENDMDL
MODEL 7
REMARK VINA RESULT:      -7.7      1.317      1.841
REMARK  Name = 
REMARK  6 active torsions:
REMARK  status: ('A' for Active; 'I' for Inactive)
REMARK    1  A    between atoms: C_1  and  C_2
REMARK    2  A    between atoms: C_4  and  N_5
REMARK    3  A    between atoms: N_5  and  C_6
REMARK    4  A    between atoms: C_6  and  C_7
REMARK    5  A    between atoms: C_15  and  C_16
REMARK    6  A    between atoms: C_23  and  C_24
REMARK                            x       y       z     vdW  Elec       q    Type
REMARK                         _______ _______ _______ _____ _____    ______ ____
ROOT
ATOM      1  C   UNL     1      -1.067  10.031  20.252  0.00  0.00    +0.000 C 
ATOM      2  C   UNL     1       0.219   9.758  19.513  0.00  0.00    +0.000 A 
ATOM      3  C   UNL     1       0.865  10.904  18.813  0.00  0.00    +0.000 A 
ATOM      4  C   UNL     1       2.015  10.650  18.164  0.00  0.00    +0.000 A 
ATOM      5  N   UNL     1       2.513   9.313  18.162  0.00  0.00    +0.000 N 
ATOM      6  N   UNL     1       3.621   8.847  17.523  0.00  0.00    +0.000 NA
ATOM      7  C   UNL     1       3.642   7.524  17.772  0.00  0.00    +0.000 A 
ATOM      8  C   UNL     1       2.575   7.137  18.658  0.00  0.00    +0.000 A 
ATOM      9  C   UNL     1       1.840   8.299  18.841  0.00  0.00    +0.000 A 
ATOM     10  N   UNL     1       0.682   8.544  19.537  0.00  0.00    +0.000 NA
ENDROOT
BRANCH   7  11
ATOM     11  C   UNL     1       4.685   6.677  17.164  0.00  0.00    +0.000 A 
ATOM     12  C   UNL     1       4.333   5.585  16.357  0.00  0.00    +0.000 A 
ATOM     13  C   UNL     1       5.320   4.828  15.708  0.00  0.00    +0.000 A 
ATOM     14  C   UNL     1       6.656   5.167  15.862  0.00  0.00    +0.000 A 
ATOM     15  F   UNL     1       7.593   4.465  15.214  0.00  0.00    +0.000 F 
ATOM     16  C   UNL     1       7.031   6.225  16.675  0.00  0.00    +0.000 A 
ATOM     17  C   UNL     1       6.049   6.961  17.346  0.00  0.00    +0.000 A 
ENDBRANCH   7  11
BRANCH   8  18
ATOM     18  C   UNL     1       2.242   5.854  19.284  0.00  0.00    +0.000 A 
ATOM     19  C   UNL     1       2.424   5.660  20.664  0.00  0.00    +0.000 A 
ATOM     20  C   UNL     1       2.151   4.426  21.262  0.00  0.00    +0.000 A 
ATOM     21  C   UNL     1       1.639   3.390  20.494  0.00  0.00    +0.000 A 
ATOM     22  F   UNL     1       1.355   2.215  21.069  0.00  0.00    +0.000 F 
ATOM     23  C   UNL     1       1.412   3.562  19.136  0.00  0.00    +0.000 A 
ATOM     24  C   UNL     1       1.728   4.783  18.531  0.00  0.00    +0.000 A 
ENDBRANCH   8  18
BRANCH   4  25
ATOM     25  N   UNL     1       2.747  11.664  17.519  0.00  0.00    +0.000 N 
ATOM     26  H   UNL     1       2.673  11.488  16.512  0.00  0.00    +0.000 HD
BRANCH  25  27
ATOM     27  C   UNL     1       2.358  13.067  17.721  0.00  0.00    +0.000 C 
BRANCH  27  28
ATOM     28  C   UNL     1       3.290  13.835  18.624  0.00  0.00    +0.000 A 
ATOM     29  C   UNL     1       3.031  13.872  20.003  0.00  0.00    +0.000 A 
ATOM     30  C   UNL     1       3.889  14.553  20.864  0.00  0.00    +0.000 A 
ATOM     31  C   UNL     1       4.993  15.182  20.320  0.00  0.00    +0.000 A 
ATOM     32  N   UNL     1       5.281  15.176  19.003  0.00  0.00    +0.000 NA
ATOM     33  C   UNL     1       4.425  14.507  18.187  0.00  0.00    +0.000 A 
ENDBRANCH  27  28
ENDBRANCH  25  27
ENDBRANCH   4  25
TORSDOF 5
ENDMDL
MODEL 8
REMARK VINA RESULT:      -7.6      0.646      1.278
REMARK  Name = 
REMARK  6 active torsions:
REMARK  status: ('A' for Active; 'I' for Inactive)
REMARK    1  A    between atoms: C_1  and  C_2
REMARK    2  A    between atoms: C_4  and  N_5
REMARK    3  A    between atoms: N_5  and  C_6
REMARK    4  A    between atoms: C_6  and  C_7
REMARK    5  A    between atoms: C_15  and  C_16
REMARK    6  A    between atoms: C_23  and  C_24
REMARK                            x       y       z     vdW  Elec       q    Type
REMARK                         _______ _______ _______ _____ _____    ______ ____
ROOT
ATOM      1  C   UNL     1      -0.592   8.764  21.795  0.00  0.00    +0.000 C 
ATOM      2  C   UNL     1       0.462   8.633  20.724  0.00  0.00    +0.000 A 
ATOM      3  C   UNL     1       0.698   9.813  19.845  0.00  0.00    +0.000 A 
ATOM      4  C   UNL     1       1.644   9.686  18.898  0.00  0.00    +0.000 A 
ATOM      5  N   UNL     1       2.325   8.438  18.781  0.00  0.00    +0.000 N 
ATOM      6  N   UNL     1       3.268   8.097  17.861  0.00  0.00    +0.000 NA
ATOM      7  C   UNL     1       3.565   6.810  18.119  0.00  0.00    +0.000 A 
ATOM      8  C   UNL     1       2.864   6.330  19.282  0.00  0.00    +0.000 A 
ATOM      9  C   UNL     1       2.037   7.383  19.644  0.00  0.00    +0.000 A 
ATOM     10  N   UNL     1       1.097   7.503  20.638  0.00  0.00    +0.000 NA
ENDROOT
BRANCH   7  11
ATOM     11  C   UNL     1       4.516   6.085  17.255  0.00  0.00    +0.000 A 
ATOM     12  C   UNL     1       4.098   4.963  16.523  0.00  0.00    +0.000 A 
ATOM     13  C   UNL     1       4.974   4.322  15.635  0.00  0.00    +0.000 A 
ATOM     14  C   UNL     1       6.264   4.806  15.475  0.00  0.00    +0.000 A 
ATOM     15  F   UNL     1       7.087   4.215  14.601  0.00  0.00    +0.000 F 
ATOM     16  C   UNL     1       6.710   5.897  16.206  0.00  0.00    +0.000 A 
ATOM     17  C   UNL     1       5.845   6.517  17.114  0.00  0.00    +0.000 A 
ENDBRANCH   7  11
BRANCH   8  18
ATOM     18  C   UNL     1       2.925   5.055  20.003  0.00  0.00    +0.000 A 
ATOM     19  C   UNL     1       3.905   4.098  19.687  0.00  0.00    +0.000 A 
ATOM     20  C   UNL     1       3.944   2.862  20.339  0.00  0.00    +0.000 A 
ATOM     21  C   UNL     1       3.036   2.593  21.354  0.00  0.00    +0.000 A 
ATOM     22  F   UNL     1       3.086   1.419  21.994  0.00  0.00    +0.000 F 
ATOM     23  C   UNL     1       2.080   3.533  21.715  0.00  0.00    +0.000 A 
ATOM     24  C   UNL     1       2.015   4.751  21.031  0.00  0.00    +0.000 A 
ENDBRANCH   8  18
BRANCH   4  25
ATOM     25  N   UNL     1       1.998  10.752  18.050  0.00  0.00    +0.000 N 
ATOM     26  H   UNL     1       1.719  10.480  17.102  0.00  0.00    +0.000 HD
BRANCH  25  27
ATOM     27  C   UNL     1       1.412  12.080  18.286  0.00  0.00    +0.000 C 
BRANCH  27  28
ATOM     28  C   UNL     1       2.337  13.038  18.993  0.00  0.00    +0.000 A 
ATOM     29  C   UNL     1       3.237  13.805  18.237  0.00  0.00    +0.000 A 
ATOM     30  C   UNL     1       4.086  14.715  18.861  0.00  0.00    +0.000 A 
ATOM     31  C   UNL     1       4.011  14.839  20.235  0.00  0.00    +0.000 A 
ATOM     32  N   UNL     1       3.166  14.123  21.004  0.00  0.00    +0.000 NA
ATOM     33  C   UNL     1       2.353  13.240  20.367  0.00  0.00    +0.000 A 
ENDBRANCH  27  28
ENDBRANCH  25  27
ENDBRANCH   4  25
TORSDOF 5
ENDMDL
MODEL 9
REMARK VINA RESULT:      -7.6      1.292      1.800
REMARK  Name = 
REMARK  6 active torsions:
REMARK  status: ('A' for Active; 'I' for Inactive)
REMARK    1  A    between atoms: C_1  and  C_2
REMARK    2  A    between atoms: C_4  and  N_5
REMARK    3  A    between atoms: N_5  and  C_6
REMARK    4  A    between atoms: C_6  and  C_7
REMARK    5  A    between atoms: C_15  and  C_16
REMARK    6  A    between atoms: C_23  and  C_24
REMARK                            x       y       z     vdW  Elec       q    Type
REMARK                         _______ _______ _______ _____ _____    ______ ____
ROOT
ATOM      1  C   UNL     1      -0.426   8.944  21.904  0.00  0.00    +0.000 C 
ATOM      2  C   UNL     1       0.525   8.749  20.750  0.00  0.00    +0.000 A 
ATOM      3  C   UNL     1       0.705   9.891  19.808  0.00  0.00    +0.000 A 
ATOM      4  C   UNL     1       1.560   9.707  18.787  0.00  0.00    +0.000 A 
ATOM      5  N   UNL     1       2.203   8.441  18.658  0.00  0.00    +0.000 N 
ATOM      6  N   UNL     1       3.053   8.044  17.672  0.00  0.00    +0.000 NA
ATOM      7  C   UNL     1       3.346   6.761  17.953  0.00  0.00    +0.000 A 
ATOM      8  C   UNL     1       2.743   6.340  19.190  0.00  0.00    +0.000 A 
ATOM      9  C   UNL     1       1.972   7.425  19.584  0.00  0.00    +0.000 A 
ATOM     10  N   UNL     1       1.127   7.602  20.652  0.00  0.00    +0.000 NA
ENDROOT
BRANCH   7  11
ATOM     11  C   UNL     1       4.202   5.983  17.036  0.00  0.00    +0.000 A 
ATOM     12  C   UNL     1       5.335   6.570  16.451  0.00  0.00    +0.000 A 
ATOM     13  C   UNL     1       6.198   5.811  15.648  0.00  0.00    +0.000 A 
ATOM     14  C   UNL     1       5.932   4.467  15.434  0.00  0.00    +0.000 A 
ATOM     15  F   UNL     1       6.776   3.736  14.696  0.00  0.00    +0.000 F 
ATOM     16  C   UNL     1       4.805   3.870  15.979  0.00  0.00    +0.000 A 
ATOM     17  C   UNL     1       3.928   4.634  16.756  0.00  0.00    +0.000 A 
ENDBRANCH   7  11
BRANCH   8  18
ATOM     18  C   UNL     1       2.843   5.091  19.952  0.00  0.00    +0.000 A 
ATOM     19  C   UNL     1       3.931   4.222  19.764  0.00  0.00    +0.000 A 
ATOM     20  C   UNL     1       4.013   3.008  20.454  0.00  0.00    +0.000 A 
ATOM     21  C   UNL     1       3.034   2.679  21.380  0.00  0.00    +0.000 A 
ATOM     22  F   UNL     1       3.122   1.528  22.058  0.00  0.00    +0.000 F 
ATOM     23  C   UNL     1       1.966   3.534  21.616  0.00  0.00    +0.000 A 
ATOM     24  C   UNL     1       1.863   4.727  20.892  0.00  0.00    +0.000 A 
ENDBRANCH   8  18
BRANCH   4  25
ATOM     25  N   UNL     1       1.857  10.733  17.870  0.00  0.00    +0.000 N 
ATOM     26  H   UNL     1       0.970  11.009  17.438  0.00  0.00    +0.000 HD
BRANCH  25  27
ATOM     27  C   UNL     1       2.481  11.972  18.358  0.00  0.00    +0.000 C 
BRANCH  27  28
ATOM     28  C   UNL     1       1.513  12.932  18.999  0.00  0.00    +0.000 A 
ATOM     29  C   UNL     1       1.787  13.428  20.282  0.00  0.00    +0.000 A 
ATOM     30  C   UNL     1       0.923  14.336  20.889  0.00  0.00    +0.000 A 
ATOM     31  C   UNL     1      -0.202  14.731  20.189  0.00  0.00    +0.000 A 
ATOM     32  N   UNL     1      -0.509  14.280  18.955  0.00  0.00    +0.000 NA
ATOM     33  C   UNL     1       0.351  13.392  18.392  0.00  0.00    +0.000 A 
ENDBRANCH  27  28
ENDBRANCH  25  27
ENDBRANCH   4  25
TORSDOF 5
ENDMDL
