MODEL 1
REMARK VINA RESULT:      -7.4      0.000      0.000
REMARK  Name = 
REMARK  8 active torsions:
REMARK  status: ('A' for Active; 'I' for Inactive)
REMARK    1  A    between atoms: C_1  and  C_2
REMARK    2  A    between atoms: C_2  and  C_3
REMARK    3  A    between atoms: C_3  and  S_4
REMARK    4  A    between atoms: S_4  and  C_5
REMARK    5  A    between atoms: C_13  and  C_14
REMARK    6  A    between atoms: C_14  and  O_16
REMARK    7  A    between atoms: C_19  and  C_20
REMARK    8  A    between atoms: N_22  and  C_23
REMARK                            x       y       z     vdW  Elec       q    Type
REMARK                         _______ _______ _______ _____ _____    ______ ____
ROOT
ATOM      1  C   UNL     1       1.564   8.782  20.184  0.00  0.00    +0.000 A 
ATOM      2  N   UNL     1       2.209   7.613  19.898  0.00  0.00    +0.000 NA
ATOM      3  C   UNL     1       2.430   7.242  18.619  0.00  0.00    +0.000 A 
ATOM      4  N   UNL     1       3.119   6.067  18.365  0.00  0.00    +0.000 N 
ATOM      5  C   UNL     1       3.524   5.228  19.502  0.00  0.00    +0.000 C 
ATOM      6  C   UNL     1       4.874   4.705  19.114  0.00  0.00    +0.000 C 
ATOM      7  C   UNL     1       5.216   5.194  17.752  0.00  0.00    +0.000 C 
ATOM      8  C   UNL     1       4.066   6.016  17.247  0.00  0.00    +0.000 C 
ATOM      9  C   UNL     1       6.028   5.672  18.942  0.00  0.00    +0.000 C 
ATOM     10  C   UNL     1       1.946   8.032  17.584  0.00  0.00    +0.000 A 
ATOM     11  C   UNL     1       1.285   9.230  17.867  0.00  0.00    +0.000 A 
ATOM     12  C   UNL     1       1.081   9.637  19.193  0.00  0.00    +0.000 A 
ENDROOT
BRANCH  12  13
ATOM     13  C   UNL     1       0.358  10.937  19.387  0.00  0.00    +0.000 C 
ATOM     14  O   UNL     1      -0.860  10.972  19.229  0.00  0.00    +0.000 OA
ATOM     15  N   UNL     1       1.082  12.036  19.791  0.00  0.00    +0.000 N 
ATOM     16  H   UNL     1       2.094  11.964  19.816  0.00  0.00    +0.000 HD
BRANCH  15  17
ATOM     17  C   UNL     1       0.481  13.316  20.149  0.00  0.00    +0.000 C 
ATOM     18  C   UNL     1       1.183  13.901  21.381  0.00  0.00    +0.000 C 
ATOM     19  C   UNL     1       2.566  14.465  21.064  0.00  0.00    +0.000 C 
ATOM     20  C   UNL     1       2.494  15.519  19.967  0.00  0.00    +0.000 C 
ATOM     21  C   UNL     1       1.814  14.989  18.707  0.00  0.00    +0.000 C 
ATOM     22  C   UNL     1       0.468  14.314  18.982  0.00  0.00    +0.000 C 
ENDBRANCH  15  17
ENDBRANCH  12  13
BRANCH   9  23
ATOM     23  C   UNL     1       7.400   5.240  19.296  0.00  0.00    +0.000 C 
ATOM     24  O   UNL     1       8.116   4.692  18.475  0.00  0.00    +0.000 OA
BRANCH  23  25
ATOM     25  O   UNL     1       7.799   5.509  20.558  0.00  0.00    +0.000 OA
ATOM     26  H   UNL     1       7.755   6.450  20.789  0.00  0.00    +0.000 HD
ENDBRANCH  23  25
ENDBRANCH   9  23
BRANCH   1  27
ATOM     27  S   UNL     1       1.337   9.077  21.937  0.00  0.00    +0.000 S 
BRANCH  27  28
ATOM     28  C   UNL     1      -0.476   9.179  22.058  0.00  0.00    +0.000 C 
BRANCH  28  30
ATOM     29  C   UNL     1      -1.445  11.413  22.688  0.00  0.00    +0.000 C 
ATOM     30  C   UNL     1      -0.828  10.125  23.205  0.00  0.00    +0.000 C 
ENDBRANCH  28  30
ENDBRANCH  27  28
ENDBRANCH   1  27
TORSDOF 7
ENDMDL
MODEL 2
REMARK VINA RESULT:      -6.8      3.822      9.083
REMARK  Name = 
REMARK  8 active torsions:
REMARK  status: ('A' for Active; 'I' for Inactive)
REMARK    1  A    between atoms: C_1  and  C_2
REMARK    2  A    between atoms: C_2  and  C_3
REMARK    3  A    between atoms: C_3  and  S_4
REMARK    4  A    between atoms: S_4  and  C_5
REMARK    5  A    between atoms: C_13  and  C_14
REMARK    6  A    between atoms: C_14  and  O_16
REMARK    7  A    between atoms: C_19  and  C_20
REMARK    8  A    between atoms: N_22  and  C_23
REMARK                            x       y       z     vdW  Elec       q    Type
REMARK                         _______ _______ _______ _____ _____    ______ ____
ROOT
ATOM      1  C   UNL     1      -0.642  10.790  19.470  0.00  0.00    +0.000 A 
ATOM      2  N   UNL     1      -1.857  11.404  19.362  0.00  0.00    +0.000 NA
ATOM      3  C   UNL     1      -2.652  11.178  18.296  0.00  0.00    +0.000 A 
ATOM      4  N   UNL     1      -3.894  11.791  18.235  0.00  0.00    +0.000 N 
ATOM      5  C   UNL     1      -4.272  12.723  19.307  0.00  0.00    +0.000 C 
ATOM      6  C   UNL     1      -5.733  12.466  19.524  0.00  0.00    +0.000 C 
ATOM      7  C   UNL     1      -6.198  11.439  18.555  0.00  0.00    +0.000 C 
ATOM      8  C   UNL     1      -5.035  11.050  17.689  0.00  0.00    +0.000 C 
ATOM      9  C   UNL     1      -6.184  11.114  20.038  0.00  0.00    +0.000 C 
ATOM     10  C   UNL     1      -2.205  10.355  17.270  0.00  0.00    +0.000 A 
ATOM     11  C   UNL     1      -0.963   9.721  17.372  0.00  0.00    +0.000 A 
ATOM     12  C   UNL     1      -0.146   9.926  18.492  0.00  0.00    +0.000 A 
ENDROOT
BRANCH  12  13
ATOM     13  C   UNL     1       1.167   9.203  18.500  0.00  0.00    +0.000 C 
ATOM     14  O   UNL     1       2.150   9.742  17.995  0.00  0.00    +0.000 OA
ATOM     15  N   UNL     1       1.238   7.978  19.125  0.00  0.00    +0.000 N 
ATOM     16  H   UNL     1       0.375   7.549  19.442  0.00  0.00    +0.000 HD
BRANCH  15  17
ATOM     17  C   UNL     1       2.480   7.240  19.325  0.00  0.00    +0.000 C 
ATOM     18  C   UNL     1       2.383   6.379  20.591  0.00  0.00    +0.000 C 
ATOM     19  C   UNL     1       1.501   5.146  20.404  0.00  0.00    +0.000 C 
ATOM     20  C   UNL     1       1.985   4.293  19.239  0.00  0.00    +0.000 C 
ATOM     21  C   UNL     1       2.090   5.095  17.946  0.00  0.00    +0.000 C 
ATOM     22  C   UNL     1       2.875   6.399  18.102  0.00  0.00    +0.000 C 
ENDBRANCH  15  17
ENDBRANCH  12  13
BRANCH   9  23
ATOM     23  C   UNL     1      -7.366  11.030  20.927  0.00  0.00    +0.000 C 
ATOM     24  O   UNL     1      -7.789   9.951  21.307  0.00  0.00    +0.000 OA
BRANCH  23  25
ATOM     25  O   UNL     1      -7.916  12.206  21.295  0.00  0.00    +0.000 OA
ATOM     26  H   UNL     1      -8.022  12.306  22.254  0.00  0.00    +0.000 HD
ENDBRANCH  23  25
ENDBRANCH   9  23
BRANCH   1  27
ATOM     27  S   UNL     1       0.276  11.247  20.939  0.00  0.00    +0.000 S 
BRANCH  27  28
ATOM     28  C   UNL     1      -0.862  10.719  22.259  0.00  0.00    +0.000 C 
BRANCH  28  30
ATOM     29  C   UNL     1      -2.781  12.235  22.845  0.00  0.00    +0.000 C 
ATOM     30  C   UNL     1      -1.300  11.958  23.037  0.00  0.00    +0.000 C 
ENDBRANCH  28  30
ENDBRANCH  27  28
ENDBRANCH   1  27
TORSDOF 7
ENDMDL
MODEL 3
REMARK VINA RESULT:      -6.7      0.846      1.151
REMARK  Name = 
REMARK  8 active torsions:
REMARK  status: ('A' for Active; 'I' for Inactive)
REMARK    1  A    between atoms: C_1  and  C_2
REMARK    2  A    between atoms: C_2  and  C_3
REMARK    3  A    between atoms: C_3  and  S_4
REMARK    4  A    between atoms: S_4  and  C_5
REMARK    5  A    between atoms: C_13  and  C_14
REMARK    6  A    between atoms: C_14  and  O_16
REMARK    7  A    between atoms: C_19  and  C_20
REMARK    8  A    between atoms: N_22  and  C_23
REMARK                            x       y       z     vdW  Elec       q    Type
REMARK                         _______ _______ _______ _____ _____    ______ ____
ROOT
ATOM      1  C   UNL     1       1.387   8.324  19.854  0.00  0.00    +0.000 A 
ATOM      2  N   UNL     1       2.177   7.343  19.326  0.00  0.00    +0.000 NA
ATOM      3  C   UNL     1       2.759   7.500  18.119  0.00  0.00    +0.000 A 
ATOM      4  N   UNL     1       3.582   6.499  17.629  0.00  0.00    +0.000 N 
ATOM      5  C   UNL     1       3.738   5.267  18.416  0.00  0.00    +0.000 C 
ATOM      6  C   UNL     1       5.180   4.896  18.244  0.00  0.00    +0.000 C 
ATOM      7  C   UNL     1       5.830   5.871  17.329  0.00  0.00    +0.000 C 
ATOM      8  C   UNL     1       4.793   6.863  16.887  0.00  0.00    +0.000 C 
ATOM      9  C   UNL     1       6.255   5.815  18.785  0.00  0.00    +0.000 C 
ATOM     10  C   UNL     1       2.505   8.649  17.381  0.00  0.00    +0.000 A 
ATOM     11  C   UNL     1       1.699   9.659  17.913  0.00  0.00    +0.000 A 
ATOM     12  C   UNL     1       1.118   9.517  19.180  0.00  0.00    +0.000 A 
ENDROOT
BRANCH  12  13
ATOM     13  C   UNL     1       0.267  10.657  19.656  0.00  0.00    +0.000 C 
ATOM     14  O   UNL     1      -0.950  10.502  19.735  0.00  0.00    +0.000 OA
ATOM     15  N   UNL     1       0.889  11.823  20.040  0.00  0.00    +0.000 N 
ATOM     16  H   UNL     1       1.884  11.919  19.866  0.00  0.00    +0.000 HD
BRANCH  15  17
ATOM     17  C   UNL     1       0.193  12.950  20.651  0.00  0.00    +0.000 C 
ATOM     18  C   UNL     1       1.204  13.915  21.281  0.00  0.00    +0.000 C 
ATOM     19  C   UNL     1       1.959  14.745  20.245  0.00  0.00    +0.000 C 
ATOM     20  C   UNL     1       0.998  15.520  19.353  0.00  0.00    +0.000 C 
ATOM     21  C   UNL     1      -0.027  14.608  18.686  0.00  0.00    +0.000 C 
ATOM     22  C   UNL     1      -0.739  13.676  19.669  0.00  0.00    +0.000 C 
ENDBRANCH  15  17
ENDBRANCH  12  13
BRANCH   9  23
ATOM     23  C   UNL     1       7.514   5.235  19.308  0.00  0.00    +0.000 C 
ATOM     24  O   UNL     1       7.862   5.427  20.461  0.00  0.00    +0.000 OA
BRANCH  23  25
ATOM     25  O   UNL     1       8.224   4.479  18.442  0.00  0.00    +0.000 OA
ATOM     26  H   UNL     1       8.627   3.695  18.847  0.00  0.00    +0.000 HD
ENDBRANCH  23  25
ENDBRANCH   9  23
BRANCH   1  27
ATOM     27  S   UNL     1       0.680   7.911  21.447  0.00  0.00    +0.000 S 
BRANCH  27  28
ATOM     28  C   UNL     1       1.230   9.317  22.465  0.00  0.00    +0.000 C 
BRANCH  28  30
ATOM     29  C   UNL     1      -0.930  10.425  23.123  0.00  0.00    +0.000 C 
ATOM     30  C   UNL     1       0.208   9.530  23.581  0.00  0.00    +0.000 C 
ENDBRANCH  28  30
ENDBRANCH  27  28
ENDBRANCH   1  27
TORSDOF 7
ENDMDL
MODEL 4
REMARK VINA RESULT:      -6.5      1.573      2.736
REMARK  Name = 
REMARK  8 active torsions:
REMARK  status: ('A' for Active; 'I' for Inactive)
REMARK    1  A    between atoms: C_1  and  C_2
REMARK    2  A    between atoms: C_2  and  C_3
REMARK    3  A    between atoms: C_3  and  S_4
REMARK    4  A    between atoms: S_4  and  C_5
REMARK    5  A    between atoms: C_13  and  C_14
REMARK    6  A    between atoms: C_14  and  O_16
REMARK    7  A    between atoms: C_19  and  C_20
REMARK    8  A    between atoms: N_22  and  C_23
REMARK                            x       y       z     vdW  Elec       q    Type
REMARK                         _______ _______ _______ _____ _____    ______ ____
ROOT
ATOM      1  C   UNL     1       1.827   7.601  19.603  0.00  0.00    +0.000 A 
ATOM      2  N   UNL     1       2.655   6.765  18.910  0.00  0.00    +0.000 NA
ATOM      3  C   UNL     1       3.246   7.170  17.766  0.00  0.00    +0.000 A 
ATOM      4  N   UNL     1       4.108   6.308  17.108  0.00  0.00    +0.000 N 
ATOM      5  C   UNL     1       4.295   4.953  17.644  0.00  0.00    +0.000 C 
ATOM      6  C   UNL     1       5.750   4.666  17.430  0.00  0.00    +0.000 C 
ATOM      7  C   UNL     1       6.379   5.819  16.733  0.00  0.00    +0.000 C 
ATOM      8  C   UNL     1       5.315   6.846  16.471  0.00  0.00    +0.000 C 
ATOM      9  C   UNL     1       6.789   5.495  18.158  0.00  0.00    +0.000 C 
ATOM     10  C   UNL     1       2.964   8.432  17.261  0.00  0.00    +0.000 A 
ATOM     11  C   UNL     1       2.118   9.296  17.962  0.00  0.00    +0.000 A 
ATOM     12  C   UNL     1       1.527   8.893  19.167  0.00  0.00    +0.000 A 
ENDROOT
BRANCH  12  13
ATOM     13  C   UNL     1       0.633   9.893  19.839  0.00  0.00    +0.000 C 
ATOM     14  O   UNL     1      -0.342   9.493  20.472  0.00  0.00    +0.000 OA
ATOM     15  N   UNL     1       0.970  11.226  19.767  0.00  0.00    +0.000 N 
ATOM     16  H   UNL     1       1.734  11.498  19.157  0.00  0.00    +0.000 HD
BRANCH  15  17
ATOM     17  C   UNL     1       0.268  12.280  20.491  0.00  0.00    +0.000 C 
ATOM     18  C   UNL     1       1.268  13.324  21.002  0.00  0.00    +0.000 C 
ATOM     19  C   UNL     1       1.801  14.229  19.893  0.00  0.00    +0.000 C 
ATOM     20  C   UNL     1       0.665  14.925  19.155  0.00  0.00    +0.000 C 
ATOM     21  C   UNL     1      -0.358  13.932  18.611  0.00  0.00    +0.000 C 
ATOM     22  C   UNL     1      -0.848  12.930  19.658  0.00  0.00    +0.000 C 
ENDBRANCH  15  17
ENDBRANCH  12  13
BRANCH   9  23
ATOM     23  C   UNL     1       8.060   4.862  18.582  0.00  0.00    +0.000 C 
ATOM     24  O   UNL     1       8.616   4.038  17.875  0.00  0.00    +0.000 OA
BRANCH  23  25
ATOM     25  O   UNL     1       8.558   5.268  19.769  0.00  0.00    +0.000 OA
ATOM     26  H   UNL     1       7.890   5.342  20.468  0.00  0.00    +0.000 HD
ENDBRANCH  23  25
ENDBRANCH   9  23
BRANCH   1  27
ATOM     27  S   UNL     1       1.116   6.866  21.073  0.00  0.00    +0.000 S 
BRANCH  27  28
ATOM     28  C   UNL     1       1.946   5.246  21.109  0.00  0.00    +0.000 C 
BRANCH  28  30
ATOM     29  C   UNL     1       1.284   2.820  21.109  0.00  0.00    +0.000 C 
ATOM     30  C   UNL     1       0.981   4.200  20.553  0.00  0.00    +0.000 C 
ENDBRANCH  28  30
ENDBRANCH  27  28
ENDBRANCH   1  27
TORSDOF 7
ENDMDL
MODEL 5
REMARK VINA RESULT:      -6.5      3.959      9.096
REMARK  Name = 
REMARK  8 active torsions:
REMARK  status: ('A' for Active; 'I' for Inactive)
REMARK    1  A    between atoms: C_1  and  C_2
REMARK    2  A    between atoms: C_2  and  C_3
REMARK    3  A    between atoms: C_3  and  S_4
REMARK    4  A    between atoms: S_4  and  C_5
REMARK    5  A    between atoms: C_13  and  C_14
REMARK    6  A    between atoms: C_14  and  O_16
REMARK    7  A    between atoms: C_19  and  C_20
REMARK    8  A    between atoms: N_22  and  C_23
REMARK                            x       y       z     vdW  Elec       q    Type
REMARK                         _______ _______ _______ _____ _____    ______ ____
ROOT
ATOM      1  C   UNL     1      -0.787  11.097  19.055  0.00  0.00    +0.000 A 
ATOM      2  N   UNL     1      -2.055  11.594  18.955  0.00  0.00    +0.000 NA
ATOM      3  C   UNL     1      -2.913  11.116  18.030  0.00  0.00    +0.000 A 
ATOM      4  N   UNL     1      -4.203  11.619  17.980  0.00  0.00    +0.000 N 
ATOM      5  C   UNL     1      -4.570  12.708  18.896  0.00  0.00    +0.000 C 
ATOM      6  C   UNL     1      -5.981  12.397  19.296  0.00  0.00    +0.000 C 
ATOM      7  C   UNL     1      -6.434  11.176  18.580  0.00  0.00    +0.000 C 
ATOM      8  C   UNL     1      -5.318  10.712  17.690  0.00  0.00    +0.000 C 
ATOM      9  C   UNL     1      -6.270  11.139  20.089  0.00  0.00    +0.000 C 
ATOM     10  C   UNL     1      -2.482  10.147  17.133  0.00  0.00    +0.000 A 
ATOM     11  C   UNL     1      -1.187   9.631  17.228  0.00  0.00    +0.000 A 
ATOM     12  C   UNL     1      -0.301  10.100  18.207  0.00  0.00    +0.000 A 
ENDROOT
BRANCH  12  13
ATOM     13  C   UNL     1       1.066   9.483  18.220  0.00  0.00    +0.000 C 
ATOM     14  O   UNL     1       2.012  10.116  17.755  0.00  0.00    +0.000 OA
ATOM     15  N   UNL     1       1.223   8.247  18.804  0.00  0.00    +0.000 N 
ATOM     16  H   UNL     1       0.391   7.739  19.088  0.00  0.00    +0.000 HD
BRANCH  15  17
ATOM     17  C   UNL     1       2.516   7.603  19.006  0.00  0.00    +0.000 C 
ATOM     18  C   UNL     1       2.526   6.848  20.341  0.00  0.00    +0.000 C 
ATOM     19  C   UNL     1       1.716   5.553  20.296  0.00  0.00    +0.000 C 
ATOM     20  C   UNL     1       2.205   4.635  19.184  0.00  0.00    +0.000 C 
ATOM     21  C   UNL     1       2.205   5.330  17.826  0.00  0.00    +0.000 C 
ATOM     22  C   UNL     1       2.913   6.687  17.839  0.00  0.00    +0.000 C 
ENDBRANCH  15  17
ENDBRANCH  12  13
BRANCH   9  23
ATOM     23  C   UNL     1      -7.363  11.143  21.089  0.00  0.00    +0.000 C 
ATOM     24  O   UNL     1      -7.875  12.188  21.455  0.00  0.00    +0.000 OA
BRANCH  23  25
ATOM     25  O   UNL     1      -7.758   9.934  21.542  0.00  0.00    +0.000 OA
ATOM     26  H   UNL     1      -7.575   9.207  20.926  0.00  0.00    +0.000 HD
ENDBRANCH  23  25
ENDBRANCH   9  23
BRANCH   1  27
ATOM     27  S   UNL     1       0.207  11.885  20.320  0.00  0.00    +0.000 S 
BRANCH  27  28
ATOM     28  C   UNL     1       0.664  10.464  21.362  0.00  0.00    +0.000 C 
BRANCH  28  30
ATOM     29  C   UNL     1      -0.043   9.256  23.452  0.00  0.00    +0.000 C 
ATOM     30  C   UNL     1      -0.474  10.204  22.347  0.00  0.00    +0.000 C 
ENDBRANCH  28  30
ENDBRANCH  27  28
ENDBRANCH   1  27
TORSDOF 7
ENDMDL
MODEL 6
REMARK VINA RESULT:      -6.5      2.071      2.975
REMARK  Name = 
REMARK  8 active torsions:
REMARK  status: ('A' for Active; 'I' for Inactive)
REMARK    1  A    between atoms: C_1  and  C_2
REMARK    2  A    between atoms: C_2  and  C_3
REMARK    3  A    between atoms: C_3  and  S_4
REMARK    4  A    between atoms: S_4  and  C_5
REMARK    5  A    between atoms: C_13  and  C_14
REMARK    6  A    between atoms: C_14  and  O_16
REMARK    7  A    between atoms: C_19  and  C_20
REMARK    8  A    between atoms: N_22  and  C_23
REMARK                            x       y       z     vdW  Elec       q    Type
REMARK                         _______ _______ _______ _____ _____    ______ ____
ROOT
ATOM      1  C   UNL     1       1.689   8.709  19.907  0.00  0.00    +0.000 A 
ATOM      2  N   UNL     1       2.332   7.510  19.788  0.00  0.00    +0.000 NA
ATOM      3  C   UNL     1       2.523   6.947  18.576  0.00  0.00    +0.000 A 
ATOM      4  N   UNL     1       3.210   5.747  18.489  0.00  0.00    +0.000 N 
ATOM      5  C   UNL     1       3.648   5.093  19.730  0.00  0.00    +0.000 C 
ATOM      6  C   UNL     1       4.990   4.517  19.394  0.00  0.00    +0.000 C 
ATOM      7  C   UNL     1       5.295   4.791  17.965  0.00  0.00    +0.000 C 
ATOM      8  C   UNL     1       4.129   5.525  17.368  0.00  0.00    +0.000 C 
ATOM      9  C   UNL     1       6.134   5.447  19.046  0.00  0.00    +0.000 C 
ATOM     10  C   UNL     1       2.010   7.568  17.445  0.00  0.00    +0.000 A 
ATOM     11  C   UNL     1       1.352   8.795  17.556  0.00  0.00    +0.000 A 
ATOM     12  C   UNL     1       1.179   9.401  18.808  0.00  0.00    +0.000 A 
ENDROOT
BRANCH  12  13
ATOM     13  C   UNL     1       0.455  10.715  18.818  0.00  0.00    +0.000 C 
ATOM     14  O   UNL     1       1.019  11.705  19.280  0.00  0.00    +0.000 OA
ATOM     15  N   UNL     1      -0.801  10.777  18.257  0.00  0.00    +0.000 N 
ATOM     16  H   UNL     1      -1.246   9.909  17.976  0.00  0.00    +0.000 HD
BRANCH  15  17
ATOM     17  C   UNL     1      -1.549  12.016  18.078  0.00  0.00    +0.000 C 
ATOM     18  C   UNL     1      -2.690  11.801  17.076  0.00  0.00    +0.000 C 
ATOM     19  C   UNL     1      -3.854  11.004  17.663  0.00  0.00    +0.000 C 
ATOM     20  C   UNL     1      -4.395  11.666  18.924  0.00  0.00    +0.000 C 
ATOM     21  C   UNL     1      -3.303  11.894  19.966  0.00  0.00    +0.000 C 
ATOM     22  C   UNL     1      -2.065  12.596  19.403  0.00  0.00    +0.000 C 
ENDBRANCH  15  17
ENDBRANCH  12  13
BRANCH   9  23
ATOM     23  C   UNL     1       7.517   5.076  19.428  0.00  0.00    +0.000 C 
ATOM     24  O   UNL     1       7.920   5.246  20.566  0.00  0.00    +0.000 OA
BRANCH  23  25
ATOM     25  O   UNL     1       8.275   4.529  18.453  0.00  0.00    +0.000 OA
ATOM     26  H   UNL     1       7.806   4.410  17.613  0.00  0.00    +0.000 HD
ENDBRANCH  23  25
ENDBRANCH   9  23
BRANCH   1  27
ATOM     27  S   UNL     1       1.505   9.270  21.598  0.00  0.00    +0.000 S 
BRANCH  27  28
ATOM     28  C   UNL     1      -0.307   9.326  21.769  0.00  0.00    +0.000 C 
BRANCH  28  30
ATOM     29  C   UNL     1      -1.390  11.232  23.001  0.00  0.00    +0.000 C 
ATOM     30  C   UNL     1      -0.642   9.917  23.137  0.00  0.00    +0.000 C 
ENDBRANCH  28  30
ENDBRANCH  27  28
ENDBRANCH   1  27
TORSDOF 7
ENDMDL
MODEL 7
REMARK VINA RESULT:      -6.4      3.557      8.883
REMARK  Name = 
REMARK  8 active torsions:
REMARK  status: ('A' for Active; 'I' for Inactive)
REMARK    1  A    between atoms: C_1  and  C_2
REMARK    2  A    between atoms: C_2  and  C_3
REMARK    3  A    between atoms: C_3  and  S_4
REMARK    4  A    between atoms: S_4  and  C_5
REMARK    5  A    between atoms: C_13  and  C_14
REMARK    6  A    between atoms: C_14  and  O_16
REMARK    7  A    between atoms: C_19  and  C_20
REMARK    8  A    between atoms: N_22  and  C_23
REMARK                            x       y       z     vdW  Elec       q    Type
REMARK                         _______ _______ _______ _____ _____    ______ ____
ROOT
ATOM      1  C   UNL     1      -0.393   9.916  20.549  0.00  0.00    +0.000 A 
ATOM      2  N   UNL     1      -1.374  10.717  20.039  0.00  0.00    +0.000 NA
ATOM      3  C   UNL     1      -1.550  10.830  18.706  0.00  0.00    +0.000 A 
ATOM      4  N   UNL     1      -2.578  11.624  18.224  0.00  0.00    +0.000 N 
ATOM      5  C   UNL     1      -3.400  12.372  19.185  0.00  0.00    +0.000 C 
ATOM      6  C   UNL     1      -4.787  12.304  18.620  0.00  0.00    +0.000 C 
ATOM      7  C   UNL     1      -4.752  11.571  17.327  0.00  0.00    +0.000 C 
ATOM      8  C   UNL     1      -3.329  11.189  17.042  0.00  0.00    +0.000 C 
ATOM      9  C   UNL     1      -5.481  10.961  18.510  0.00  0.00    +0.000 C 
ATOM     10  C   UNL     1      -0.686  10.167  17.844  0.00  0.00    +0.000 A 
ATOM     11  C   UNL     1       0.321   9.345  18.356  0.00  0.00    +0.000 A 
ATOM     12  C   UNL     1       0.488   9.197  19.739  0.00  0.00    +0.000 A 
ENDROOT
BRANCH  12  13
ATOM     13  C   UNL     1       1.600   8.295  20.184  0.00  0.00    +0.000 C 
ATOM     14  O   UNL     1       2.081   8.446  21.305  0.00  0.00    +0.000 OA
ATOM     15  N   UNL     1       2.007   7.288  19.337  0.00  0.00    +0.000 N 
ATOM     16  H   UNL     1       1.634   7.273  18.393  0.00  0.00    +0.000 HD
BRANCH  15  17
ATOM     17  C   UNL     1       2.976   6.262  19.704  0.00  0.00    +0.000 C 
ATOM     18  C   UNL     1       2.298   5.176  20.549  0.00  0.00    +0.000 C 
ATOM     19  C   UNL     1       1.403   4.254  19.724  0.00  0.00    +0.000 C 
ATOM     20  C   UNL     1       2.179   3.606  18.585  0.00  0.00    +0.000 C 
ATOM     21  C   UNL     1       2.867   4.641  17.699  0.00  0.00    +0.000 C 
ATOM     22  C   UNL     1       3.694   5.660  18.487  0.00  0.00    +0.000 C 
ENDBRANCH  15  17
ENDBRANCH  12  13
BRANCH   9  23
ATOM     23  C   UNL     1      -6.950  10.884  18.689  0.00  0.00    +0.000 C 
ATOM     24  O   UNL     1      -7.630  11.896  18.735  0.00  0.00    +0.000 OA
BRANCH  23  25
ATOM     25  O   UNL     1      -7.472   9.642  18.776  0.00  0.00    +0.000 OA
ATOM     26  H   UNL     1      -8.286   9.523  18.261  0.00  0.00    +0.000 HD
ENDBRANCH  23  25
ENDBRANCH   9  23
BRANCH   1  27
ATOM     27  S   UNL     1      -0.300   9.928  22.338  0.00  0.00    +0.000 S 
BRANCH  27  28
ATOM     28  C   UNL     1      -0.809  11.634  22.718  0.00  0.00    +0.000 C 
BRANCH  28  30
ATOM     29  C   UNL     1      -2.819  12.986  23.395  0.00  0.00    +0.000 C 
ATOM     30  C   UNL     1      -2.218  11.594  23.307  0.00  0.00    +0.000 C 
ENDBRANCH  28  30
ENDBRANCH  27  28
ENDBRANCH   1  27
TORSDOF 7
ENDMDL
MODEL 8
REMARK VINA RESULT:      -6.4      5.488      8.818
REMARK  Name = 
REMARK  8 active torsions:
REMARK  status: ('A' for Active; 'I' for Inactive)
REMARK    1  A    between atoms: C_1  and  C_2
REMARK    2  A    between atoms: C_2  and  C_3
REMARK    3  A    between atoms: C_3  and  S_4
REMARK    4  A    between atoms: S_4  and  C_5
REMARK    5  A    between atoms: C_13  and  C_14
REMARK    6  A    between atoms: C_14  and  O_16
REMARK    7  A    between atoms: C_19  and  C_20
REMARK    8  A    between atoms: N_22  and  C_23
REMARK                            x       y       z     vdW  Elec       q    Type
REMARK                         _______ _______ _______ _____ _____    ______ ____
ROOT
ATOM      1  C   UNL     1       5.692  14.972  20.233  0.00  0.00    +0.000 A 
ATOM      2  N   UNL     1       4.346  14.791  20.379  0.00  0.00    +0.000 NA
ATOM      3  C   UNL     1       3.556  14.595  19.303  0.00  0.00    +0.000 A 
ATOM      4  N   UNL     1       2.200  14.379  19.489  0.00  0.00    +0.000 N 
ATOM      5  C   UNL     1       1.658  14.442  20.853  0.00  0.00    +0.000 C 
ATOM      6  C   UNL     1       0.624  13.358  20.893  0.00  0.00    +0.000 C 
ATOM      7  C   UNL     1       0.536  12.717  19.554  0.00  0.00    +0.000 C 
ATOM      8  C   UNL     1       1.502  13.411  18.637  0.00  0.00    +0.000 C 
ATOM      9  C   UNL     1       1.052  11.913  20.734  0.00  0.00    +0.000 C 
ATOM     10  C   UNL     1       4.111  14.633  18.030  0.00  0.00    +0.000 A 
ATOM     11  C   UNL     1       5.488  14.816  17.871  0.00  0.00    +0.000 A 
ATOM     12  C   UNL     1       6.318  14.988  18.986  0.00  0.00    +0.000 A 
ENDROOT
BRANCH  12  13
ATOM     13  C   UNL     1       7.779  15.182  18.706  0.00  0.00    +0.000 C 
ATOM     14  O   UNL     1       8.206  16.320  18.518  0.00  0.00    +0.000 OA
ATOM     15  N   UNL     1       8.602  14.079  18.723  0.00  0.00    +0.000 N 
ATOM     16  H   UNL     1       8.176  13.161  18.794  0.00  0.00    +0.000 HD
BRANCH  15  17
ATOM     17  C   UNL     1      10.054  14.149  18.606  0.00  0.00    +0.000 C 
ATOM     18  C   UNL     1      10.707  13.857  19.963  0.00  0.00    +0.000 C 
ATOM     19  C   UNL     1      10.655  12.378  20.341  0.00  0.00    +0.000 C 
ATOM     20  C   UNL     1      11.297  11.511  19.266  0.00  0.00    +0.000 C 
ATOM     21  C   UNL     1      10.678  11.749  17.892  0.00  0.00    +0.000 C 
ATOM     22  C   UNL     1      10.607  13.229  17.507  0.00  0.00    +0.000 C 
ENDBRANCH  15  17
ENDBRANCH  12  13
BRANCH   9  23
ATOM     23  C   UNL     1       0.315  10.851  21.459  0.00  0.00    +0.000 C 
ATOM     24  O   UNL     1       0.101   9.769  20.937  0.00  0.00    +0.000 OA
BRANCH  23  25
ATOM     25  O   UNL     1      -0.075  11.152  22.716  0.00  0.00    +0.000 OA
ATOM     26  H   UNL     1       0.111  10.452  23.361  0.00  0.00    +0.000 HD
ENDBRANCH  23  25
ENDBRANCH   9  23
BRANCH   1  27
ATOM     27  S   UNL     1       6.559  15.251  21.776  0.00  0.00    +0.000 S 
BRANCH  27  28
ATOM     28  C   UNL     1       6.514  13.592  22.525  0.00  0.00    +0.000 C 
BRANCH  28  30
ATOM     29  C   UNL     1       8.087  11.683  22.977  0.00  0.00    +0.000 C 
ATOM     30  C   UNL     1       7.942  13.192  22.890  0.00  0.00    +0.000 C 
ENDBRANCH  28  30
ENDBRANCH  27  28
ENDBRANCH   1  27
TORSDOF 7
ENDMDL
MODEL 9
REMARK VINA RESULT:      -6.4      2.517      8.524
REMARK  Name = 
REMARK  8 active torsions:
REMARK  status: ('A' for Active; 'I' for Inactive)
REMARK    1  A    between atoms: C_1  and  C_2
REMARK    2  A    between atoms: C_2  and  C_3
REMARK    3  A    between atoms: C_3  and  S_4
REMARK    4  A    between atoms: S_4  and  C_5
REMARK    5  A    between atoms: C_13  and  C_14
REMARK    6  A    between atoms: C_14  and  O_16
REMARK    7  A    between atoms: C_19  and  C_20
REMARK    8  A    between atoms: N_22  and  C_23
REMARK                            x       y       z     vdW  Elec       q    Type
REMARK                         _______ _______ _______ _____ _____    ______ ____
ROOT
ATOM      1  C   UNL     1       1.518   8.715  19.894  0.00  0.00    +0.000 A 
ATOM      2  N   UNL     1       1.004   9.962  20.109  0.00  0.00    +0.000 NA
ATOM      3  C   UNL     1       1.020  10.892  19.132  0.00  0.00    +0.000 A 
ATOM      4  N   UNL     1       0.458  12.136  19.374  0.00  0.00    +0.000 N 
ATOM      5  C   UNL     1      -0.073  12.421  20.714  0.00  0.00    +0.000 C 
ATOM      6  C   UNL     1      -1.306  13.236  20.459  0.00  0.00    +0.000 C 
ATOM      7  C   UNL     1      -1.450  13.460  18.996  0.00  0.00    +0.000 C 
ATOM      8  C   UNL     1      -0.287  12.808  18.305  0.00  0.00    +0.000 C 
ATOM      9  C   UNL     1      -2.474  12.610  19.726  0.00  0.00    +0.000 C 
ATOM     10  C   UNL     1       1.615  10.595  17.913  0.00  0.00    +0.000 A 
ATOM     11  C   UNL     1       2.142   9.321  17.683  0.00  0.00    +0.000 A 
ATOM     12  C   UNL     1       2.100   8.340  18.682  0.00  0.00    +0.000 A 
ENDROOT
BRANCH  12  13
ATOM     13  C   UNL     1       2.697   7.009  18.335  0.00  0.00    +0.000 C 
ATOM     14  O   UNL     1       3.788   6.972  17.769  0.00  0.00    +0.000 OA
ATOM     15  N   UNL     1       2.024   5.869  18.713  0.00  0.00    +0.000 N 
ATOM     16  H   UNL     1       1.088   5.966  19.094  0.00  0.00    +0.000 HD
BRANCH  15  17
ATOM     17  C   UNL     1       2.561   4.521  18.561  0.00  0.00    +0.000 C 
ATOM     18  C   UNL     1       3.338   4.119  19.820  0.00  0.00    +0.000 C 
ATOM     19  C   UNL     1       2.427   3.788  21.000  0.00  0.00    +0.000 C 
ATOM     20  C   UNL     1       1.433   2.692  20.639  0.00  0.00    +0.000 C 
ATOM     21  C   UNL     1       0.619   3.043  19.397  0.00  0.00    +0.000 C 
ATOM     22  C   UNL     1       1.480   3.487  18.213  0.00  0.00    +0.000 C 
ENDBRANCH  15  17
ENDBRANCH  12  13
BRANCH   9  23
ATOM     23  C   UNL     1      -3.856  13.014  20.078  0.00  0.00    +0.000 C 
ATOM     24  O   UNL     1      -4.130  13.392  21.204  0.00  0.00    +0.000 OA
BRANCH  23  25
ATOM     25  O   UNL     1      -4.764  12.953  19.081  0.00  0.00    +0.000 OA
ATOM     26  H   UNL     1      -5.163  12.076  18.968  0.00  0.00    +0.000 HD
ENDBRANCH  23  25
ENDBRANCH   9  23
BRANCH   1  27
ATOM     27  S   UNL     1       1.435   7.637  21.323  0.00  0.00    +0.000 S 
BRANCH  27  28
ATOM     28  C   UNL     1      -0.116   8.186  22.104  0.00  0.00    +0.000 C 
BRANCH  28  30
ATOM     29  C   UNL     1      -0.923  10.275  23.249  0.00  0.00    +0.000 C 
ATOM     30  C   UNL     1       0.217   9.281  23.116  0.00  0.00    +0.000 C 
ENDBRANCH  28  30
ENDBRANCH  27  28
ENDBRANCH   1  27
TORSDOF 7
ENDMDL
