MODEL 1
REMARK VINA RESULT:      -7.1      0.000      0.000
REMARK  Name = 
REMARK  8 active torsions:
REMARK  status: ('A' for Active; 'I' for Inactive)
REMARK    1  A    between atoms: C_1  and  C_2
REMARK    2  A    between atoms: C_8  and  C_9
REMARK    3  A    between atoms: C_9  and  N_10
REMARK    4  A    between atoms: C_12  and  C_13
REMARK    5  A    between atoms: N_15  and  C_16
REMARK    6  A    between atoms: C_23  and  N_24
REMARK    7  A    between atoms: N_24  and  C_25
REMARK    8  A    between atoms: N_24  and  C_26
REMARK                            x       y       z     vdW  Elec       q    Type
REMARK                         _______ _______ _______ _____ _____    ______ ____
ROOT
ATOM      1  N   UNL     1       2.245   5.650  19.886  0.00  0.00    +0.000 NA
ATOM      2  C   UNL     1       3.217   4.689  20.457  0.00  0.00    +0.000 C 
ATOM      3  C   UNL     1       3.808   3.883  19.289  0.00  0.00    +0.000 C 
ATOM      4  C   UNL     1       2.453   3.652  18.451  0.00  0.00    +0.000 C 
ATOM      5  C   UNL     1       1.529   4.822  18.912  0.00  0.00    +0.000 C 
ENDROOT
BRANCH   3   6
ATOM      6  C   UNL     1       5.019   4.653  18.616  0.00  0.00    +0.000 A 
ATOM      7  C   UNL     1       5.903   5.509  19.257  0.00  0.00    +0.000 A 
ATOM      8  N   UNL     1       6.901   5.892  18.398  0.00  0.00    +0.000 N 
ATOM      9  C   UNL     1       8.109   6.594  18.779  0.00  0.00    +0.000 C 
ATOM     10  C   UNL     1       6.637   5.443  17.122  0.00  0.00    +0.000 A 
ATOM     11  C   UNL     1       7.343   5.665  15.917  0.00  0.00    +0.000 A 
ATOM     12  C   UNL     1       6.908   5.022  14.756  0.00  0.00    +0.000 A 
ATOM     13  C   UNL     1       5.820   4.165  14.809  0.00  0.00    +0.000 A 
ATOM     14  C   UNL     1       5.118   3.976  16.010  0.00  0.00    +0.000 A 
ATOM     15  C   UNL     1       5.499   4.627  17.211  0.00  0.00    +0.000 A 
ENDBRANCH   3   6
BRANCH   4  16
ATOM     16  N   UNL     1       1.719   2.326  18.422  0.00  0.00    +0.000 NA
ATOM     17  C   UNL     1       2.370   1.128  18.944  0.00  0.00    +0.000 C 
ATOM     18  C   UNL     1       0.337   2.354  18.966  0.00  0.00    +0.000 C 
ENDBRANCH   4  16
BRANCH   1  19
ATOM     19  C   UNL     1       2.885   6.829  19.258  0.00  0.00    +0.000 C 
BRANCH  19  27
ATOM     20  C   UNL     1       1.516   8.188  21.667  0.00  0.00    +0.000 C 
ATOM     21  C   UNL     1       1.283   8.605  20.242  0.00  0.00    +0.000 A 
ATOM     22  C   UNL     1       0.406   9.684  20.009  0.00  0.00    +0.000 A 
ATOM     23  C   UNL     1       0.309  10.283  18.752  0.00  0.00    +0.000 A 
ATOM     24  C   UNL     1       1.113   9.829  17.715  0.00  0.00    +0.000 A 
ATOM     25  C   UNL     1       1.940   8.731  17.924  0.00  0.00    +0.000 A 
ATOM     26  F   UNL     1       2.701   8.323  16.895  0.00  0.00    +0.000 F 
ATOM     27  C   UNL     1       2.010   8.068  19.164  0.00  0.00    +0.000 A 
ENDBRANCH  19  27
ENDBRANCH   1  19
TORSDOF 4
ENDMDL
MODEL 2
REMARK VINA RESULT:      -6.7      6.487      9.383
REMARK  Name = 
REMARK  8 active torsions:
REMARK  status: ('A' for Active; 'I' for Inactive)
REMARK    1  A    between atoms: C_1  and  C_2
REMARK    2  A    between atoms: C_8  and  C_9
REMARK    3  A    between atoms: C_9  and  N_10
REMARK    4  A    between atoms: C_12  and  C_13
REMARK    5  A    between atoms: N_15  and  C_16
REMARK    6  A    between atoms: C_23  and  N_24
REMARK    7  A    between atoms: N_24  and  C_25
REMARK    8  A    between atoms: N_24  and  C_26
REMARK                            x       y       z     vdW  Elec       q    Type
REMARK                         _______ _______ _______ _____ _____    ______ ____
ROOT
ATOM      1  N   UNL     1       0.879  12.015  19.325  0.00  0.00    +0.000 NA
ATOM      2  C   UNL     1       0.800  10.639  18.783  0.00  0.00    +0.000 C 
ATOM      3  C   UNL     1      -0.556  10.054  19.209  0.00  0.00    +0.000 C 
ATOM      4  C   UNL     1      -0.586  10.603  20.721  0.00  0.00    +0.000 C 
ATOM      5  C   UNL     1       0.363  11.840  20.685  0.00  0.00    +0.000 C 
ENDROOT
BRANCH   3   6
ATOM      6  C   UNL     1      -1.706  10.479  18.203  0.00  0.00    +0.000 A 
ATOM      7  C   UNL     1      -1.752  10.194  16.845  0.00  0.00    +0.000 A 
ATOM      8  N   UNL     1      -2.950  10.600  16.316  0.00  0.00    +0.000 N 
ATOM      9  C   UNL     1      -3.436  10.266  14.992  0.00  0.00    +0.000 C 
ATOM     10  C   UNL     1      -3.675  11.308  17.249  0.00  0.00    +0.000 A 
ATOM     11  C   UNL     1      -4.917  11.973  17.122  0.00  0.00    +0.000 A 
ATOM     12  C   UNL     1      -5.485  12.556  18.257  0.00  0.00    +0.000 A 
ATOM     13  C   UNL     1      -4.844  12.452  19.480  0.00  0.00    +0.000 A 
ATOM     14  C   UNL     1      -3.600  11.807  19.582  0.00  0.00    +0.000 A 
ATOM     15  C   UNL     1      -2.964  11.224  18.457  0.00  0.00    +0.000 A 
ENDBRANCH   3   6
BRANCH   4  16
ATOM     16  N   UNL     1      -0.321   9.718  21.923  0.00  0.00    +0.000 NA
ATOM     17  C   UNL     1       1.025   9.206  22.161  0.00  0.00    +0.000 C 
ATOM     18  C   UNL     1      -0.835  10.236  23.217  0.00  0.00    +0.000 C 
ENDBRANCH   4  16
BRANCH   1  19
ATOM     19  C   UNL     1       0.092  12.999  18.547  0.00  0.00    +0.000 C 
BRANCH  19  27
ATOM     20  C   UNL     1      -1.696  14.785  20.320  0.00  0.00    +0.000 C 
ATOM     21  C   UNL     1      -0.504  15.302  19.565  0.00  0.00    +0.000 A 
ATOM     22  C   UNL     1      -0.186  16.669  19.695  0.00  0.00    +0.000 A 
ATOM     23  C   UNL     1       1.022  17.183  19.221  0.00  0.00    +0.000 A 
ATOM     24  C   UNL     1       1.946  16.327  18.637  0.00  0.00    +0.000 A 
ATOM     25  C   UNL     1       1.617  14.988  18.457  0.00  0.00    +0.000 A 
ATOM     26  F   UNL     1       2.538  14.194  17.887  0.00  0.00    +0.000 F 
ATOM     27  C   UNL     1       0.379  14.457  18.867  0.00  0.00    +0.000 A 
ENDBRANCH  19  27
ENDBRANCH   1  19
TORSDOF 4
ENDMDL
MODEL 3
REMARK VINA RESULT:      -6.7      6.233      9.089
REMARK  Name = 
REMARK  8 active torsions:
REMARK  status: ('A' for Active; 'I' for Inactive)
REMARK    1  A    between atoms: C_1  and  C_2
REMARK    2  A    between atoms: C_8  and  C_9
REMARK    3  A    between atoms: C_9  and  N_10
REMARK    4  A    between atoms: C_12  and  C_13
REMARK    5  A    between atoms: N_15  and  C_16
REMARK    6  A    between atoms: C_23  and  N_24
REMARK    7  A    between atoms: N_24  and  C_25
REMARK    8  A    between atoms: N_24  and  C_26
REMARK                            x       y       z     vdW  Elec       q    Type
REMARK                         _______ _______ _______ _____ _____    ______ ____
ROOT
ATOM      1  N   UNL     1       1.154  12.202  19.239  0.00  0.00    +0.000 NA
ATOM      2  C   UNL     1       0.806  10.827  18.813  0.00  0.00    +0.000 C 
ATOM      3  C   UNL     1      -0.365  10.356  19.690  0.00  0.00    +0.000 C 
ATOM      4  C   UNL     1       0.150  10.932  21.102  0.00  0.00    +0.000 C 
ATOM      5  C   UNL     1       1.112  12.091  20.700  0.00  0.00    +0.000 C 
ENDROOT
BRANCH   3   6
ATOM      6  C   UNL     1      -1.754  10.850  19.106  0.00  0.00    +0.000 A 
ATOM      7  C   UNL     1      -2.699  11.612  19.778  0.00  0.00    +0.000 A 
ATOM      8  N   UNL     1      -3.716  11.964  18.928  0.00  0.00    +0.000 N 
ATOM      9  C   UNL     1      -4.751  12.935  19.219  0.00  0.00    +0.000 C 
ATOM     10  C   UNL     1      -3.574  11.324  17.716  0.00  0.00    +0.000 A 
ATOM     11  C   UNL     1      -4.419  11.329  16.582  0.00  0.00    +0.000 A 
ATOM     12  C   UNL     1      -4.003  10.654  15.432  0.00  0.00    +0.000 A 
ATOM     13  C   UNL     1      -2.771  10.021  15.411  0.00  0.00    +0.000 A 
ATOM     14  C   UNL     1      -1.956  10.008  16.555  0.00  0.00    +0.000 A 
ATOM     15  C   UNL     1      -2.343  10.652  17.759  0.00  0.00    +0.000 A 
ENDBRANCH   3   6
BRANCH   4  16
ATOM     16  N   UNL     1       0.743  10.050  22.183  0.00  0.00    +0.000 NA
ATOM     17  C   UNL     1      -0.074   9.667  23.331  0.00  0.00    +0.000 C 
ATOM     18  C   UNL     1       1.430   8.826  21.698  0.00  0.00    +0.000 C 
ENDBRANCH   4  16
BRANCH   1  19
ATOM     19  C   UNL     1       0.219  13.230  18.726  0.00  0.00    +0.000 C 
BRANCH  19  27
ATOM     20  C   UNL     1      -1.390  14.943  20.727  0.00  0.00    +0.000 C 
ATOM     21  C   UNL     1      -0.248  15.481  19.912  0.00  0.00    +0.000 A 
ATOM     22  C   UNL     1       0.107  16.833  20.093  0.00  0.00    +0.000 A 
ATOM     23  C   UNL     1       1.287  17.352  19.556  0.00  0.00    +0.000 A 
ATOM     24  C   UNL     1       2.145  16.516  18.857  0.00  0.00    +0.000 A 
ATOM     25  C   UNL     1       1.775  15.194  18.629  0.00  0.00    +0.000 A 
ATOM     26  F   UNL     1       2.633  14.419  17.947  0.00  0.00    +0.000 F 
ATOM     27  C   UNL     1       0.561  14.662  19.103  0.00  0.00    +0.000 A 
ENDBRANCH  19  27
ENDBRANCH   1  19
TORSDOF 4
ENDMDL
MODEL 4
REMARK VINA RESULT:      -6.6      4.578      9.629
REMARK  Name = 
REMARK  8 active torsions:
REMARK  status: ('A' for Active; 'I' for Inactive)
REMARK    1  A    between atoms: C_1  and  C_2
REMARK    2  A    between atoms: C_8  and  C_9
REMARK    3  A    between atoms: C_9  and  N_10
REMARK    4  A    between atoms: C_12  and  C_13
REMARK    5  A    between atoms: N_15  and  C_16
REMARK    6  A    between atoms: C_23  and  N_24
REMARK    7  A    between atoms: N_24  and  C_25
REMARK    8  A    between atoms: N_24  and  C_26
REMARK                            x       y       z     vdW  Elec       q    Type
REMARK                         _______ _______ _______ _____ _____    ______ ____
ROOT
ATOM      1  N   UNL     1       1.214  11.877  20.194  0.00  0.00    +0.000 NA
ATOM      2  C   UNL     1       0.537  12.787  21.146  0.00  0.00    +0.000 C 
ATOM      3  C   UNL     1      -0.375  13.714  20.327  0.00  0.00    +0.000 C 
ATOM      4  C   UNL     1       0.627  14.012  19.104  0.00  0.00    +0.000 C 
ATOM      5  C   UNL     1       1.598  12.791  19.115  0.00  0.00    +0.000 C 
ENDROOT
BRANCH   3   6
ATOM      6  C   UNL     1      -1.777  13.031  20.037  0.00  0.00    +0.000 A 
ATOM      7  C   UNL     1      -2.878  13.033  20.881  0.00  0.00    +0.000 A 
ATOM      8  N   UNL     1      -3.957  12.462  20.255  0.00  0.00    +0.000 N 
ATOM      9  C   UNL     1      -5.321  12.495  20.742  0.00  0.00    +0.000 C 
ATOM     10  C   UNL     1      -3.580  11.917  19.047  0.00  0.00    +0.000 A 
ATOM     11  C   UNL     1      -4.335  11.172  18.112  0.00  0.00    +0.000 A 
ATOM     12  C   UNL     1      -3.733  10.798  16.908  0.00  0.00    +0.000 A 
ATOM     13  C   UNL     1      -2.429  11.183  16.641  0.00  0.00    +0.000 A 
ATOM     14  C   UNL     1      -1.688  11.903  17.592  0.00  0.00    +0.000 A 
ATOM     15  C   UNL     1      -2.241  12.283  18.842  0.00  0.00    +0.000 A 
ENDBRANCH   3   6
BRANCH   4  16
ATOM     16  N   UNL     1       1.368  15.326  18.949  0.00  0.00    +0.000 NA
ATOM     17  C   UNL     1       2.598  15.373  18.165  0.00  0.00    +0.000 C 
ATOM     18  C   UNL     1       0.531  16.480  18.533  0.00  0.00    +0.000 C 
ENDBRANCH   4  16
BRANCH   1  19
ATOM     19  C   UNL     1       0.347  10.775  19.715  0.00  0.00    +0.000 C 
BRANCH  19  27
ATOM     20  C   UNL     1      -0.010   8.709  21.981  0.00  0.00    +0.000 C 
ATOM     21  C   UNL     1       0.927   8.510  20.823  0.00  0.00    +0.000 A 
ATOM     22  C   UNL     1       1.661   7.308  20.771  0.00  0.00    +0.000 A 
ATOM     23  C   UNL     1       2.373   6.940  19.628  0.00  0.00    +0.000 A 
ATOM     24  C   UNL     1       2.335   7.757  18.507  0.00  0.00    +0.000 A 
ATOM     25  C   UNL     1       1.657   8.970  18.569  0.00  0.00    +0.000 A 
ATOM     26  F   UNL     1       1.646   9.731  17.463  0.00  0.00    +0.000 F 
ATOM     27  C   UNL     1       0.985   9.396  19.730  0.00  0.00    +0.000 A 
ENDBRANCH  19  27
ENDBRANCH   1  19
TORSDOF 4
ENDMDL
MODEL 5
REMARK VINA RESULT:      -6.6      5.938      9.832
REMARK  Name = 
REMARK  8 active torsions:
REMARK  status: ('A' for Active; 'I' for Inactive)
REMARK    1  A    between atoms: C_1  and  C_2
REMARK    2  A    between atoms: C_8  and  C_9
REMARK    3  A    between atoms: C_9  and  N_10
REMARK    4  A    between atoms: C_12  and  C_13
REMARK    5  A    between atoms: N_15  and  C_16
REMARK    6  A    between atoms: C_23  and  N_24
REMARK    7  A    between atoms: N_24  and  C_25
REMARK    8  A    between atoms: N_24  and  C_26
REMARK                            x       y       z     vdW  Elec       q    Type
REMARK                         _______ _______ _______ _____ _____    ______ ____
ROOT
ATOM      1  N   UNL     1      -0.373  14.932  20.839  0.00  0.00    +0.000 NA
ATOM      2  C   UNL     1       0.174  13.788  21.606  0.00  0.00    +0.000 C 
ATOM      3  C   UNL     1      -0.865  12.657  21.548  0.00  0.00    +0.000 C 
ATOM      4  C   UNL     1      -2.191  13.542  21.764  0.00  0.00    +0.000 C 
ATOM      5  C   UNL     1      -1.767  14.966  21.292  0.00  0.00    +0.000 C 
ENDROOT
BRANCH   3   6
ATOM      6  C   UNL     1      -0.707  11.799  20.224  0.00  0.00    +0.000 A 
ATOM      7  C   UNL     1       0.450  11.168  19.791  0.00  0.00    +0.000 A 
ATOM      8  N   UNL     1       0.190  10.410  18.678  0.00  0.00    +0.000 N 
ATOM      9  C   UNL     1       1.098   9.446  18.091  0.00  0.00    +0.000 C 
ATOM     10  C   UNL     1      -1.096  10.631  18.234  0.00  0.00    +0.000 A 
ATOM     11  C   UNL     1      -1.762  10.130  17.092  0.00  0.00    +0.000 A 
ATOM     12  C   UNL     1      -3.110  10.445  16.909  0.00  0.00    +0.000 A 
ATOM     13  C   UNL     1      -3.774  11.211  17.853  0.00  0.00    +0.000 A 
ATOM     14  C   UNL     1      -3.089  11.718  18.970  0.00  0.00    +0.000 A 
ATOM     15  C   UNL     1      -1.713  11.455  19.189  0.00  0.00    +0.000 A 
ENDBRANCH   3   6
BRANCH   4  16
ATOM     16  N   UNL     1      -2.950  13.580  23.076  0.00  0.00    +0.000 NA
ATOM     17  C   UNL     1      -3.361  12.332  23.710  0.00  0.00    +0.000 C 
ATOM     18  C   UNL     1      -2.352  14.439  24.130  0.00  0.00    +0.000 C 
ENDBRANCH   4  16
BRANCH   1  19
ATOM     19  C   UNL     1      -0.263  14.762  19.372  0.00  0.00    +0.000 C 
BRANCH  19  27
ATOM     20  C   UNL     1      -0.664  17.712  18.559  0.00  0.00    +0.000 C 
ATOM     21  C   UNL     1       0.566  16.920  18.212  0.00  0.00    +0.000 A 
ATOM     22  C   UNL     1       1.587  17.575  17.493  0.00  0.00    +0.000 A 
ATOM     23  C   UNL     1       2.846  16.995  17.330  0.00  0.00    +0.000 A 
ATOM     24  C   UNL     1       3.111  15.762  17.910  0.00  0.00    +0.000 A 
ATOM     25  C   UNL     1       2.092  15.087  18.574  0.00  0.00    +0.000 A 
ATOM     26  F   UNL     1       2.390  13.897  19.121  0.00  0.00    +0.000 F 
ATOM     27  C   UNL     1       0.795  15.620  18.698  0.00  0.00    +0.000 A 
ENDBRANCH  19  27
ENDBRANCH   1  19
TORSDOF 4
ENDMDL
MODEL 6
REMARK VINA RESULT:      -6.6      1.091      1.676
REMARK  Name = 
REMARK  8 active torsions:
REMARK  status: ('A' for Active; 'I' for Inactive)
REMARK    1  A    between atoms: C_1  and  C_2
REMARK    2  A    between atoms: C_8  and  C_9
REMARK    3  A    between atoms: C_9  and  N_10
REMARK    4  A    between atoms: C_12  and  C_13
REMARK    5  A    between atoms: N_15  and  C_16
REMARK    6  A    between atoms: C_23  and  N_24
REMARK    7  A    between atoms: N_24  and  C_25
REMARK    8  A    between atoms: N_24  and  C_26
REMARK                            x       y       z     vdW  Elec       q    Type
REMARK                         _______ _______ _______ _____ _____    ______ ____
ROOT
ATOM      1  N   UNL     1       2.421   5.445  20.401  0.00  0.00    +0.000 NA
ATOM      2  C   UNL     1       3.313   4.286  20.642  0.00  0.00    +0.000 C 
ATOM      3  C   UNL     1       3.709   3.718  19.269  0.00  0.00    +0.000 C 
ATOM      4  C   UNL     1       2.275   3.822  18.547  0.00  0.00    +0.000 C 
ATOM      5  C   UNL     1       1.537   4.939  19.348  0.00  0.00    +0.000 C 
ENDROOT
BRANCH   3   6
ATOM      6  C   UNL     1       4.947   4.500  18.660  0.00  0.00    +0.000 A 
ATOM      7  C   UNL     1       5.864   5.262  19.370  0.00  0.00    +0.000 A 
ATOM      8  N   UNL     1       6.874   5.683  18.544  0.00  0.00    +0.000 N 
ATOM      9  C   UNL     1       8.108   6.303  18.980  0.00  0.00    +0.000 C 
ATOM     10  C   UNL     1       6.590   5.360  17.234  0.00  0.00    +0.000 A 
ATOM     11  C   UNL     1       7.302   5.662  16.050  0.00  0.00    +0.000 A 
ATOM     12  C   UNL     1       6.840   5.142  14.839  0.00  0.00    +0.000 A 
ATOM     13  C   UNL     1       5.721   4.326  14.821  0.00  0.00    +0.000 A 
ATOM     14  C   UNL     1       5.015   4.056  16.004  0.00  0.00    +0.000 A 
ATOM     15  C   UNL     1       5.422   4.582  17.257  0.00  0.00    +0.000 A 
ENDBRANCH   3   6
BRANCH   4  16
ATOM     16  N   UNL     1       1.388   2.618  18.301  0.00  0.00    +0.000 NA
ATOM     17  C   UNL     1       1.983   1.288  18.213  0.00  0.00    +0.000 C 
ATOM     18  C   UNL     1       0.198   2.516  19.185  0.00  0.00    +0.000 C 
ENDBRANCH   4  16
BRANCH   1  19
ATOM     19  C   UNL     1       3.147   6.668  19.987  0.00  0.00    +0.000 C 
BRANCH  19  27
ATOM     20  C   UNL     1       2.995   7.559  17.036  0.00  0.00    +0.000 C 
ATOM     21  C   UNL     1       2.302   8.286  18.154  0.00  0.00    +0.000 A 
ATOM     22  C   UNL     1       1.534   9.421  17.823  0.00  0.00    +0.000 A 
ATOM     23  C   UNL     1       0.679  10.015  18.753  0.00  0.00    +0.000 A 
ATOM     24  C   UNL     1       0.557   9.463  20.020  0.00  0.00    +0.000 A 
ATOM     25  C   UNL     1       1.352   8.377  20.370  0.00  0.00    +0.000 A 
ATOM     26  F   UNL     1       1.205   7.874  21.607  0.00  0.00    +0.000 F 
ATOM     27  C   UNL     1       2.270   7.798  19.474  0.00  0.00    +0.000 A 
ENDBRANCH  19  27
ENDBRANCH   1  19
TORSDOF 4
ENDMDL
MODEL 7
REMARK VINA RESULT:      -6.6      4.399      9.824
REMARK  Name = 
REMARK  8 active torsions:
REMARK  status: ('A' for Active; 'I' for Inactive)
REMARK    1  A    between atoms: C_1  and  C_2
REMARK    2  A    between atoms: C_8  and  C_9
REMARK    3  A    between atoms: C_9  and  N_10
REMARK    4  A    between atoms: C_12  and  C_13
REMARK    5  A    between atoms: N_15  and  C_16
REMARK    6  A    between atoms: C_23  and  N_24
REMARK    7  A    between atoms: N_24  and  C_25
REMARK    8  A    between atoms: N_24  and  C_26
REMARK                            x       y       z     vdW  Elec       q    Type
REMARK                         _______ _______ _______ _____ _____    ______ ____
ROOT
ATOM      1  N   UNL     1       0.858  11.440  20.439  0.00  0.00    +0.000 NA
ATOM      2  C   UNL     1      -0.236  12.183  21.107  0.00  0.00    +0.000 C 
ATOM      3  C   UNL     1      -0.775  13.212  20.100  0.00  0.00    +0.000 C 
ATOM      4  C   UNL     1       0.631  13.709  19.494  0.00  0.00    +0.000 C 
ATOM      5  C   UNL     1       1.595  12.515  19.770  0.00  0.00    +0.000 C 
ENDROOT
BRANCH   3   6
ATOM      6  C   UNL     1      -1.853  12.562  19.136  0.00  0.00    +0.000 A 
ATOM      7  C   UNL     1      -1.617  12.060  17.865  0.00  0.00    +0.000 A 
ATOM      8  N   UNL     1      -2.747  11.457  17.375  0.00  0.00    +0.000 N 
ATOM      9  C   UNL     1      -2.807  10.635  16.183  0.00  0.00    +0.000 C 
ATOM     10  C   UNL     1      -3.814  11.673  18.220  0.00  0.00    +0.000 A 
ATOM     11  C   UNL     1      -5.172  11.308  18.079  0.00  0.00    +0.000 A 
ATOM     12  C   UNL     1      -6.052  11.577  19.131  0.00  0.00    +0.000 A 
ATOM     13  C   UNL     1      -5.578  12.165  20.292  0.00  0.00    +0.000 A 
ATOM     14  C   UNL     1      -4.230  12.541  20.404  0.00  0.00    +0.000 A 
ATOM     15  C   UNL     1      -3.301  12.319  19.355  0.00  0.00    +0.000 A 
ENDBRANCH   3   6
BRANCH   4  16
ATOM     16  N   UNL     1       1.258  15.041  19.855  0.00  0.00    +0.000 NA
ATOM     17  C   UNL     1       2.020  15.777  18.851  0.00  0.00    +0.000 C 
ATOM     18  C   UNL     1       0.350  16.010  20.522  0.00  0.00    +0.000 C 
ENDBRANCH   4  16
BRANCH   1  19
ATOM     19  C   UNL     1       0.374  10.413  19.488  0.00  0.00    +0.000 C 
BRANCH  19  27
ATOM     20  C   UNL     1      -0.062   8.371  21.760  0.00  0.00    +0.000 C 
ATOM     21  C   UNL     1       0.970   8.197  20.682  0.00  0.00    +0.000 A 
ATOM     22  C   UNL     1       1.760   7.030  20.711  0.00  0.00    +0.000 A 
ATOM     23  C   UNL     1       2.575   6.677  19.634  0.00  0.00    +0.000 A 
ATOM     24  C   UNL     1       2.587   7.473  18.497  0.00  0.00    +0.000 A 
ATOM     25  C   UNL     1       1.851   8.653  18.482  0.00  0.00    +0.000 A 
ATOM     26  F   UNL     1       1.890   9.395  17.363  0.00  0.00    +0.000 F 
ATOM     27  C   UNL     1       1.072   9.066  19.579  0.00  0.00    +0.000 A 
ENDBRANCH  19  27
ENDBRANCH   1  19
TORSDOF 4
ENDMDL
MODEL 8
REMARK VINA RESULT:      -6.6      4.519      9.859
REMARK  Name = 
REMARK  8 active torsions:
REMARK  status: ('A' for Active; 'I' for Inactive)
REMARK    1  A    between atoms: C_1  and  C_2
REMARK    2  A    between atoms: C_8  and  C_9
REMARK    3  A    between atoms: C_9  and  N_10
REMARK    4  A    between atoms: C_12  and  C_13
REMARK    5  A    between atoms: N_15  and  C_16
REMARK    6  A    between atoms: C_23  and  N_24
REMARK    7  A    between atoms: N_24  and  C_25
REMARK    8  A    between atoms: N_24  and  C_26
REMARK                            x       y       z     vdW  Elec       q    Type
REMARK                         _______ _______ _______ _____ _____    ______ ____
ROOT
ATOM      1  N   UNL     1       0.530  11.176  20.981  0.00  0.00    +0.000 NA
ATOM      2  C   UNL     1      -0.540  12.077  21.469  0.00  0.00    +0.000 C 
ATOM      3  C   UNL     1      -0.841  13.083  20.346  0.00  0.00    +0.000 C 
ATOM      4  C   UNL     1       0.671  13.383  19.885  0.00  0.00    +0.000 C 
ATOM      5  C   UNL     1       1.456  12.115  20.343  0.00  0.00    +0.000 C 
ENDROOT
BRANCH   3   6
ATOM      6  C   UNL     1      -1.871  12.485  19.300  0.00  0.00    +0.000 A 
ATOM      7  C   UNL     1      -1.566  12.003  18.035  0.00  0.00    +0.000 A 
ATOM      8  N   UNL     1      -2.678  11.443  17.459  0.00  0.00    +0.000 N 
ATOM      9  C   UNL     1      -2.682  10.649  16.248  0.00  0.00    +0.000 C 
ATOM     10  C   UNL     1      -3.791  11.672  18.239  0.00  0.00    +0.000 A 
ATOM     11  C   UNL     1      -5.147  11.348  18.002  0.00  0.00    +0.000 A 
ATOM     12  C   UNL     1      -6.086  11.619  19.001  0.00  0.00    +0.000 A 
ATOM     13  C   UNL     1      -5.673  12.168  20.204  0.00  0.00    +0.000 A 
ATOM     14  C   UNL     1      -4.325  12.504  20.411  0.00  0.00    +0.000 A 
ATOM     15  C   UNL     1      -3.336  12.278  19.420  0.00  0.00    +0.000 A 
ENDBRANCH   3   6
BRANCH   4  16
ATOM     16  N   UNL     1       1.402  14.663  20.240  0.00  0.00    +0.000 NA
ATOM     17  C   UNL     1       0.698  15.722  20.955  0.00  0.00    +0.000 C 
ATOM     18  C   UNL     1       2.719  14.478  20.902  0.00  0.00    +0.000 C 
ENDBRANCH   4  16
BRANCH   1  19
ATOM     19  C   UNL     1       0.042  10.141  20.041  0.00  0.00    +0.000 C 
BRANCH  19  27
ATOM     20  C   UNL     1       1.981   9.823  17.660  0.00  0.00    +0.000 C 
ATOM     21  C   UNL     1       1.757   8.752  18.691  0.00  0.00    +0.000 A 
ATOM     22  C   UNL     1       2.489   7.554  18.563  0.00  0.00    +0.000 A 
ATOM     23  C   UNL     1       2.518   6.607  19.588  0.00  0.00    +0.000 A 
ATOM     24  C   UNL     1       1.839   6.861  20.772  0.00  0.00    +0.000 A 
ATOM     25  C   UNL     1       1.072   8.016  20.885  0.00  0.00    +0.000 A 
ATOM     26  F   UNL     1       0.430   8.223  22.046  0.00  0.00    +0.000 F 
ATOM     27  C   UNL     1       0.973   8.956  19.842  0.00  0.00    +0.000 A 
ENDBRANCH  19  27
ENDBRANCH   1  19
TORSDOF 4
ENDMDL
MODEL 9
REMARK VINA RESULT:      -6.6      6.322      9.140
REMARK  Name = 
REMARK  8 active torsions:
REMARK  status: ('A' for Active; 'I' for Inactive)
REMARK    1  A    between atoms: C_1  and  C_2
REMARK    2  A    between atoms: C_8  and  C_9
REMARK    3  A    between atoms: C_9  and  N_10
REMARK    4  A    between atoms: C_12  and  C_13
REMARK    5  A    between atoms: N_15  and  C_16
REMARK    6  A    between atoms: C_23  and  N_24
REMARK    7  A    between atoms: N_24  and  C_25
REMARK    8  A    between atoms: N_24  and  C_26
REMARK                            x       y       z     vdW  Elec       q    Type
REMARK                         _______ _______ _______ _____ _____    ______ ____
ROOT
ATOM      1  N   UNL     1       1.226  12.035  19.218  0.00  0.00    +0.000 NA
ATOM      2  C   UNL     1       0.803  10.662  18.854  0.00  0.00    +0.000 C 
ATOM      3  C   UNL     1      -0.378  10.289  19.764  0.00  0.00    +0.000 C 
ATOM      4  C   UNL     1       0.185  10.895  21.144  0.00  0.00    +0.000 C 
ATOM      5  C   UNL     1       1.199  11.987  20.682  0.00  0.00    +0.000 C 
ENDROOT
BRANCH   3   6
ATOM      6  C   UNL     1      -1.749  10.829  19.178  0.00  0.00    +0.000 A 
ATOM      7  C   UNL     1      -2.672  11.619  19.848  0.00  0.00    +0.000 A 
ATOM      8  N   UNL     1      -3.674  12.006  18.996  0.00  0.00    +0.000 N 
ATOM      9  C   UNL     1      -4.678  13.009  19.286  0.00  0.00    +0.000 C 
ATOM     10  C   UNL     1      -3.548  11.366  17.782  0.00  0.00    +0.000 A 
ATOM     11  C   UNL     1      -4.389  11.401  16.645  0.00  0.00    +0.000 A 
ATOM     12  C   UNL     1      -3.990  10.717  15.495  0.00  0.00    +0.000 A 
ATOM     13  C   UNL     1      -2.779  10.045  15.477  0.00  0.00    +0.000 A 
ATOM     14  C   UNL     1      -1.969  10.002  16.623  0.00  0.00    +0.000 A 
ATOM     15  C   UNL     1      -2.339  10.654  17.827  0.00  0.00    +0.000 A 
ENDBRANCH   3   6
BRANCH   4  16
ATOM     16  N   UNL     1       0.748  10.030  22.255  0.00  0.00    +0.000 NA
ATOM     17  C   UNL     1      -0.106   9.646  23.374  0.00  0.00    +0.000 C 
ATOM     18  C   UNL     1       1.468   8.811  21.806  0.00  0.00    +0.000 C 
ENDBRANCH   4  16
BRANCH   1  19
ATOM     19  C   UNL     1       0.337  13.087  18.674  0.00  0.00    +0.000 C 
BRANCH  19  27
ATOM     20  C   UNL     1       2.877  14.680  17.940  0.00  0.00    +0.000 C 
ATOM     21  C   UNL     1       1.852  15.169  18.924  0.00  0.00    +0.000 A 
ATOM     22  C   UNL     1       2.064  16.428  19.522  0.00  0.00    +0.000 A 
ATOM     23  C   UNL     1       1.062  17.058  20.263  0.00  0.00    +0.000 A 
ATOM     24  C   UNL     1      -0.179  16.450  20.390  0.00  0.00    +0.000 A 
ATOM     25  C   UNL     1      -0.377  15.184  19.849  0.00  0.00    +0.000 A 
ATOM     26  F   UNL     1      -1.592  14.630  19.995  0.00  0.00    +0.000 F 
ATOM     27  C   UNL     1       0.636  14.499  19.152  0.00  0.00    +0.000 A 
ENDBRANCH  19  27
ENDBRANCH   1  19
TORSDOF 4
ENDMDL
