MODEL 1
REMARK VINA RESULT:      -7.6      0.000      0.000
REMARK  Name = 
REMARK  7 active torsions:
REMARK  status: ('A' for Active; 'I' for Inactive)
REMARK    1  A    between atoms: C_2  and  C_3
REMARK    2  A    between atoms: C_7  and  O_8
REMARK    3  A    between atoms: O_8  and  C_9
REMARK    4  A    between atoms: C_9  and  C_10
REMARK    5  A    between atoms: C_16  and  O_17
REMARK    6  A    between atoms: O_17  and  C_18
REMARK    7  A    between atoms: C_18  and  C_19
REMARK                            x       y       z     vdW  Elec       q    Type
REMARK                         _______ _______ _______ _____ _____    ______ ____
ROOT
ATOM      1  C   UNL     1       4.645   4.494  16.896  0.00  0.00    +0.000 A 
ATOM      2  C   UNL     1       5.458   3.674  16.099  0.00  0.00    +0.000 A 
ATOM      3  C   UNL     1       6.573   4.182  15.451  0.00  0.00    +0.000 A 
ATOM      4  C   UNL     1       6.975   5.483  15.710  0.00  0.00    +0.000 A 
ATOM      5  C   UNL     1       6.260   6.299  16.600  0.00  0.00    +0.000 A 
ATOM      6  C   UNL     1       5.076   5.811  17.212  0.00  0.00    +0.000 A 
ENDROOT
BRANCH   1   8
ATOM      7  O   UNL     1       2.381   3.975  16.691  0.00  0.00    +0.000 OA
ATOM      8  C   UNL     1       3.357   3.916  17.430  0.00  0.00    +0.000 C 
ATOM      9  N   UNL     1       3.326   3.349  18.744  0.00  0.00    +0.000 N 
ATOM     10  C   UNL     1       4.508   3.271  19.600  0.00  0.00    +0.000 C 
ATOM     11  C   UNL     1       4.311   2.346  20.779  0.00  0.00    +0.000 C 
ATOM     12  S   UNL     1       2.547   2.374  21.053  0.00  0.00    +0.000 S 
ATOM     13  C   UNL     1       2.158   2.932  19.413  0.00  0.00    +0.000 C 
ATOM     14  S   UNL     1       0.567   2.917  18.914  0.00  0.00    +0.000 S 
ENDBRANCH   1   8
BRANCH   5  15
ATOM     15  O   UNL     1       6.741   7.539  16.933  0.00  0.00    +0.000 OA
BRANCH  15  16
ATOM     16  C   UNL     1       7.774   7.616  17.926  0.00  0.00    +0.000 C 
BRANCH  16  17
ATOM     17  C   UNL     1       8.272   9.029  18.135  0.00  0.00    +0.000 A 
ATOM     18  C   UNL     1       7.788  10.077  17.334  0.00  0.00    +0.000 A 
ATOM     19  C   UNL     1       8.195  11.393  17.558  0.00  0.00    +0.000 A 
ATOM     20  C   UNL     1       9.083  11.684  18.592  0.00  0.00    +0.000 A 
ATOM     21  C   UNL     1       9.566  10.656  19.399  0.00  0.00    +0.000 A 
ATOM     22  C   UNL     1       9.161   9.336  19.174  0.00  0.00    +0.000 A 
ENDBRANCH  16  17
ENDBRANCH  15  16
ENDBRANCH   5  15
BRANCH   6  23
ATOM     23  O   UNL     1       4.280   6.502  18.096  0.00  0.00    +0.000 OA
BRANCH  23  24
ATOM     24  C   UNL     1       3.292   7.409  17.608  0.00  0.00    +0.000 C 
BRANCH  24  25
ATOM     25  C   UNL     1       2.374   7.932  18.700  0.00  0.00    +0.000 A 
ATOM     26  C   UNL     1       2.200   7.273  19.925  0.00  0.00    +0.000 A 
ATOM     27  C   UNL     1       1.330   7.792  20.889  0.00  0.00    +0.000 A 
ATOM     28  C   UNL     1       0.637   8.979  20.645  0.00  0.00    +0.000 A 
ATOM     29  C   UNL     1       0.816   9.654  19.446  0.00  0.00    +0.000 A 
ATOM     30  C   UNL     1       1.686   9.136  18.480  0.00  0.00    +0.000 A 
ENDBRANCH  24  25
ENDBRANCH  23  24
ENDBRANCH   6  23
TORSDOF 7
ENDMDL
MODEL 2
REMARK VINA RESULT:      -7.6      0.112      1.250
REMARK  Name = 
REMARK  7 active torsions:
REMARK  status: ('A' for Active; 'I' for Inactive)
REMARK    1  A    between atoms: C_2  and  C_3
REMARK    2  A    between atoms: C_7  and  O_8
REMARK    3  A    between atoms: O_8  and  C_9
REMARK    4  A    between atoms: C_9  and  C_10
REMARK    5  A    between atoms: C_16  and  O_17
REMARK    6  A    between atoms: O_17  and  C_18
REMARK    7  A    between atoms: C_18  and  C_19
REMARK                            x       y       z     vdW  Elec       q    Type
REMARK                         _______ _______ _______ _____ _____    ______ ____
ROOT
ATOM      1  C   UNL     1       4.616   4.543  16.956  0.00  0.00    +0.000 A 
ATOM      2  C   UNL     1       5.465   3.736  16.184  0.00  0.00    +0.000 A 
ATOM      3  C   UNL     1       6.593   4.260  15.572  0.00  0.00    +0.000 A 
ATOM      4  C   UNL     1       6.969   5.566  15.847  0.00  0.00    +0.000 A 
ATOM      5  C   UNL     1       6.215   6.370  16.715  0.00  0.00    +0.000 A 
ATOM      6  C   UNL     1       5.019   5.866  17.288  0.00  0.00    +0.000 A 
ENDROOT
BRANCH   1   8
ATOM      7  O   UNL     1       2.365   4.001  16.679  0.00  0.00    +0.000 OA
ATOM      8  C   UNL     1       3.319   3.947  17.446  0.00  0.00    +0.000 C 
ATOM      9  N   UNL     1       3.255   3.371  18.754  0.00  0.00    +0.000 N 
ATOM     10  C   UNL     1       4.412   3.298  19.645  0.00  0.00    +0.000 C 
ATOM     11  C   UNL     1       4.190   2.362  20.811  0.00  0.00    +0.000 C 
ATOM     12  S   UNL     1       2.418   2.369  21.032  0.00  0.00    +0.000 S 
ATOM     13  C   UNL     1       2.072   2.936  19.385  0.00  0.00    +0.000 C 
ATOM     14  S   UNL     1       0.497   2.907  18.839  0.00  0.00    +0.000 S 
ENDBRANCH   1   8
BRANCH   5  15
ATOM     15  O   UNL     1       6.669   7.616  17.066  0.00  0.00    +0.000 OA
BRANCH  15  16
ATOM     16  C   UNL     1       7.877   7.701  17.836  0.00  0.00    +0.000 C 
BRANCH  16  17
ATOM     17  C   UNL     1       8.275   9.129  18.134  0.00  0.00    +0.000 A 
ATOM     18  C   UNL     1       9.174   9.412  19.176  0.00  0.00    +0.000 A 
ATOM     19  C   UNL     1       9.595  10.720  19.420  0.00  0.00    +0.000 A 
ATOM     20  C   UNL     1       9.132  11.763  18.622  0.00  0.00    +0.000 A 
ATOM     21  C   UNL     1       8.245  11.498  17.580  0.00  0.00    +0.000 A 
ATOM     22  C   UNL     1       7.821  10.187  17.336  0.00  0.00    +0.000 A 
ENDBRANCH  16  17
ENDBRANCH  15  16
ENDBRANCH   5  15
BRANCH   6  23
ATOM     23  O   UNL     1       4.186   6.544  18.147  0.00  0.00    +0.000 OA
BRANCH  23  24
ATOM     24  C   UNL     1       3.242   7.483  17.633  0.00  0.00    +0.000 C 
BRANCH  24  25
ATOM     25  C   UNL     1       2.310   8.033  18.699  0.00  0.00    +0.000 A 
ATOM     26  C   UNL     1       1.546   9.194  18.514  0.00  0.00    +0.000 A 
ATOM     27  C   UNL     1       0.714   9.662  19.537  0.00  0.00    +0.000 A 
ATOM     28  C   UNL     1       0.627   8.969  20.745  0.00  0.00    +0.000 A 
ATOM     29  C   UNL     1       1.359   7.806  20.934  0.00  0.00    +0.000 A 
ATOM     30  C   UNL     1       2.192   7.336  19.913  0.00  0.00    +0.000 A 
ENDBRANCH  24  25
ENDBRANCH  23  24
ENDBRANCH   6  23
TORSDOF 7
ENDMDL
MODEL 3
REMARK VINA RESULT:      -7.3      4.874      7.653
REMARK  Name = 
REMARK  7 active torsions:
REMARK  status: ('A' for Active; 'I' for Inactive)
REMARK    1  A    between atoms: C_2  and  C_3
REMARK    2  A    between atoms: C_7  and  O_8
REMARK    3  A    between atoms: O_8  and  C_9
REMARK    4  A    between atoms: C_9  and  C_10
REMARK    5  A    between atoms: C_16  and  O_17
REMARK    6  A    between atoms: O_17  and  C_18
REMARK    7  A    between atoms: C_18  and  C_19
REMARK                            x       y       z     vdW  Elec       q    Type
REMARK                         _______ _______ _______ _____ _____    ______ ____
ROOT
ATOM      1  C   UNL     1       1.734   9.134  18.608  0.00  0.00    +0.000 A 
ATOM      2  C   UNL     1       2.533   8.705  17.538  0.00  0.00    +0.000 A 
ATOM      3  C   UNL     1       3.267   7.531  17.615  0.00  0.00    +0.000 A 
ATOM      4  C   UNL     1       3.094   6.694  18.707  0.00  0.00    +0.000 A 
ATOM      5  C   UNL     1       2.207   7.026  19.742  0.00  0.00    +0.000 A 
ATOM      6  C   UNL     1       1.507   8.260  19.706  0.00  0.00    +0.000 A 
ENDROOT
BRANCH   1   8
ATOM      7  O   UNL     1       1.809  11.454  18.829  0.00  0.00    +0.000 OA
ATOM      8  C   UNL     1       1.102  10.502  18.520  0.00  0.00    +0.000 C 
ATOM      9  N   UNL     1      -0.261  10.627  18.104  0.00  0.00    +0.000 N 
ATOM     10  C   UNL     1      -1.081   9.479  17.720  0.00  0.00    +0.000 C 
ATOM     11  C   UNL     1      -2.350   9.883  17.007  0.00  0.00    +0.000 C 
ATOM     12  S   UNL     1      -2.681  11.526  17.624  0.00  0.00    +0.000 S 
ATOM     13  C   UNL     1      -1.008  11.822  18.141  0.00  0.00    +0.000 C 
ATOM     14  S   UNL     1      -0.568  13.364  18.597  0.00  0.00    +0.000 S 
ENDBRANCH   1   8
BRANCH   5  15
ATOM     15  O   UNL     1       1.962   6.131  20.751  0.00  0.00    +0.000 OA
BRANCH  15  16
ATOM     16  C   UNL     1       1.114   5.009  20.465  0.00  0.00    +0.000 C 
BRANCH  16  17
ATOM     17  C   UNL     1       1.865   3.865  19.820  0.00  0.00    +0.000 A 
ATOM     18  C   UNL     1       1.430   3.334  18.594  0.00  0.00    +0.000 A 
ATOM     19  C   UNL     1       2.150   2.320  17.960  0.00  0.00    +0.000 A 
ATOM     20  C   UNL     1       3.318   1.828  18.537  0.00  0.00    +0.000 A 
ATOM     21  C   UNL     1       3.766   2.348  19.750  0.00  0.00    +0.000 A 
ATOM     22  C   UNL     1       3.044   3.364  20.387  0.00  0.00    +0.000 A 
ENDBRANCH  16  17
ENDBRANCH  15  16
ENDBRANCH   5  15
BRANCH   6  23
ATOM     23  O   UNL     1       0.615   8.712  20.651  0.00  0.00    +0.000 OA
BRANCH  23  24
ATOM     24  C   UNL     1       1.084   9.449  21.780  0.00  0.00    +0.000 C 
BRANCH  24  25
ATOM     25  C   UNL     1       0.147  10.575  22.185  0.00  0.00    +0.000 A 
ATOM     26  C   UNL     1       0.333  11.902  21.774  0.00  0.00    +0.000 A 
ATOM     27  C   UNL     1      -0.554  12.901  22.190  0.00  0.00    +0.000 A 
ATOM     28  C   UNL     1      -1.639  12.582  23.006  0.00  0.00    +0.000 A 
ATOM     29  C   UNL     1      -1.849  11.269  23.402  0.00  0.00    +0.000 A 
ATOM     30  C   UNL     1      -0.963  10.269  22.989  0.00  0.00    +0.000 A 
ENDBRANCH  24  25
ENDBRANCH  23  24
ENDBRANCH   6  23
TORSDOF 7
ENDMDL
MODEL 4
REMARK VINA RESULT:      -7.3      2.502      7.005
REMARK  Name = 
REMARK  7 active torsions:
REMARK  status: ('A' for Active; 'I' for Inactive)
REMARK    1  A    between atoms: C_2  and  C_3
REMARK    2  A    between atoms: C_7  and  O_8
REMARK    3  A    between atoms: O_8  and  C_9
REMARK    4  A    between atoms: C_9  and  C_10
REMARK    5  A    between atoms: C_16  and  O_17
REMARK    6  A    between atoms: O_17  and  C_18
REMARK    7  A    between atoms: C_18  and  C_19
REMARK                            x       y       z     vdW  Elec       q    Type
REMARK                         _______ _______ _______ _____ _____    ______ ____
ROOT
ATOM      1  C   UNL     1       2.344   6.720  19.932  0.00  0.00    +0.000 A 
ATOM      2  C   UNL     1       1.723   6.996  21.159  0.00  0.00    +0.000 A 
ATOM      3  C   UNL     1       1.100   8.213  21.392  0.00  0.00    +0.000 A 
ATOM      4  C   UNL     1       0.960   9.114  20.347  0.00  0.00    +0.000 A 
ATOM      5  C   UNL     1       1.457   8.822  19.067  0.00  0.00    +0.000 A 
ATOM      6  C   UNL     1       2.160   7.611  18.839  0.00  0.00    +0.000 A 
ENDROOT
BRANCH   1   8
ATOM      7  O   UNL     1       4.353   5.541  20.009  0.00  0.00    +0.000 OA
ATOM      8  C   UNL     1       3.148   5.449  19.811  0.00  0.00    +0.000 C 
ATOM      9  N   UNL     1       2.490   4.225  19.468  0.00  0.00    +0.000 N 
ATOM     10  C   UNL     1       1.046   4.134  19.257  0.00  0.00    +0.000 C 
ATOM     11  C   UNL     1       0.550   2.707  19.241  0.00  0.00    +0.000 C 
ATOM     12  S   UNL     1       1.971   1.767  18.706  0.00  0.00    +0.000 S 
ATOM     13  C   UNL     1       3.147   3.016  19.165  0.00  0.00    +0.000 C 
ATOM     14  S   UNL     1       4.770   2.634  19.156  0.00  0.00    +0.000 S 
ENDBRANCH   1   8
BRANCH   5  15
ATOM     15  O   UNL     1       1.203   9.673  18.021  0.00  0.00    +0.000 OA
BRANCH  15  16
ATOM     16  C   UNL     1       0.527  10.906  18.305  0.00  0.00    +0.000 C 
BRANCH  16  17
ATOM     17  C   UNL     1      -0.972  10.798  18.134  0.00  0.00    +0.000 A 
ATOM     18  C   UNL     1      -1.828  11.693  18.798  0.00  0.00    +0.000 A 
ATOM     19  C   UNL     1      -3.209  11.641  18.599  0.00  0.00    +0.000 A 
ATOM     20  C   UNL     1      -3.754  10.700  17.728  0.00  0.00    +0.000 A 
ATOM     21  C   UNL     1      -2.918   9.809  17.058  0.00  0.00    +0.000 A 
ATOM     22  C   UNL     1      -1.533   9.860  17.258  0.00  0.00    +0.000 A 
ENDBRANCH  16  17
ENDBRANCH  15  16
ENDBRANCH   5  15
BRANCH   6  23
ATOM     23  O   UNL     1       2.701   7.204  17.642  0.00  0.00    +0.000 OA
BRANCH  23  24
ATOM     24  C   UNL     1       3.943   7.749  17.197  0.00  0.00    +0.000 C 
BRANCH  24  25
ATOM     25  C   UNL     1       5.005   6.690  16.959  0.00  0.00    +0.000 A 
ATOM     26  C   UNL     1       4.728   5.463  16.339  0.00  0.00    +0.000 A 
ATOM     27  C   UNL     1       5.744   4.518  16.158  0.00  0.00    +0.000 A 
ATOM     28  C   UNL     1       7.045   4.795  16.581  0.00  0.00    +0.000 A 
ATOM     29  C   UNL     1       7.339   6.013  17.175  0.00  0.00    +0.000 A 
ATOM     30  C   UNL     1       6.325   6.959  17.358  0.00  0.00    +0.000 A 
ENDBRANCH  24  25
ENDBRANCH  23  24
ENDBRANCH   6  23
TORSDOF 7
ENDMDL
MODEL 5
REMARK VINA RESULT:      -7.2      2.495      6.987
REMARK  Name = 
REMARK  7 active torsions:
REMARK  status: ('A' for Active; 'I' for Inactive)
REMARK    1  A    between atoms: C_2  and  C_3
REMARK    2  A    between atoms: C_7  and  O_8
REMARK    3  A    between atoms: O_8  and  C_9
REMARK    4  A    between atoms: C_9  and  C_10
REMARK    5  A    between atoms: C_16  and  O_17
REMARK    6  A    between atoms: O_17  and  C_18
REMARK    7  A    between atoms: C_18  and  C_19
REMARK                            x       y       z     vdW  Elec       q    Type
REMARK                         _______ _______ _______ _____ _____    ______ ____
ROOT
ATOM      1  C   UNL     1       2.340   6.710  19.941  0.00  0.00    +0.000 A 
ATOM      2  C   UNL     1       1.713   6.976  21.167  0.00  0.00    +0.000 A 
ATOM      3  C   UNL     1       1.087   8.190  21.405  0.00  0.00    +0.000 A 
ATOM      4  C   UNL     1       0.950   9.098  20.365  0.00  0.00    +0.000 A 
ATOM      5  C   UNL     1       1.452   8.816  19.086  0.00  0.00    +0.000 A 
ATOM      6  C   UNL     1       2.159   7.608  18.853  0.00  0.00    +0.000 A 
ENDROOT
BRANCH   1   8
ATOM      7  O   UNL     1       4.352   5.535  20.012  0.00  0.00    +0.000 OA
ATOM      8  C   UNL     1       3.147   5.441  19.815  0.00  0.00    +0.000 C 
ATOM      9  N   UNL     1       2.492   4.217  19.467  0.00  0.00    +0.000 N 
ATOM     10  C   UNL     1       1.049   4.123  19.255  0.00  0.00    +0.000 C 
ATOM     11  C   UNL     1       0.556   2.695  19.234  0.00  0.00    +0.000 C 
ATOM     12  S   UNL     1       1.979   1.760  18.695  0.00  0.00    +0.000 S 
ATOM     13  C   UNL     1       3.152   3.010  19.159  0.00  0.00    +0.000 C 
ATOM     14  S   UNL     1       4.776   2.633  19.149  0.00  0.00    +0.000 S 
ENDBRANCH   1   8
BRANCH   5  15
ATOM     15  O   UNL     1       1.201   9.673  18.045  0.00  0.00    +0.000 OA
BRANCH  15  16
ATOM     16  C   UNL     1       0.553  10.919  18.340  0.00  0.00    +0.000 C 
BRANCH  16  17
ATOM     17  C   UNL     1      -0.941  10.863  18.109  0.00  0.00    +0.000 A 
ATOM     18  C   UNL     1      -1.493   9.876  17.276  0.00  0.00    +0.000 A 
ATOM     19  C   UNL     1      -2.875   9.778  17.105  0.00  0.00    +0.000 A 
ATOM     20  C   UNL     1      -3.725  10.658  17.771  0.00  0.00    +0.000 A 
ATOM     21  C   UNL     1      -3.193  11.639  18.606  0.00  0.00    +0.000 A 
ATOM     22  C   UNL     1      -1.807  11.738  18.776  0.00  0.00    +0.000 A 
ENDBRANCH  16  17
ENDBRANCH  15  16
ENDBRANCH   5  15
BRANCH   6  23
ATOM     23  O   UNL     1       2.706   7.209  17.655  0.00  0.00    +0.000 OA
BRANCH  23  24
ATOM     24  C   UNL     1       3.931   7.786  17.203  0.00  0.00    +0.000 C 
BRANCH  24  25
ATOM     25  C   UNL     1       5.028   6.757  16.987  0.00  0.00    +0.000 A 
ATOM     26  C   UNL     1       6.354   6.966  17.390  0.00  0.00    +0.000 A 
ATOM     27  C   UNL     1       7.327   5.989  17.152  0.00  0.00    +0.000 A 
ATOM     28  C   UNL     1       6.982   4.793  16.523  0.00  0.00    +0.000 A 
ATOM     29  C   UNL     1       5.669   4.562  16.138  0.00  0.00    +0.000 A 
ATOM     30  C   UNL     1       4.695   5.538  16.374  0.00  0.00    +0.000 A 
ENDBRANCH  24  25
ENDBRANCH  23  24
ENDBRANCH   6  23
TORSDOF 7
ENDMDL
MODEL 6
REMARK VINA RESULT:      -7.2      6.096      9.481
REMARK  Name = 
REMARK  7 active torsions:
REMARK  status: ('A' for Active; 'I' for Inactive)
REMARK    1  A    between atoms: C_2  and  C_3
REMARK    2  A    between atoms: C_7  and  O_8
REMARK    3  A    between atoms: O_8  and  C_9
REMARK    4  A    between atoms: C_9  and  C_10
REMARK    5  A    between atoms: C_16  and  O_17
REMARK    6  A    between atoms: O_17  and  C_18
REMARK    7  A    between atoms: C_18  and  C_19
REMARK                            x       y       z     vdW  Elec       q    Type
REMARK                         _______ _______ _______ _____ _____    ______ ____
ROOT
ATOM      1  C   UNL     1      -0.896  11.182  21.799  0.00  0.00    +0.000 A 
ATOM      2  C   UNL     1      -0.695  10.669  23.089  0.00  0.00    +0.000 A 
ATOM      3  C   UNL     1      -0.104   9.431  23.285  0.00  0.00    +0.000 A 
ATOM      4  C   UNL     1       0.429   8.753  22.199  0.00  0.00    +0.000 A 
ATOM      5  C   UNL     1       0.361   9.292  20.905  0.00  0.00    +0.000 A 
ATOM      6  C   UNL     1      -0.306  10.524  20.685  0.00  0.00    +0.000 A 
ENDROOT
BRANCH   1   8
ATOM      7  O   UNL     1      -2.915  12.329  21.589  0.00  0.00    +0.000 OA
ATOM      8  C   UNL     1      -1.698  12.452  21.655  0.00  0.00    +0.000 C 
ATOM      9  N   UNL     1      -1.023  13.712  21.590  0.00  0.00    +0.000 N 
ATOM     10  C   UNL     1       0.430  13.838  21.690  0.00  0.00    +0.000 C 
ATOM     11  C   UNL     1       0.875  15.262  21.933  0.00  0.00    +0.000 C 
ATOM     12  S   UNL     1      -0.436  16.245  21.223  0.00  0.00    +0.000 S 
ATOM     13  C   UNL     1      -1.642  14.943  21.292  0.00  0.00    +0.000 C 
ATOM     14  S   UNL     1      -3.240  15.310  20.992  0.00  0.00    +0.000 S 
ENDBRANCH   1   8
BRANCH   5  15
ATOM     15  O   UNL     1       0.999   8.664  19.866  0.00  0.00    +0.000 OA
BRANCH  15  16
ATOM     16  C   UNL     1       2.138   7.846  20.170  0.00  0.00    +0.000 C 
BRANCH  16  17
ATOM     17  C   UNL     1       1.973   6.421  19.689  0.00  0.00    +0.000 A 
ATOM     18  C   UNL     1       1.499   5.429  20.563  0.00  0.00    +0.000 A 
ATOM     19  C   UNL     1       1.285   4.125  20.114  0.00  0.00    +0.000 A 
ATOM     20  C   UNL     1       1.533   3.795  18.783  0.00  0.00    +0.000 A 
ATOM     21  C   UNL     1       1.997   4.770  17.902  0.00  0.00    +0.000 A 
ATOM     22  C   UNL     1       2.213   6.078  18.352  0.00  0.00    +0.000 A 
ENDBRANCH  16  17
ENDBRANCH  15  16
ENDBRANCH   5  15
BRANCH   6  23
ATOM     23  O   UNL     1      -0.451  11.160  19.474  0.00  0.00    +0.000 OA
BRANCH  23  24
ATOM     24  C   UNL     1      -0.659  10.395  18.286  0.00  0.00    +0.000 C 
BRANCH  24  25
ATOM     25  C   UNL     1      -2.005  10.664  17.635  0.00  0.00    +0.000 A 
ATOM     26  C   UNL     1      -2.329  10.213  16.348  0.00  0.00    +0.000 A 
ATOM     27  C   UNL     1      -3.579  10.503  15.791  0.00  0.00    +0.000 A 
ATOM     28  C   UNL     1      -4.520  11.232  16.519  0.00  0.00    +0.000 A 
ATOM     29  C   UNL     1      -4.223  11.666  17.802  0.00  0.00    +0.000 A 
ATOM     30  C   UNL     1      -2.972  11.379  18.361  0.00  0.00    +0.000 A 
ENDBRANCH  24  25
ENDBRANCH  23  24
ENDBRANCH   6  23
TORSDOF 7
ENDMDL
MODEL 7
REMARK VINA RESULT:      -7.1      2.863      6.488
REMARK  Name = 
REMARK  7 active torsions:
REMARK  status: ('A' for Active; 'I' for Inactive)
REMARK    1  A    between atoms: C_2  and  C_3
REMARK    2  A    between atoms: C_7  and  O_8
REMARK    3  A    between atoms: O_8  and  C_9
REMARK    4  A    between atoms: C_9  and  C_10
REMARK    5  A    between atoms: C_16  and  O_17
REMARK    6  A    between atoms: O_17  and  C_18
REMARK    7  A    between atoms: C_18  and  C_19
REMARK                            x       y       z     vdW  Elec       q    Type
REMARK                         _______ _______ _______ _____ _____    ______ ____
ROOT
ATOM      1  C   UNL     1       5.064   6.027  17.952  0.00  0.00    +0.000 A 
ATOM      2  C   UNL     1       6.220   6.821  17.967  0.00  0.00    +0.000 A 
ATOM      3  C   UNL     1       7.311   6.517  17.168  0.00  0.00    +0.000 A 
ATOM      4  C   UNL     1       7.204   5.499  16.233  0.00  0.00    +0.000 A 
ATOM      5  C   UNL     1       6.019   4.761  16.097  0.00  0.00    +0.000 A 
ATOM      6  C   UNL     1       4.922   5.017  16.961  0.00  0.00    +0.000 A 
ENDROOT
BRANCH   1   8
ATOM      7  O   UNL     1       3.957   5.593  19.957  0.00  0.00    +0.000 OA
ATOM      8  C   UNL     1       3.988   6.316  18.969  0.00  0.00    +0.000 C 
ATOM      9  N   UNL     1       3.065   7.386  18.739  0.00  0.00    +0.000 N 
ATOM     10  C   UNL     1       3.133   8.251  17.562  0.00  0.00    +0.000 C 
ATOM     11  C   UNL     1       2.286   9.494  17.705  0.00  0.00    +0.000 C 
ATOM     12  S   UNL     1       1.002   9.007  18.848  0.00  0.00    +0.000 S 
ATOM     13  C   UNL     1       1.925   7.649  19.525  0.00  0.00    +0.000 C 
ATOM     14  S   UNL     1       1.353   6.892  20.895  0.00  0.00    +0.000 S 
ENDBRANCH   1   8
BRANCH   5  15
ATOM     15  O   UNL     1       5.893   3.842  15.087  0.00  0.00    +0.000 OA
BRANCH  15  16
ATOM     16  C   UNL     1       6.509   4.139  13.826  0.00  0.00    +0.000 C 
BRANCH  16  17
ATOM     17  C   UNL     1       5.844   3.419  12.673  0.00  0.00    +0.000 A 
ATOM     18  C   UNL     1       6.448   2.287  12.101  0.00  0.00    +0.000 A 
ATOM     19  C   UNL     1       5.815   1.580  11.078  0.00  0.00    +0.000 A 
ATOM     20  C   UNL     1       4.565   1.988  10.618  0.00  0.00    +0.000 A 
ATOM     21  C   UNL     1       3.949   3.105  11.179  0.00  0.00    +0.000 A 
ATOM     22  C   UNL     1       4.585   3.816  12.204  0.00  0.00    +0.000 A 
ENDBRANCH  16  17
ENDBRANCH  15  16
ENDBRANCH   5  15
BRANCH   6  23
ATOM     23  O   UNL     1       3.709   4.369  16.941  0.00  0.00    +0.000 OA
BRANCH  23  24
ATOM     24  C   UNL     1       3.605   3.035  17.437  0.00  0.00    +0.000 C 
BRANCH  24  25
ATOM     25  C   UNL     1       2.846   2.946  18.750  0.00  0.00    +0.000 A 
ATOM     26  C   UNL     1       3.436   2.495  19.938  0.00  0.00    +0.000 A 
ATOM     27  C   UNL     1       2.685   2.420  21.116  0.00  0.00    +0.000 A 
ATOM     28  C   UNL     1       1.345   2.807  21.120  0.00  0.00    +0.000 A 
ATOM     29  C   UNL     1       0.753   3.278  19.957  0.00  0.00    +0.000 A 
ATOM     30  C   UNL     1       1.502   3.352  18.778  0.00  0.00    +0.000 A 
ENDBRANCH  24  25
ENDBRANCH  23  24
ENDBRANCH   6  23
TORSDOF 7
ENDMDL
MODEL 8
REMARK VINA RESULT:      -7.1      6.057      9.305
REMARK  Name = 
REMARK  7 active torsions:
REMARK  status: ('A' for Active; 'I' for Inactive)
REMARK    1  A    between atoms: C_2  and  C_3
REMARK    2  A    between atoms: C_7  and  O_8
REMARK    3  A    between atoms: O_8  and  C_9
REMARK    4  A    between atoms: C_9  and  C_10
REMARK    5  A    between atoms: C_16  and  O_17
REMARK    6  A    between atoms: O_17  and  C_18
REMARK    7  A    between atoms: C_18  and  C_19
REMARK                            x       y       z     vdW  Elec       q    Type
REMARK                         _______ _______ _______ _____ _____    ______ ____
ROOT
ATOM      1  C   UNL     1      -0.213  11.190  21.939  0.00  0.00    +0.000 A 
ATOM      2  C   UNL     1      -0.541  10.429  23.071  0.00  0.00    +0.000 A 
ATOM      3  C   UNL     1      -0.470   9.045  23.051  0.00  0.00    +0.000 A 
ATOM      4  C   UNL     1       0.074   8.409  21.945  0.00  0.00    +0.000 A 
ATOM      5  C   UNL     1       0.532   9.143  20.840  0.00  0.00    +0.000 A 
ATOM      6  C   UNL     1       0.396  10.555  20.822  0.00  0.00    +0.000 A 
ENDROOT
BRANCH   1   8
ATOM      7  O   UNL     1       0.501  13.409  21.941  0.00  0.00    +0.000 OA
ATOM      8  C   UNL     1      -0.478  12.675  21.978  0.00  0.00    +0.000 C 
ATOM      9  N   UNL     1      -1.825  13.151  22.066  0.00  0.00    +0.000 N 
ATOM     10  C   UNL     1      -2.982  12.256  22.087  0.00  0.00    +0.000 C 
ATOM     11  C   UNL     1      -4.284  12.983  21.844  0.00  0.00    +0.000 C 
ATOM     12  S   UNL     1      -3.956  14.645  22.411  0.00  0.00    +0.000 S 
ATOM     13  C   UNL     1      -2.192  14.496  22.275  0.00  0.00    +0.000 C 
ATOM     14  S   UNL     1      -1.254  15.866  22.425  0.00  0.00    +0.000 S 
ENDBRANCH   1   8
BRANCH   5  15
ATOM     15  O   UNL     1       1.174   8.504  19.810  0.00  0.00    +0.000 OA
BRANCH  15  16
ATOM     16  C   UNL     1       2.212   7.569  20.140  0.00  0.00    +0.000 C 
BRANCH  16  17
ATOM     17  C   UNL     1       1.919   6.176  19.629  0.00  0.00    +0.000 A 
ATOM     18  C   UNL     1       2.193   5.839  18.292  0.00  0.00    +0.000 A 
ATOM     19  C   UNL     1       1.985   4.540  17.826  0.00  0.00    +0.000 A 
ATOM     20  C   UNL     1       1.508   3.556  18.690  0.00  0.00    +0.000 A 
ATOM     21  C   UNL     1       1.238   3.873  20.020  0.00  0.00    +0.000 A 
ATOM     22  C   UNL     1       1.445   5.176  20.488  0.00  0.00    +0.000 A 
ENDBRANCH  16  17
ENDBRANCH  15  16
ENDBRANCH   5  15
BRANCH   6  23
ATOM     23  O   UNL     1       0.795  11.392  19.806  0.00  0.00    +0.000 OA
BRANCH  23  24
ATOM     24  C   UNL     1       0.474  11.076  18.452  0.00  0.00    +0.000 C 
BRANCH  24  25
ATOM     25  C   UNL     1      -1.018  10.914  18.217  0.00  0.00    +0.000 A 
ATOM     26  C   UNL     1      -1.577   9.754  17.663  0.00  0.00    +0.000 A 
ATOM     27  C   UNL     1      -2.958   9.666  17.455  0.00  0.00    +0.000 A 
ATOM     28  C   UNL     1      -3.792  10.726  17.812  0.00  0.00    +0.000 A 
ATOM     29  C   UNL     1      -3.255  11.871  18.382  0.00  0.00    +0.000 A 
ATOM     30  C   UNL     1      -1.875  11.963  18.590  0.00  0.00    +0.000 A 
ENDBRANCH  24  25
ENDBRANCH  23  24
ENDBRANCH   6  23
TORSDOF 7
ENDMDL
MODEL 9
REMARK VINA RESULT:      -7.0      5.812      9.060
REMARK  Name = 
REMARK  7 active torsions:
REMARK  status: ('A' for Active; 'I' for Inactive)
REMARK    1  A    between atoms: C_2  and  C_3
REMARK    2  A    between atoms: C_7  and  O_8
REMARK    3  A    between atoms: O_8  and  C_9
REMARK    4  A    between atoms: C_9  and  C_10
REMARK    5  A    between atoms: C_16  and  O_17
REMARK    6  A    between atoms: O_17  and  C_18
REMARK    7  A    between atoms: C_18  and  C_19
REMARK                            x       y       z     vdW  Elec       q    Type
REMARK                         _______ _______ _______ _____ _____    ______ ____
ROOT
ATOM      1  C   UNL     1      -0.101  10.811  21.300  0.00  0.00    +0.000 A 
ATOM      2  C   UNL     1       0.316  10.360  22.561  0.00  0.00    +0.000 A 
ATOM      3  C   UNL     1       0.955   9.139  22.712  0.00  0.00    +0.000 A 
ATOM      4  C   UNL     1       1.319   8.420  21.583  0.00  0.00    +0.000 A 
ATOM      5  C   UNL     1       1.032   8.897  20.295  0.00  0.00    +0.000 A 
ATOM      6  C   UNL     1       0.314  10.110  20.134  0.00  0.00    +0.000 A 
ENDROOT
BRANCH   1   8
ATOM      7  O   UNL     1      -2.151  11.920  21.359  0.00  0.00    +0.000 OA
ATOM      8  C   UNL     1      -0.941  12.063  21.234  0.00  0.00    +0.000 C 
ATOM      9  N   UNL     1      -0.308  13.329  21.021  0.00  0.00    +0.000 N 
ATOM     10  C   UNL     1       1.141  13.479  20.895  0.00  0.00    +0.000 C 
ATOM     11  C   UNL     1       1.589  14.917  21.015  0.00  0.00    +0.000 C 
ATOM     12  S   UNL     1       0.167  15.854  20.478  0.00  0.00    +0.000 S 
ATOM     13  C   UNL     1      -0.989  14.538  20.777  0.00  0.00    +0.000 C 
ATOM     14  S   UNL     1      -2.621  14.871  20.711  0.00  0.00    +0.000 S 
ENDBRANCH   1   8
BRANCH   5  15
ATOM     15  O   UNL     1       1.506   8.231  19.194  0.00  0.00    +0.000 OA
BRANCH  15  16
ATOM     16  C   UNL     1       2.537   7.254  19.390  0.00  0.00    +0.000 C 
BRANCH  16  17
ATOM     17  C   UNL     1       2.023   5.836  19.270  0.00  0.00    +0.000 A 
ATOM     18  C   UNL     1       2.047   5.176  18.030  0.00  0.00    +0.000 A 
ATOM     19  C   UNL     1       1.632   3.848  17.920  0.00  0.00    +0.000 A 
ATOM     20  C   UNL     1       1.195   3.158  19.049  0.00  0.00    +0.000 A 
ATOM     21  C   UNL     1       1.172   3.796  20.287  0.00  0.00    +0.000 A 
ATOM     22  C   UNL     1       1.586   5.129  20.398  0.00  0.00    +0.000 A 
ENDBRANCH  16  17
ENDBRANCH  15  16
ENDBRANCH   5  15
BRANCH   6  23
ATOM     23  O   UNL     1      -0.037  10.688  18.936  0.00  0.00    +0.000 OA
BRANCH  23  24
ATOM     24  C   UNL     1      -0.595   9.888  17.894  0.00  0.00    +0.000 C 
BRANCH  24  25
ATOM     25  C   UNL     1      -1.947  10.391  17.418  0.00  0.00    +0.000 A 
ATOM     26  C   UNL     1      -2.416  10.186  16.113  0.00  0.00    +0.000 A 
ATOM     27  C   UNL     1      -3.665  10.684  15.725  0.00  0.00    +0.000 A 
ATOM     28  C   UNL     1      -4.460  11.377  16.639  0.00  0.00    +0.000 A 
ATOM     29  C   UNL     1      -4.019  11.567  17.940  0.00  0.00    +0.000 A 
ATOM     30  C   UNL     1      -2.771  11.071  18.330  0.00  0.00    +0.000 A 
ENDBRANCH  24  25
ENDBRANCH  23  24
ENDBRANCH   6  23
TORSDOF 7
ENDMDL
