MODEL 1
REMARK VINA RESULT:      -6.9      0.000      0.000
REMARK  Name = 
REMARK  11 active torsions:
REMARK  status: ('A' for Active; 'I' for Inactive)
REMARK    1  A    between atoms: N_1  and  S_2
REMARK    2  A    between atoms: S_2  and  C_5
REMARK    3  A    between atoms: C_8  and  N_9
REMARK    4  A    between atoms: C_10  and  S_11
REMARK    5  A    between atoms: N_12  and  CA_13
REMARK    6  A    between atoms: CA_13  and  CB_14
REMARK    7  A    between atoms: CA_13  and  C_19
REMARK    8  A    between atoms: CB_14  and  CG_15
REMARK    9  A    between atoms: CG_15  and  CD_16
REMARK   10  A    between atoms: CD_16  and  OE2_18
REMARK   11  A    between atoms: C_19  and  OXT_21
REMARK                            x       y       z     vdW  Elec       q    Type
REMARK                         _______ _______ _______ _____ _____    ______ ____
ROOT
ATOM      1  N   UNK A   0       3.036   5.188  18.959  0.00  0.00    +0.000 N 
ATOM      2  C   UNK A   0       4.326   4.746  18.843  0.00  0.00    +0.000 C 
ATOM      3  N   GLU A   1       5.312   5.477  18.463  0.00  0.00    +0.000 NA
ATOM      4  H   UNK A   0       2.396   4.517  19.364  0.00  0.00    +0.000 HD
ENDROOT
BRANCH   1   8
ATOM      5  C   UNK A   0       1.542   9.129  19.059  0.00  0.00    +0.000 A 
ATOM      6  C   UNK A   0       1.530   8.378  20.231  0.00  0.00    +0.000 A 
ATOM      7  C   UNK A   0       2.083   7.094  20.226  0.00  0.00    +0.000 A 
ATOM      8  C   UNK A   0       2.619   6.531  19.058  0.00  0.00    +0.000 A 
ATOM      9  C   UNK A   0       2.680   7.337  17.909  0.00  0.00    +0.000 A 
ATOM     10  C   UNK A   0       2.135   8.626  17.902  0.00  0.00    +0.000 A 
BRANCH   5  11
ATOM     11  S   UNK A   0       0.782  10.720  19.042  0.00  0.00    +0.000 S 
ATOM     12  O   UNK A   0       1.754  11.693  18.611  0.00  0.00    +0.000 OA
ATOM     13  O   UNK A   0      -0.009  10.885  20.240  0.00  0.00    +0.000 OA
BRANCH  11  14
ATOM     14  N   UNK A   0      -0.329  10.567  17.804  0.00  0.00    +0.000 NA
ATOM     15  H   UNK A   0       0.110  10.828  16.915  0.00  0.00    +0.000 HD
ATOM     16  H   UNK A   0      -1.168  11.105  18.010  0.00  0.00    +0.000 HD
ENDBRANCH  11  14
ENDBRANCH   5  11
ENDBRANCH   1   8
BRANCH   2  17
ATOM     17  S   UNK A   0       4.500   3.087  19.384  0.00  0.00    +0.000 S 
ATOM     18  H   UNK A   0       3.365   3.022  20.088  0.00  0.00    +0.000 HD
ENDBRANCH   2  17
BRANCH   3  19
ATOM     19  CA  GLU A   1       6.690   5.014  18.289  0.00  0.00    +0.000 C 
BRANCH  19  20
ATOM     20  C   GLU A   1       7.624   5.899  19.111  0.00  0.00    +0.000 C 
ATOM     21  O   GLU A   1       8.096   6.946  18.679  0.00  0.00    +0.000 OA
BRANCH  20  22
ATOM     22  OXT GLU A   1       7.835   5.448  20.368  0.00  0.00    +0.000 OA
ATOM     23  HXT GLU A   1       8.807   5.387  20.518  0.00  0.00    +0.000 HD
ENDBRANCH  20  22
ENDBRANCH  19  20
BRANCH  19  24
ATOM     24  CB  GLU A   1       7.010   5.151  16.788  0.00  0.00    +0.000 C 
BRANCH  24  25
ATOM     25  CG  GLU A   1       6.474   4.036  15.892  0.00  0.00    +0.000 C 
BRANCH  25  26
ATOM     26  CD  GLU A   1       6.365   4.476  14.458  0.00  0.00    +0.000 C 
ATOM     27  OE1 GLU A   1       5.556   4.011  13.669  0.00  0.00    +0.000 OA
BRANCH  26  28
ATOM     28  OE2 GLU A   1       7.303   5.377  14.096  0.00  0.00    +0.000 OA
ATOM     29  HE2 GLU A   1       7.376   5.541  13.123  0.00  0.00    +0.000 HD
ENDBRANCH  26  28
ENDBRANCH  25  26
ENDBRANCH  24  25
ENDBRANCH  19  24
ENDBRANCH   3  19
TORSDOF 11
ENDMDL
MODEL 2
REMARK VINA RESULT:      -6.9      0.932      1.320
REMARK  Name = 
REMARK  11 active torsions:
REMARK  status: ('A' for Active; 'I' for Inactive)
REMARK    1  A    between atoms: N_1  and  S_2
REMARK    2  A    between atoms: S_2  and  C_5
REMARK    3  A    between atoms: C_8  and  N_9
REMARK    4  A    between atoms: C_10  and  S_11
REMARK    5  A    between atoms: N_12  and  CA_13
REMARK    6  A    between atoms: CA_13  and  CB_14
REMARK    7  A    between atoms: CA_13  and  C_19
REMARK    8  A    between atoms: CB_14  and  CG_15
REMARK    9  A    between atoms: CG_15  and  CD_16
REMARK   10  A    between atoms: CD_16  and  OE2_18
REMARK   11  A    between atoms: C_19  and  OXT_21
REMARK                            x       y       z     vdW  Elec       q    Type
REMARK                         _______ _______ _______ _____ _____    ______ ____
ROOT
ATOM      1  N   UNK A   0       2.749   5.483  18.396  0.00  0.00    +0.000 N 
ATOM      2  C   UNK A   0       4.026   5.014  18.247  0.00  0.00    +0.000 C 
ATOM      3  N   GLU A   1       5.064   5.762  18.129  0.00  0.00    +0.000 NA
ATOM      4  H   UNK A   0       2.055   4.768  18.574  0.00  0.00    +0.000 HD
ENDROOT
BRANCH   1   8
ATOM      5  C   UNK A   0       1.365   9.317  19.472  0.00  0.00    +0.000 A 
ATOM      6  C   UNK A   0       1.497   8.350  20.464  0.00  0.00    +0.000 A 
ATOM      7  C   UNK A   0       2.017   7.095  20.132  0.00  0.00    +0.000 A 
ATOM      8  C   UNK A   0       2.377   6.777  18.813  0.00  0.00    +0.000 A 
ATOM      9  C   UNK A   0       2.297   7.795  17.847  0.00  0.00    +0.000 A 
ATOM     10  C   UNK A   0       1.784   9.056  18.169  0.00  0.00    +0.000 A 
BRANCH   5  11
ATOM     11  S   UNK A   0       0.644  10.875  19.873  0.00  0.00    +0.000 S 
ATOM     12  O   UNK A   0       1.342  11.431  21.004  0.00  0.00    +0.000 OA
ATOM     13  O   UNK A   0      -0.797  10.762  19.823  0.00  0.00    +0.000 OA
BRANCH  11  14
ATOM     14  N   UNK A   0       1.054  11.806  18.548  0.00  0.00    +0.000 NA
ATOM     15  H   UNK A   0       0.269  11.830  17.889  0.00  0.00    +0.000 HD
ATOM     16  H   UNK A   0       1.918  11.468  18.130  0.00  0.00    +0.000 HD
ENDBRANCH  11  14
ENDBRANCH   5  11
ENDBRANCH   1   8
BRANCH   2  17
ATOM     17  S   UNK A   0       4.097   3.265  18.351  0.00  0.00    +0.000 S 
ATOM     18  H   UNK A   0       3.165   3.006  17.427  0.00  0.00    +0.000 HD
ENDBRANCH   2  17
BRANCH   3  19
ATOM     19  CA  GLU A   1       6.432   5.282  17.924  0.00  0.00    +0.000 C 
BRANCH  19  20
ATOM     20  C   GLU A   1       7.344   5.904  18.979  0.00  0.00    +0.000 C 
ATOM     21  O   GLU A   1       7.474   5.434  20.104  0.00  0.00    +0.000 OA
BRANCH  20  22
ATOM     22  OXT GLU A   1       8.030   6.983  18.538  0.00  0.00    +0.000 OA
ATOM     23  HXT GLU A   1       7.612   7.792  18.913  0.00  0.00    +0.000 HD
ENDBRANCH  20  22
ENDBRANCH  19  20
BRANCH  19  24
ATOM     24  CB  GLU A   1       6.852   5.748  16.517  0.00  0.00    +0.000 C 
BRANCH  24  25
ATOM     25  CG  GLU A   1       6.048   5.161  15.358  0.00  0.00    +0.000 C 
BRANCH  25  26
ATOM     26  CD  GLU A   1       6.931   4.780  14.201  0.00  0.00    +0.000 C 
ATOM     27  OE1 GLU A   1       7.889   5.445  13.836  0.00  0.00    +0.000 OA
BRANCH  26  28
ATOM     28  OE2 GLU A   1       6.519   3.673  13.547  0.00  0.00    +0.000 OA
ATOM     29  HE2 GLU A   1       5.573   3.425  13.695  0.00  0.00    +0.000 HD
ENDBRANCH  26  28
ENDBRANCH  25  26
ENDBRANCH  24  25
ENDBRANCH  19  24
ENDBRANCH   3  19
TORSDOF 11
ENDMDL
MODEL 3
REMARK VINA RESULT:      -6.8      0.811      1.396
REMARK  Name = 
REMARK  11 active torsions:
REMARK  status: ('A' for Active; 'I' for Inactive)
REMARK    1  A    between atoms: N_1  and  S_2
REMARK    2  A    between atoms: S_2  and  C_5
REMARK    3  A    between atoms: C_8  and  N_9
REMARK    4  A    between atoms: C_10  and  S_11
REMARK    5  A    between atoms: N_12  and  CA_13
REMARK    6  A    between atoms: CA_13  and  CB_14
REMARK    7  A    between atoms: CA_13  and  C_19
REMARK    8  A    between atoms: CB_14  and  CG_15
REMARK    9  A    between atoms: CG_15  and  CD_16
REMARK   10  A    between atoms: CD_16  and  OE2_18
REMARK   11  A    between atoms: C_19  and  OXT_21
REMARK                            x       y       z     vdW  Elec       q    Type
REMARK                         _______ _______ _______ _____ _____    ______ ____
ROOT
ATOM      1  N   UNK A   0       3.035   5.112  18.862  0.00  0.00    +0.000 N 
ATOM      2  C   UNK A   0       4.324   4.654  18.824  0.00  0.00    +0.000 C 
ATOM      3  N   GLU A   1       5.345   5.385  18.553  0.00  0.00    +0.000 NA
ATOM      4  H   UNK A   0       2.356   4.434  19.187  0.00  0.00    +0.000 HD
ENDROOT
BRANCH   1   8
ATOM      5  C   UNK A   0       1.567   9.059  19.056  0.00  0.00    +0.000 A 
ATOM      6  C   UNK A   0       1.594   8.296  20.220  0.00  0.00    +0.000 A 
ATOM      7  C   UNK A   0       2.139   7.010  20.182  0.00  0.00    +0.000 A 
ATOM      8  C   UNK A   0       2.629   6.455  18.990  0.00  0.00    +0.000 A 
ATOM      9  C   UNK A   0       2.652   7.273  17.847  0.00  0.00    +0.000 A 
ATOM     10  C   UNK A   0       2.115   8.565  17.873  0.00  0.00    +0.000 A 
BRANCH   5  11
ATOM     11  S   UNK A   0       0.816  10.654  19.083  0.00  0.00    +0.000 S 
ATOM     12  O   UNK A   0      -0.522  10.544  18.560  0.00  0.00    +0.000 OA
ATOM     13  O   UNK A   0       1.763  11.637  18.607  0.00  0.00    +0.000 OA
BRANCH  11  14
ATOM     14  N   UNK A   0       0.670  10.948  20.722  0.00  0.00    +0.000 NA
ATOM     15  H   UNK A   0       0.049  10.248  21.142  0.00  0.00    +0.000 HD
ATOM     16  H   UNK A   0       0.365  11.904  20.885  0.00  0.00    +0.000 HD
ENDBRANCH  11  14
ENDBRANCH   5  11
ENDBRANCH   1   8
BRANCH   2  17
ATOM     17  S   UNK A   0       4.434   2.970  19.301  0.00  0.00    +0.000 S 
ATOM     18  H   UNK A   0       3.258   2.899  19.933  0.00  0.00    +0.000 HD
ENDBRANCH   2  17
BRANCH   3  19
ATOM     19  CA  GLU A   1       6.726   4.906  18.463  0.00  0.00    +0.000 C 
BRANCH  19  20
ATOM     20  C   GLU A   1       7.601   5.720  19.414  0.00  0.00    +0.000 C 
ATOM     21  O   GLU A   1       7.816   5.379  20.573  0.00  0.00    +0.000 OA
BRANCH  20  22
ATOM     22  OXT GLU A   1       8.155   6.813  18.843  0.00  0.00    +0.000 OA
ATOM     23  HXT GLU A   1       9.127   6.667  18.768  0.00  0.00    +0.000 HD
ENDBRANCH  20  22
ENDBRANCH  19  20
BRANCH  19  24
ATOM     24  CB  GLU A   1       7.172   5.132  17.006  0.00  0.00    +0.000 C 
BRANCH  24  25
ATOM     25  CG  GLU A   1       6.181   4.684  15.933  0.00  0.00    +0.000 C 
BRANCH  25  26
ATOM     26  CD  GLU A   1       6.831   4.577  14.581  0.00  0.00    +0.000 C 
ATOM     27  OE1 GLU A   1       7.633   5.394  14.151  0.00  0.00    +0.000 OA
BRANCH  26  28
ATOM     28  OE2 GLU A   1       6.386   3.536  13.846  0.00  0.00    +0.000 OA
ATOM     29  HE2 GLU A   1       6.264   2.691  14.346  0.00  0.00    +0.000 HD
ENDBRANCH  26  28
ENDBRANCH  25  26
ENDBRANCH  24  25
ENDBRANCH  19  24
ENDBRANCH   3  19
TORSDOF 11
ENDMDL
MODEL 4
REMARK VINA RESULT:      -6.8      0.912      1.130
REMARK  Name = 
REMARK  11 active torsions:
REMARK  status: ('A' for Active; 'I' for Inactive)
REMARK    1  A    between atoms: N_1  and  S_2
REMARK    2  A    between atoms: S_2  and  C_5
REMARK    3  A    between atoms: C_8  and  N_9
REMARK    4  A    between atoms: C_10  and  S_11
REMARK    5  A    between atoms: N_12  and  CA_13
REMARK    6  A    between atoms: CA_13  and  CB_14
REMARK    7  A    between atoms: CA_13  and  C_19
REMARK    8  A    between atoms: CB_14  and  CG_15
REMARK    9  A    between atoms: CG_15  and  CD_16
REMARK   10  A    between atoms: CD_16  and  OE2_18
REMARK   11  A    between atoms: C_19  and  OXT_21
REMARK                            x       y       z     vdW  Elec       q    Type
REMARK                         _______ _______ _______ _____ _____    ______ ____
ROOT
ATOM      1  N   UNK A   0       2.706   5.548  18.084  0.00  0.00    +0.000 N 
ATOM      2  C   UNK A   0       3.957   4.998  18.012  0.00  0.00    +0.000 C 
ATOM      3  N   GLU A   1       5.049   5.661  18.144  0.00  0.00    +0.000 NA
ATOM      4  H   UNK A   0       1.948   4.878  18.058  0.00  0.00    +0.000 HD
ENDROOT
BRANCH   1   8
ATOM      5  C   UNK A   0       1.421   9.242  19.661  0.00  0.00    +0.000 A 
ATOM      6  C   UNK A   0       1.611   8.171  20.530  0.00  0.00    +0.000 A 
ATOM      7  C   UNK A   0       2.099   6.961  20.029  0.00  0.00    +0.000 A 
ATOM      8  C   UNK A   0       2.371   6.789  18.663  0.00  0.00    +0.000 A 
ATOM      9  C   UNK A   0       2.236   7.906  17.822  0.00  0.00    +0.000 A 
ATOM     10  C   UNK A   0       1.753   9.125  18.312  0.00  0.00    +0.000 A 
BRANCH   5  11
ATOM     11  S   UNK A   0       0.738  10.746  20.275  0.00  0.00    +0.000 S 
ATOM     12  O   UNK A   0       1.278  11.845  19.514  0.00  0.00    +0.000 OA
ATOM     13  O   UNK A   0       0.745  10.720  21.720  0.00  0.00    +0.000 OA
BRANCH  11  14
ATOM     14  N   UNK A   0      -0.870  10.605  19.844  0.00  0.00    +0.000 NA
ATOM     15  H   UNK A   0      -1.060  11.197  19.029  0.00  0.00    +0.000 HD
ATOM     16  H   UNK A   0      -1.471  10.812  20.639  0.00  0.00    +0.000 HD
ENDBRANCH  11  14
ENDBRANCH   5  11
ENDBRANCH   1   8
BRANCH   2  17
ATOM     17  S   UNK A   0       3.895   3.255  17.832  0.00  0.00    +0.000 S 
ATOM     18  H   UNK A   0       5.167   3.008  18.160  0.00  0.00    +0.000 HD
ENDBRANCH   2  17
BRANCH   3  19
ATOM     19  CA  GLU A   1       6.397   5.101  18.026  0.00  0.00    +0.000 C 
BRANCH  19  20
ATOM     20  C   GLU A   1       7.315   5.788  19.034  0.00  0.00    +0.000 C 
ATOM     21  O   GLU A   1       7.438   5.400  20.191  0.00  0.00    +0.000 OA
BRANCH  20  22
ATOM     22  OXT GLU A   1       8.014   6.823  18.516  0.00  0.00    +0.000 OA
ATOM     23  HXT GLU A   1       8.758   7.033  19.126  0.00  0.00    +0.000 HD
ENDBRANCH  20  22
ENDBRANCH  19  20
BRANCH  19  24
ATOM     24  CB  GLU A   1       6.868   5.396  16.589  0.00  0.00    +0.000 C 
BRANCH  24  25
ATOM     25  CG  GLU A   1       6.934   4.191  15.653  0.00  0.00    +0.000 C 
BRANCH  25  26
ATOM     26  CD  GLU A   1       6.965   4.607  14.207  0.00  0.00    +0.000 C 
ATOM     27  OE1 GLU A   1       6.327   4.046  13.330  0.00  0.00    +0.000 OA
BRANCH  26  28
ATOM     28  OE2 GLU A   1       7.830   5.612  13.952  0.00  0.00    +0.000 OA
ATOM     29  HE2 GLU A   1       8.598   5.371  13.378  0.00  0.00    +0.000 HD
ENDBRANCH  26  28
ENDBRANCH  25  26
ENDBRANCH  24  25
ENDBRANCH  19  24
ENDBRANCH   3  19
TORSDOF 11
ENDMDL
MODEL 5
REMARK VINA RESULT:      -6.8      0.939      1.171
REMARK  Name = 
REMARK  11 active torsions:
REMARK  status: ('A' for Active; 'I' for Inactive)
REMARK    1  A    between atoms: N_1  and  S_2
REMARK    2  A    between atoms: S_2  and  C_5
REMARK    3  A    between atoms: C_8  and  N_9
REMARK    4  A    between atoms: C_10  and  S_11
REMARK    5  A    between atoms: N_12  and  CA_13
REMARK    6  A    between atoms: CA_13  and  CB_14
REMARK    7  A    between atoms: CA_13  and  C_19
REMARK    8  A    between atoms: CB_14  and  CG_15
REMARK    9  A    between atoms: CG_15  and  CD_16
REMARK   10  A    between atoms: CD_16  and  OE2_18
REMARK   11  A    between atoms: C_19  and  OXT_21
REMARK                            x       y       z     vdW  Elec       q    Type
REMARK                         _______ _______ _______ _____ _____    ______ ____
ROOT
ATOM      1  N   UNK A   0       2.937   5.120  18.527  0.00  0.00    +0.000 N 
ATOM      2  C   UNK A   0       4.207   4.611  18.556  0.00  0.00    +0.000 C 
ATOM      3  N   GLU A   1       5.274   5.326  18.553  0.00  0.00    +0.000 NA
ATOM      4  H   UNK A   0       2.204   4.430  18.635  0.00  0.00    +0.000 HD
ENDROOT
BRANCH   1   8
ATOM      5  C   UNK A   0       1.528   9.008  19.347  0.00  0.00    +0.000 A 
ATOM      6  C   UNK A   0       1.651   8.104  20.399  0.00  0.00    +0.000 A 
ATOM      7  C   UNK A   0       2.179   6.834  20.151  0.00  0.00    +0.000 A 
ATOM      8  C   UNK A   0       2.556   6.436  18.859  0.00  0.00    +0.000 A 
ATOM      9  C   UNK A   0       2.485   7.391  17.831  0.00  0.00    +0.000 A 
ATOM     10  C   UNK A   0       1.964   8.668  18.068  0.00  0.00    +0.000 A 
BRANCH   5  11
ATOM     11  S   UNK A   0       0.796  10.584  19.642  0.00  0.00    +0.000 S 
ATOM     12  O   UNK A   0      -0.630  10.473  19.468  0.00  0.00    +0.000 OA
ATOM     13  O   UNK A   0       1.584  11.607  18.991  0.00  0.00    +0.000 OA
BRANCH  11  14
ATOM     14  N   UNK A   0       1.067  10.800  21.276  0.00  0.00    +0.000 NA
ATOM     15  H   UNK A   0       1.889  10.258  21.562  0.00  0.00    +0.000 HD
ATOM     16  H   UNK A   0       0.231  10.570  21.809  0.00  0.00    +0.000 HD
ENDBRANCH  11  14
ENDBRANCH   5  11
ENDBRANCH   1   8
BRANCH   2  17
ATOM     17  S   UNK A   0       4.209   2.865  18.715  0.00  0.00    +0.000 S 
ATOM     18  H   UNK A   0       5.536   2.702  18.749  0.00  0.00    +0.000 HD
ENDBRANCH   2  17
BRANCH   3  19
ATOM     19  CA  GLU A   1       6.642   4.803  18.537  0.00  0.00    +0.000 C 
BRANCH  19  20
ATOM     20  C   GLU A   1       7.573   5.816  19.199  0.00  0.00    +0.000 C 
ATOM     21  O   GLU A   1       7.948   6.839  18.635  0.00  0.00    +0.000 OA
BRANCH  20  22
ATOM     22  OXT GLU A   1       7.898   5.505  20.474  0.00  0.00    +0.000 OA
ATOM     23  HXT GLU A   1       7.191   4.926  20.843  0.00  0.00    +0.000 HD
ENDBRANCH  20  22
ENDBRANCH  19  20
BRANCH  19  24
ATOM     24  CB  GLU A   1       7.023   4.618  17.056  0.00  0.00    +0.000 C 
BRANCH  24  25
ATOM     25  CG  GLU A   1       6.211   5.440  16.057  0.00  0.00    +0.000 C 
BRANCH  25  26
ATOM     26  CD  GLU A   1       6.440   4.983  14.641  0.00  0.00    +0.000 C 
ATOM     27  OE1 GLU A   1       5.675   4.245  14.038  0.00  0.00    +0.000 OA
BRANCH  26  28
ATOM     28  OE2 GLU A   1       7.614   5.399  14.122  0.00  0.00    +0.000 OA
ATOM     29  HE2 GLU A   1       7.544   6.108  13.435  0.00  0.00    +0.000 HD
ENDBRANCH  26  28
ENDBRANCH  25  26
ENDBRANCH  24  25
ENDBRANCH  19  24
ENDBRANCH   3  19
TORSDOF 11
ENDMDL
MODEL 6
REMARK VINA RESULT:      -6.7      1.071      1.234
REMARK  Name = 
REMARK  11 active torsions:
REMARK  status: ('A' for Active; 'I' for Inactive)
REMARK    1  A    between atoms: N_1  and  S_2
REMARK    2  A    between atoms: S_2  and  C_5
REMARK    3  A    between atoms: C_8  and  N_9
REMARK    4  A    between atoms: C_10  and  S_11
REMARK    5  A    between atoms: N_12  and  CA_13
REMARK    6  A    between atoms: CA_13  and  CB_14
REMARK    7  A    between atoms: CA_13  and  C_19
REMARK    8  A    between atoms: CB_14  and  CG_15
REMARK    9  A    between atoms: CG_15  and  CD_16
REMARK   10  A    between atoms: CD_16  and  OE2_18
REMARK   11  A    between atoms: C_19  and  OXT_21
REMARK                            x       y       z     vdW  Elec       q    Type
REMARK                         _______ _______ _______ _____ _____    ______ ____
ROOT
ATOM      1  N   UNK A   0       2.814   5.062  19.260  0.00  0.00    +0.000 N 
ATOM      2  C   UNK A   0       4.079   4.539  19.243  0.00  0.00    +0.000 C 
ATOM      3  N   GLU A   1       5.130   5.194  18.900  0.00  0.00    +0.000 NA
ATOM      4  H   UNK A   0       2.109   4.448  19.648  0.00  0.00    +0.000 HD
ENDROOT
BRANCH   1   8
ATOM      5  C   UNK A   0       1.555   9.083  19.127  0.00  0.00    +0.000 A 
ATOM      6  C   UNK A   0       1.482   8.398  20.336  0.00  0.00    +0.000 A 
ATOM      7  C   UNK A   0       1.957   7.085  20.408  0.00  0.00    +0.000 A 
ATOM      8  C   UNK A   0       2.476   6.430  19.281  0.00  0.00    +0.000 A 
ATOM      9  C   UNK A   0       2.601   7.169  18.092  0.00  0.00    +0.000 A 
ATOM     10  C   UNK A   0       2.134   8.485  18.008  0.00  0.00    +0.000 A 
BRANCH   5  11
ATOM     11  S   UNK A   0       0.891  10.712  19.013  0.00  0.00    +0.000 S 
ATOM     12  O   UNK A   0       1.051  11.367  20.287  0.00  0.00    +0.000 OA
ATOM     13  O   UNK A   0      -0.373  10.666  18.312  0.00  0.00    +0.000 OA
BRANCH  11  14
ATOM     14  N   UNK A   0       1.950  11.452  17.954  0.00  0.00    +0.000 NA
ATOM     15  H   UNK A   0       2.693  10.795  17.696  0.00  0.00    +0.000 HD
ATOM     16  H   UNK A   0       2.303  12.320  18.352  0.00  0.00    +0.000 HD
ENDBRANCH  11  14
ENDBRANCH   5  11
ENDBRANCH   1   8
BRANCH   2  17
ATOM     17  S   UNK A   0       4.116   2.897  19.857  0.00  0.00    +0.000 S 
ATOM     18  H   UNK A   0       3.760   3.181  21.114  0.00  0.00    +0.000 HD
ENDBRANCH   2  17
BRANCH   3  19
ATOM     19  CA  GLU A   1       6.484   4.642  18.832  0.00  0.00    +0.000 C 
BRANCH  19  20
ATOM     20  C   GLU A   1       7.484   5.714  19.261  0.00  0.00    +0.000 C 
ATOM     21  O   GLU A   1       7.776   6.671  18.551  0.00  0.00    +0.000 OA
BRANCH  20  22
ATOM     22  OXT GLU A   1       7.971   5.535  20.509  0.00  0.00    +0.000 OA
ATOM     23  HXT GLU A   1       8.550   4.738  20.507  0.00  0.00    +0.000 HD
ENDBRANCH  20  22
ENDBRANCH  19  20
BRANCH  19  24
ATOM     24  CB  GLU A   1       6.723   4.250  17.361  0.00  0.00    +0.000 C 
BRANCH  24  25
ATOM     25  CG  GLU A   1       5.641   4.687  16.376  0.00  0.00    +0.000 C 
BRANCH  25  26
ATOM     26  CD  GLU A   1       6.152   5.719  15.407  0.00  0.00    +0.000 C 
ATOM     27  OE1 GLU A   1       7.275   5.695  14.925  0.00  0.00    +0.000 OA
BRANCH  26  28
ATOM     28  OE2 GLU A   1       5.281   6.725  15.179  0.00  0.00    +0.000 OA
ATOM     29  HE2 GLU A   1       4.391   6.614  15.595  0.00  0.00    +0.000 HD
ENDBRANCH  26  28
ENDBRANCH  25  26
ENDBRANCH  24  25
ENDBRANCH  19  24
ENDBRANCH   3  19
TORSDOF 11
ENDMDL
MODEL 7
REMARK VINA RESULT:      -6.7      0.577      1.335
REMARK  Name = 
REMARK  11 active torsions:
REMARK  status: ('A' for Active; 'I' for Inactive)
REMARK    1  A    between atoms: N_1  and  S_2
REMARK    2  A    between atoms: S_2  and  C_5
REMARK    3  A    between atoms: C_8  and  N_9
REMARK    4  A    between atoms: C_10  and  S_11
REMARK    5  A    between atoms: N_12  and  CA_13
REMARK    6  A    between atoms: CA_13  and  CB_14
REMARK    7  A    between atoms: CA_13  and  C_19
REMARK    8  A    between atoms: CB_14  and  CG_15
REMARK    9  A    between atoms: CG_15  and  CD_16
REMARK   10  A    between atoms: CD_16  and  OE2_18
REMARK   11  A    between atoms: C_19  and  OXT_21
REMARK                            x       y       z     vdW  Elec       q    Type
REMARK                         _______ _______ _______ _____ _____    ______ ____
ROOT
ATOM      1  N   UNK A   0       2.992   5.050  18.984  0.00  0.00    +0.000 N 
ATOM      2  C   UNK A   0       4.313   4.730  18.822  0.00  0.00    +0.000 C 
ATOM      3  N   GLU A   1       5.193   5.519  18.320  0.00  0.00    +0.000 NA
ATOM      4  H   UNK A   0       2.449   4.357  19.484  0.00  0.00    +0.000 HD
ENDROOT
BRANCH   1   8
ATOM      5  C   UNK A   0       1.599   9.022  19.209  0.00  0.00    +0.000 A 
ATOM      6  C   UNK A   0       2.003   8.523  17.975  0.00  0.00    +0.000 A 
ATOM      7  C   UNK A   0       2.405   7.188  17.875  0.00  0.00    +0.000 A 
ATOM      8  C   UNK A   0       2.443   6.347  18.998  0.00  0.00    +0.000 A 
ATOM      9  C   UNK A   0       1.964   6.859  20.217  0.00  0.00    +0.000 A 
ATOM     10  C   UNK A   0       1.554   8.192  20.328  0.00  0.00    +0.000 A 
BRANCH   5  11
ATOM     11  S   UNK A   0       1.161  10.724  19.354  0.00  0.00    +0.000 S 
ATOM     12  O   UNK A   0       1.955  11.487  18.425  0.00  0.00    +0.000 OA
ATOM     13  O   UNK A   0       1.046  11.071  20.753  0.00  0.00    +0.000 OA
BRANCH  11  14
ATOM     14  N   UNK A   0      -0.406  10.736  18.772  0.00  0.00    +0.000 NA
ATOM     15  H   UNK A   0      -0.391  10.742  17.748  0.00  0.00    +0.000 HD
ATOM     16  H   UNK A   0      -0.927  11.513  19.171  0.00  0.00    +0.000 HD
ENDBRANCH  11  14
ENDBRANCH   5  11
ENDBRANCH   1   8
BRANCH   2  17
ATOM     17  S   UNK A   0       4.691   3.152  19.487  0.00  0.00    +0.000 S 
ATOM     18  H   UNK A   0       6.007   3.184  19.254  0.00  0.00    +0.000 HD
ENDBRANCH   2  17
BRANCH   3  19
ATOM     19  CA  GLU A   1       6.601   5.182  18.096  0.00  0.00    +0.000 C 
BRANCH  19  20
ATOM     20  C   GLU A   1       7.448   5.804  19.204  0.00  0.00    +0.000 C 
ATOM     21  O   GLU A   1       7.515   5.330  20.333  0.00  0.00    +0.000 OA
BRANCH  20  22
ATOM     22  OXT GLU A   1       8.152   6.888  18.807  0.00  0.00    +0.000 OA
ATOM     23  HXT GLU A   1       8.396   6.771  17.859  0.00  0.00    +0.000 HD
ENDBRANCH  20  22
ENDBRANCH  19  20
BRANCH  19  24
ATOM     24  CB  GLU A   1       6.983   5.786  16.731  0.00  0.00    +0.000 C 
BRANCH  24  25
ATOM     25  CG  GLU A   1       6.032   5.471  15.578  0.00  0.00    +0.000 C 
BRANCH  25  26
ATOM     26  CD  GLU A   1       6.748   4.821  14.425  0.00  0.00    +0.000 C 
ATOM     27  OE1 GLU A   1       6.395   3.766  13.921  0.00  0.00    +0.000 OA
BRANCH  26  28
ATOM     28  OE2 GLU A   1       7.870   5.471  14.049  0.00  0.00    +0.000 OA
ATOM     29  HE2 GLU A   1       8.566   4.903  13.635  0.00  0.00    +0.000 HD
ENDBRANCH  26  28
ENDBRANCH  25  26
ENDBRANCH  24  25
ENDBRANCH  19  24
ENDBRANCH   3  19
TORSDOF 11
ENDMDL
MODEL 8
REMARK VINA RESULT:      -6.6      0.968      1.814
REMARK  Name = 
REMARK  11 active torsions:
REMARK  status: ('A' for Active; 'I' for Inactive)
REMARK    1  A    between atoms: N_1  and  S_2
REMARK    2  A    between atoms: S_2  and  C_5
REMARK    3  A    between atoms: C_8  and  N_9
REMARK    4  A    between atoms: C_10  and  S_11
REMARK    5  A    between atoms: N_12  and  CA_13
REMARK    6  A    between atoms: CA_13  and  CB_14
REMARK    7  A    between atoms: CA_13  and  C_19
REMARK    8  A    between atoms: CB_14  and  CG_15
REMARK    9  A    between atoms: CG_15  and  CD_16
REMARK   10  A    between atoms: CD_16  and  OE2_18
REMARK   11  A    between atoms: C_19  and  OXT_21
REMARK                            x       y       z     vdW  Elec       q    Type
REMARK                         _______ _______ _______ _____ _____    ______ ____
ROOT
ATOM      1  N   UNK A   0       2.968   5.041  19.122  0.00  0.00    +0.000 N 
ATOM      2  C   UNK A   0       4.289   4.747  18.910  0.00  0.00    +0.000 C 
ATOM      3  N   GLU A   1       5.132   5.552  18.372  0.00  0.00    +0.000 NA
ATOM      4  H   UNK A   0       2.459   4.339  19.645  0.00  0.00    +0.000 HD
ENDROOT
BRANCH   1   8
ATOM      5  C   UNK A   0       1.490   8.979  19.404  0.00  0.00    +0.000 A 
ATOM      6  C   UNK A   0       1.942   8.520  18.170  0.00  0.00    +0.000 A 
ATOM      7  C   UNK A   0       2.373   7.195  18.049  0.00  0.00    +0.000 A 
ATOM      8  C   UNK A   0       2.393   6.327  19.152  0.00  0.00    +0.000 A 
ATOM      9  C   UNK A   0       1.866   6.797  20.367  0.00  0.00    +0.000 A 
ATOM     10  C   UNK A   0       1.427   8.119  20.499  0.00  0.00    +0.000 A 
BRANCH   5  11
ATOM     11  S   UNK A   0       1.014  10.667  19.578  0.00  0.00    +0.000 S 
ATOM     12  O   UNK A   0      -0.412  10.768  19.391  0.00  0.00    +0.000 OA
ATOM     13  O   UNK A   0       1.956  11.505  18.871  0.00  0.00    +0.000 OA
BRANCH  11  14
ATOM     14  N   UNK A   0       1.308  10.952  21.198  0.00  0.00    +0.000 NA
ATOM     15  H   UNK A   0       1.097  11.930  21.418  0.00  0.00    +0.000 HD
ATOM     16  H   UNK A   0       2.259  10.683  21.439  0.00  0.00    +0.000 HD
ENDBRANCH  11  14
ENDBRANCH   5  11
ENDBRANCH   1   8
BRANCH   2  17
ATOM     17  S   UNK A   0       4.724   3.180  19.567  0.00  0.00    +0.000 S 
ATOM     18  H   UNK A   0       5.916   3.076  18.971  0.00  0.00    +0.000 HD
ENDBRANCH   2  17
BRANCH   3  19
ATOM     19  CA  GLU A   1       6.537   5.243  18.096  0.00  0.00    +0.000 C 
BRANCH  19  20
ATOM     20  C   GLU A   1       7.410   5.859  19.187  0.00  0.00    +0.000 C 
ATOM     21  O   GLU A   1       7.487   5.390  20.318  0.00  0.00    +0.000 OA
BRANCH  20  22
ATOM     22  OXT GLU A   1       8.124   6.929  18.772  0.00  0.00    +0.000 OA
ATOM     23  HXT GLU A   1       7.564   7.458  18.158  0.00  0.00    +0.000 HD
ENDBRANCH  20  22
ENDBRANCH  19  20
BRANCH  19  24
ATOM     24  CB  GLU A   1       6.864   5.878  16.731  0.00  0.00    +0.000 C 
BRANCH  24  25
ATOM     25  CG  GLU A   1       6.022   5.389  15.554  0.00  0.00    +0.000 C 
BRANCH  25  26
ATOM     26  CD  GLU A   1       6.875   4.802  14.463  0.00  0.00    +0.000 C 
ATOM     27  OE1 GLU A   1       7.807   5.396  13.941  0.00  0.00    +0.000 OA
BRANCH  26  28
ATOM     28  OE2 GLU A   1       6.465   3.583  14.052  0.00  0.00    +0.000 OA
ATOM     29  HE2 GLU A   1       6.565   3.410  13.083  0.00  0.00    +0.000 HD
ENDBRANCH  26  28
ENDBRANCH  25  26
ENDBRANCH  24  25
ENDBRANCH  19  24
ENDBRANCH   3  19
TORSDOF 11
ENDMDL
MODEL 9
REMARK VINA RESULT:      -6.6      0.558      1.327
REMARK  Name = 
REMARK  11 active torsions:
REMARK  status: ('A' for Active; 'I' for Inactive)
REMARK    1  A    between atoms: N_1  and  S_2
REMARK    2  A    between atoms: S_2  and  C_5
REMARK    3  A    between atoms: C_8  and  N_9
REMARK    4  A    between atoms: C_10  and  S_11
REMARK    5  A    between atoms: N_12  and  CA_13
REMARK    6  A    between atoms: CA_13  and  CB_14
REMARK    7  A    between atoms: CA_13  and  C_19
REMARK    8  A    between atoms: CB_14  and  CG_15
REMARK    9  A    between atoms: CG_15  and  CD_16
REMARK   10  A    between atoms: CD_16  and  OE2_18
REMARK   11  A    between atoms: C_19  and  OXT_21
REMARK                            x       y       z     vdW  Elec       q    Type
REMARK                         _______ _______ _______ _____ _____    ______ ____
ROOT
ATOM      1  N   UNK A   0       3.075   4.741  19.038  0.00  0.00    +0.000 N 
ATOM      2  C   UNK A   0       4.393   4.373  19.060  0.00  0.00    +0.000 C 
ATOM      3  N   GLU A   1       5.358   5.108  18.635  0.00  0.00    +0.000 NA
ATOM      4  H   UNK A   0       2.449   4.093  19.499  0.00  0.00    +0.000 HD
ENDROOT
BRANCH   1   8
ATOM      5  C   UNK A   0       1.831   8.766  18.867  0.00  0.00    +0.000 A 
ATOM      6  C   UNK A   0       2.258   8.146  17.696  0.00  0.00    +0.000 A 
ATOM      7  C   UNK A   0       2.610   6.794  17.727  0.00  0.00    +0.000 A 
ATOM      8  C   UNK A   0       2.576   6.054  18.919  0.00  0.00    +0.000 A 
ATOM      9  C   UNK A   0       2.077   6.688  20.070  0.00  0.00    +0.000 A 
ATOM     10  C   UNK A   0       1.716   8.039  20.051  0.00  0.00    +0.000 A 
BRANCH   5  11
ATOM     11  S   UNK A   0       1.455  10.488  18.847  0.00  0.00    +0.000 S 
ATOM     12  O   UNK A   0       2.428  11.165  18.028  0.00  0.00    +0.000 OA
ATOM     13  O   UNK A   0       1.125  10.921  20.187  0.00  0.00    +0.000 OA
BRANCH  11  14
ATOM     14  N   UNK A   0       0.010  10.525  18.009  0.00  0.00    +0.000 NA
ATOM     15  H   UNK A   0      -0.165   9.607  17.588  0.00  0.00    +0.000 HD
ATOM     16  H   UNK A   0       0.012  11.284  17.331  0.00  0.00    +0.000 HD
ENDBRANCH  11  14
ENDBRANCH   5  11
ENDBRANCH   1   8
BRANCH   2  17
ATOM     17  S   UNK A   0       4.626   2.822  19.843  0.00  0.00    +0.000 S 
ATOM     18  H   UNK A   0       5.866   2.594  19.396  0.00  0.00    +0.000 HD
ENDBRANCH   2  17
BRANCH   3  19
ATOM     19  CA  GLU A   1       6.769   4.716  18.608  0.00  0.00    +0.000 C 
BRANCH  19  20
ATOM     20  C   GLU A   1       7.605   5.809  19.269  0.00  0.00    +0.000 C 
ATOM     21  O   GLU A   1       7.918   6.845  18.691  0.00  0.00    +0.000 OA
BRANCH  20  22
ATOM     22  OXT GLU A   1       7.918   5.549  20.558  0.00  0.00    +0.000 OA
ATOM     23  HXT GLU A   1       7.088   5.559  21.088  0.00  0.00    +0.000 HD
ENDBRANCH  20  22
ENDBRANCH  19  20
BRANCH  19  24
ATOM     24  CB  GLU A   1       7.154   4.576  17.123  0.00  0.00    +0.000 C 
BRANCH  24  25
ATOM     25  CG  GLU A   1       5.994   4.622  16.130  0.00  0.00    +0.000 C 
BRANCH  25  26
ATOM     26  CD  GLU A   1       6.477   4.725  14.709  0.00  0.00    +0.000 C 
ATOM     27  OE1 GLU A   1       7.502   5.307  14.386  0.00  0.00    +0.000 OA
BRANCH  26  28
ATOM     28  OE2 GLU A   1       5.630   4.183  13.809  0.00  0.00    +0.000 OA
ATOM     29  HE2 GLU A   1       5.439   4.747  13.018  0.00  0.00    +0.000 HD
ENDBRANCH  26  28
ENDBRANCH  25  26
ENDBRANCH  24  25
ENDBRANCH  19  24
ENDBRANCH   3  19
TORSDOF 11
ENDMDL
