MODEL 1
REMARK VINA RESULT:      -8.4      0.000      0.000
REMARK  Name = 
REMARK  4 active torsions:
REMARK  status: ('A' for Active; 'I' for Inactive)
REMARK    1  A    between atoms: N_1  and  S_2
REMARK    2  A    between atoms: S_2  and  C_5
REMARK    3  A    between atoms: C_8  and  N_9
REMARK    4  A    between atoms: C_16  and  C_17
REMARK                            x       y       z     vdW  Elec       q    Type
REMARK                         _______ _______ _______ _____ _____    ______ ____
ROOT
ATOM      1  N   UNL     1       2.443   5.792  20.010  0.00  0.00    +0.000 N 
ATOM      2  N   UNL     1       1.970   5.136  21.118  0.00  0.00    +0.000 NA
ATOM      3  C   UNL     1       2.429   3.888  21.004  0.00  0.00    +0.000 A 
ATOM      4  C   UNL     1       3.228   3.730  19.877  0.00  0.00    +0.000 A 
ATOM      5  C   UNL     1       3.959   2.635  19.317  0.00  0.00    +0.000 A 
ATOM      6  O   UNL     1       3.989   1.506  19.790  0.00  0.00    +0.000 OA
ATOM      7  N   UNL     1       4.646   2.985  18.176  0.00  0.00    +0.000 N 
ATOM      8  C   UNL     1       4.664   4.268  17.636  0.00  0.00    +0.000 A 
ATOM      9  N   UNL     1       3.997   5.269  18.146  0.00  0.00    +0.000 NA
ATOM     10  C   UNL     1       3.272   4.957  19.259  0.00  0.00    +0.000 A 
ATOM     11  H   UNL     1       5.216   2.245  17.792  0.00  0.00    +0.000 HD
ENDROOT
BRANCH   8  12
ATOM     12  C   UNL     1       5.537   4.463  16.447  0.00  0.00    +0.000 A 
ATOM     13  C   UNL     1       6.781   5.100  16.552  0.00  0.00    +0.000 A 
ATOM     14  C   UNL     1       7.543   5.342  15.405  0.00  0.00    +0.000 A 
ATOM     15  C   UNL     1       7.067   4.937  14.159  0.00  0.00    +0.000 A 
ATOM     16 BR   UNL     1       8.080   5.306  12.606  0.00  0.00    +0.000 Br
ATOM     17  C   UNL     1       5.849   4.269  14.049  0.00  0.00    +0.000 A 
ATOM     18  C   UNL     1       5.086   4.026  15.195  0.00  0.00    +0.000 A 
ENDBRANCH   8  12
BRANCH   1  22
ATOM     19  C   UNL     1       1.198   9.765  19.306  0.00  0.00    +0.000 A 
ATOM     20  C   UNL     1       0.971   9.180  20.552  0.00  0.00    +0.000 A 
ATOM     21  C   UNL     1       1.391   7.866  20.776  0.00  0.00    +0.000 A 
ATOM     22  C   UNL     1       2.038   7.136  19.758  0.00  0.00    +0.000 A 
ATOM     23  C   UNL     1       2.247   7.740  18.512  0.00  0.00    +0.000 A 
ATOM     24  C   UNL     1       1.824   9.051  18.285  0.00  0.00    +0.000 A 
BRANCH  19  25
ATOM     25  S   UNL     1       0.736  11.445  19.018  0.00  0.00    +0.000 S 
ATOM     26  O   UNL     1       0.994  12.214  20.212  0.00  0.00    +0.000 OA
ATOM     27  O   UNL     1      -0.532  11.482  18.326  0.00  0.00    +0.000 OA
BRANCH  25  28
ATOM     28  N   UNL     1       1.868  11.927  17.876  0.00  0.00    +0.000 NA
ATOM     29  H   UNL     1       1.742  11.379  17.024  0.00  0.00    +0.000 HD
ATOM     30  H   UNL     1       2.807  11.871  18.268  0.00  0.00    +0.000 HD
ENDBRANCH  25  28
ENDBRANCH  19  25
ENDBRANCH   1  22
TORSDOF 4
ENDMDL
MODEL 2
REMARK VINA RESULT:      -8.0      0.799      1.284
REMARK  Name = 
REMARK  4 active torsions:
REMARK  status: ('A' for Active; 'I' for Inactive)
REMARK    1  A    between atoms: N_1  and  S_2
REMARK    2  A    between atoms: S_2  and  C_5
REMARK    3  A    between atoms: C_8  and  N_9
REMARK    4  A    between atoms: C_16  and  C_17
REMARK                            x       y       z     vdW  Elec       q    Type
REMARK                         _______ _______ _______ _____ _____    ______ ____
ROOT
ATOM      1  N   UNL     1       2.409   5.652  20.103  0.00  0.00    +0.000 N 
ATOM      2  N   UNL     1       1.983   4.922  21.183  0.00  0.00    +0.000 NA
ATOM      3  C   UNL     1       2.436   3.685  20.966  0.00  0.00    +0.000 A 
ATOM      4  C   UNL     1       3.186   3.605  19.798  0.00  0.00    +0.000 A 
ATOM      5  C   UNL     1       3.891   2.551  19.135  0.00  0.00    +0.000 A 
ATOM      6  O   UNL     1       3.941   1.394  19.529  0.00  0.00    +0.000 OA
ATOM      7  N   UNL     1       4.530   2.979  17.993  0.00  0.00    +0.000 N 
ATOM      8  C   UNL     1       4.526   4.295  17.540  0.00  0.00    +0.000 A 
ATOM      9  N   UNL     1       3.882   5.259  18.144  0.00  0.00    +0.000 NA
ATOM     10  C   UNL     1       3.205   4.871  19.263  0.00  0.00    +0.000 A 
ATOM     11  H   UNL     1       5.083   2.267  17.536  0.00  0.00    +0.000 HD
ENDROOT
BRANCH   8  12
ATOM     12  C   UNL     1       5.348   4.572  16.331  0.00  0.00    +0.000 A 
ATOM     13  C   UNL     1       5.130   3.891  15.127  0.00  0.00    +0.000 A 
ATOM     14  C   UNL     1       5.971   4.114  14.033  0.00  0.00    +0.000 A 
ATOM     15  C   UNL     1       7.019   5.026  14.139  0.00  0.00    +0.000 A 
ATOM     16 BR   UNL     1       8.181   5.292  12.672  0.00  0.00    +0.000 Br
ATOM     17  C   UNL     1       7.221   5.738  15.321  0.00  0.00    +0.000 A 
ATOM     18  C   UNL     1       6.381   5.516  16.415  0.00  0.00    +0.000 A 
ENDBRANCH   8  12
BRANCH   1  22
ATOM     19  C   UNL     1       1.138   9.661  19.721  0.00  0.00    +0.000 A 
ATOM     20  C   UNL     1       0.953   8.989  20.929  0.00  0.00    +0.000 A 
ATOM     21  C   UNL     1       1.380   7.663  21.046  0.00  0.00    +0.000 A 
ATOM     22  C   UNL     1       1.995   7.009  19.959  0.00  0.00    +0.000 A 
ATOM     23  C   UNL     1       2.163   7.700  18.753  0.00  0.00    +0.000 A 
ATOM     24  C   UNL     1       1.731   9.022  18.632  0.00  0.00    +0.000 A 
BRANCH  19  25
ATOM     25  S   UNL     1       0.665  11.355  19.566  0.00  0.00    +0.000 S 
ATOM     26  O   UNL     1      -0.772  11.434  19.464  0.00  0.00    +0.000 OA
ATOM     27  O   UNL     1       1.551  12.017  18.636  0.00  0.00    +0.000 OA
BRANCH  25  28
ATOM     28  N   UNL     1       1.078  11.971  21.073  0.00  0.00    +0.000 NA
ATOM     29  H   UNL     1       1.934  11.519  21.399  0.00  0.00    +0.000 HD
ATOM     30  H   UNL     1       0.293  11.881  21.716  0.00  0.00    +0.000 HD
ENDBRANCH  25  28
ENDBRANCH  19  25
ENDBRANCH   1  22
TORSDOF 4
ENDMDL
MODEL 3
REMARK VINA RESULT:      -8.0      0.712      1.508
REMARK  Name = 
REMARK  4 active torsions:
REMARK  status: ('A' for Active; 'I' for Inactive)
REMARK    1  A    between atoms: N_1  and  S_2
REMARK    2  A    between atoms: S_2  and  C_5
REMARK    3  A    between atoms: C_8  and  N_9
REMARK    4  A    between atoms: C_16  and  C_17
REMARK                            x       y       z     vdW  Elec       q    Type
REMARK                         _______ _______ _______ _____ _____    ______ ____
ROOT
ATOM      1  N   UNL     1       2.455   5.706  20.093  0.00  0.00    +0.000 N 
ATOM      2  N   UNL     1       2.068   5.010  21.210  0.00  0.00    +0.000 NA
ATOM      3  C   UNL     1       2.564   3.783  21.045  0.00  0.00    +0.000 A 
ATOM      4  C   UNL     1       3.305   3.678  19.873  0.00  0.00    +0.000 A 
ATOM      5  C   UNL     1       4.044   2.622  19.250  0.00  0.00    +0.000 A 
ATOM      6  O   UNL     1       4.141   1.486  19.697  0.00  0.00    +0.000 OA
ATOM      7  N   UNL     1       4.655   3.020  18.082  0.00  0.00    +0.000 N 
ATOM      8  C   UNL     1       4.596   4.313  17.570  0.00  0.00    +0.000 A 
ATOM      9  N   UNL     1       3.923   5.279  18.137  0.00  0.00    +0.000 NA
ATOM     10  C   UNL     1       3.271   4.917  19.280  0.00  0.00    +0.000 A 
ATOM     11  H   UNL     1       5.229   2.309  17.652  0.00  0.00    +0.000 HD
ENDROOT
BRANCH   8  12
ATOM     12  C   UNL     1       5.395   4.564  16.341  0.00  0.00    +0.000 A 
ATOM     13  C   UNL     1       5.021   4.026  15.102  0.00  0.00    +0.000 A 
ATOM     14  C   UNL     1       5.835   4.212  13.982  0.00  0.00    +0.000 A 
ATOM     15  C   UNL     1       7.015   4.946  14.097  0.00  0.00    +0.000 A 
ATOM     16 BR   UNL     1       8.136   5.157  12.590  0.00  0.00    +0.000 Br
ATOM     17  C   UNL     1       7.377   5.519  15.315  0.00  0.00    +0.000 A 
ATOM     18  C   UNL     1       6.563   5.333  16.437  0.00  0.00    +0.000 A 
ENDBRANCH   8  12
BRANCH   1  22
ATOM     19  C   UNL     1       1.120   9.662  19.458  0.00  0.00    +0.000 A 
ATOM     20  C   UNL     1       1.763   8.975  18.428  0.00  0.00    +0.000 A 
ATOM     21  C   UNL     1       2.198   7.665  18.647  0.00  0.00    +0.000 A 
ATOM     22  C   UNL     1       1.988   7.039  19.893  0.00  0.00    +0.000 A 
ATOM     23  C   UNL     1       1.349   7.750  20.915  0.00  0.00    +0.000 A 
ATOM     24  C   UNL     1       0.919   9.060  20.701  0.00  0.00    +0.000 A 
BRANCH  19  25
ATOM     25  S   UNL     1       0.504  11.294  19.187  0.00  0.00    +0.000 S 
ATOM     26  O   UNL     1       1.561  12.108  18.635  0.00  0.00    +0.000 OA
ATOM     27  O   UNL     1      -0.282  11.705  20.327  0.00  0.00    +0.000 OA
BRANCH  25  28
ATOM     28  N   UNL     1      -0.611  11.046  17.956  0.00  0.00    +0.000 NA
ATOM     29  H   UNL     1      -1.288  10.341  18.251  0.00  0.00    +0.000 HD
ATOM     30  H   UNL     1      -0.129  10.818  17.087  0.00  0.00    +0.000 HD
ENDBRANCH  25  28
ENDBRANCH  19  25
ENDBRANCH   1  22
TORSDOF 4
ENDMDL
MODEL 4
REMARK VINA RESULT:      -7.7      0.923      1.464
REMARK  Name = 
REMARK  4 active torsions:
REMARK  status: ('A' for Active; 'I' for Inactive)
REMARK    1  A    between atoms: N_1  and  S_2
REMARK    2  A    between atoms: S_2  and  C_5
REMARK    3  A    between atoms: C_8  and  N_9
REMARK    4  A    between atoms: C_16  and  C_17
REMARK                            x       y       z     vdW  Elec       q    Type
REMARK                         _______ _______ _______ _____ _____    ______ ____
ROOT
ATOM      1  N   UNL     1       1.978   6.488  19.953  0.00  0.00    +0.000 N 
ATOM      2  N   UNL     1       1.426   5.895  21.060  0.00  0.00    +0.000 NA
ATOM      3  C   UNL     1       1.732   4.601  20.950  0.00  0.00    +0.000 A 
ATOM      4  C   UNL     1       2.510   4.347  19.826  0.00  0.00    +0.000 A 
ATOM      5  C   UNL     1       3.106   3.170  19.270  0.00  0.00    +0.000 A 
ATOM      6  O   UNL     1       3.000   2.047  19.745  0.00  0.00    +0.000 OA
ATOM      7  N   UNL     1       3.835   3.433  18.131  0.00  0.00    +0.000 N 
ATOM      8  C   UNL     1       4.008   4.704  17.589  0.00  0.00    +0.000 A 
ATOM      9  N   UNL     1       3.464   5.779  18.095  0.00  0.00    +0.000 NA
ATOM     10  C   UNL     1       2.703   5.558  19.206  0.00  0.00    +0.000 A 
ATOM     11  H   UNL     1       4.313   2.629  17.750  0.00  0.00    +0.000 HD
ENDROOT
BRANCH   8  12
ATOM     12  C   UNL     1       4.902   4.791  16.403  0.00  0.00    +0.000 A 
ATOM     13  C   UNL     1       5.421   3.641  15.793  0.00  0.00    +0.000 A 
ATOM     14  C   UNL     1       6.323   3.757  14.732  0.00  0.00    +0.000 A 
ATOM     15  C   UNL     1       6.695   5.021  14.274  0.00  0.00    +0.000 A 
ATOM     16 BR   UNL     1       7.949   5.173  12.868  0.00  0.00    +0.000 Br
ATOM     17  C   UNL     1       6.155   6.170  14.849  0.00  0.00    +0.000 A 
ATOM     18  C   UNL     1       5.253   6.055  15.910  0.00  0.00    +0.000 A 
ENDBRANCH   8  12
BRANCH   1  22
ATOM     19  C   UNL     1       1.315  10.581  19.156  0.00  0.00    +0.000 A 
ATOM     20  C   UNL     1       1.856   9.763  18.164  0.00  0.00    +0.000 A 
ATOM     21  C   UNL     1       2.068   8.408  18.437  0.00  0.00    +0.000 A 
ATOM     22  C   UNL     1       1.738   7.870  19.698  0.00  0.00    +0.000 A 
ATOM     23  C   UNL     1       1.205   8.713  20.681  0.00  0.00    +0.000 A 
ATOM     24  C   UNL     1       0.998  10.066  20.413  0.00  0.00    +0.000 A 
BRANCH  19  25
ATOM     25  S   UNL     1       0.978  12.281  18.816  0.00  0.00    +0.000 S 
ATOM     26  O   UNL     1       1.403  13.078  19.942  0.00  0.00    +0.000 OA
ATOM     27  O   UNL     1      -0.336  12.401  18.228  0.00  0.00    +0.000 OA
BRANCH  25  28
ATOM     28  N   UNL     1       2.047  12.605  17.562  0.00  0.00    +0.000 NA
ATOM     29  H   UNL     1       2.974  12.259  17.812  0.00  0.00    +0.000 HD
ATOM     30  H   UNL     1       2.024  13.597  17.329  0.00  0.00    +0.000 HD
ENDBRANCH  25  28
ENDBRANCH  19  25
ENDBRANCH   1  22
TORSDOF 4
ENDMDL
MODEL 5
REMARK VINA RESULT:      -7.6      1.157      1.297
REMARK  Name = 
REMARK  4 active torsions:
REMARK  status: ('A' for Active; 'I' for Inactive)
REMARK    1  A    between atoms: N_1  and  S_2
REMARK    2  A    between atoms: S_2  and  C_5
REMARK    3  A    between atoms: C_8  and  N_9
REMARK    4  A    between atoms: C_16  and  C_17
REMARK                            x       y       z     vdW  Elec       q    Type
REMARK                         _______ _______ _______ _____ _____    ______ ____
ROOT
ATOM      1  N   UNL     1       2.015   6.582  19.958  0.00  0.00    +0.000 N 
ATOM      2  N   UNL     1       1.461   6.006  21.073  0.00  0.00    +0.000 NA
ATOM      3  C   UNL     1       1.799   4.717  21.003  0.00  0.00    +0.000 A 
ATOM      4  C   UNL     1       2.600   4.451  19.898  0.00  0.00    +0.000 A 
ATOM      5  C   UNL     1       3.232   3.274  19.382  0.00  0.00    +0.000 A 
ATOM      6  O   UNL     1       3.144   2.162  19.886  0.00  0.00    +0.000 OA
ATOM      7  N   UNL     1       3.971   3.524  18.248  0.00  0.00    +0.000 N 
ATOM      8  C   UNL     1       4.123   4.783  17.674  0.00  0.00    +0.000 A 
ATOM      9  N   UNL     1       3.546   5.859  18.143  0.00  0.00    +0.000 NA
ATOM     10  C   UNL     1       2.774   5.649  19.248  0.00  0.00    +0.000 A 
ATOM     11  H   UNL     1       4.474   2.722  17.896  0.00  0.00    +0.000 HD
ENDROOT
BRANCH   8  12
ATOM     12  C   UNL     1       5.033   4.860  16.500  0.00  0.00    +0.000 A 
ATOM     13  C   UNL     1       5.359   6.087  15.907  0.00  0.00    +0.000 A 
ATOM     14  C   UNL     1       6.150   6.121  14.755  0.00  0.00    +0.000 A 
ATOM     15  C   UNL     1       6.626   4.931  14.207  0.00  0.00    +0.000 A 
ATOM     16 BR   UNL     1       7.660   4.978  12.625  0.00  0.00    +0.000 Br
ATOM     17  C   UNL     1       6.340   3.708  14.811  0.00  0.00    +0.000 A 
ATOM     18  C   UNL     1       5.548   3.673  15.962  0.00  0.00    +0.000 A 
ENDBRANCH   8  12
BRANCH   1  22
ATOM     19  C   UNL     1       1.173  10.634  19.122  0.00  0.00    +0.000 A 
ATOM     20  C   UNL     1       0.871  10.110  20.379  0.00  0.00    +0.000 A 
ATOM     21  C   UNL     1       1.158   8.769  20.647  0.00  0.00    +0.000 A 
ATOM     22  C   UNL     1       1.747   7.951  19.662  0.00  0.00    +0.000 A 
ATOM     23  C   UNL     1       2.033   8.495  18.404  0.00  0.00    +0.000 A 
ATOM     24  C   UNL     1       1.743   9.833  18.132  0.00  0.00    +0.000 A 
BRANCH  19  25
ATOM     25  S   UNL     1       0.881  12.342  18.779  0.00  0.00    +0.000 S 
ATOM     26  O   UNL     1      -0.486  12.506  18.347  0.00  0.00    +0.000 OA
ATOM     27  O   UNL     1       2.002  12.881  18.043  0.00  0.00    +0.000 OA
BRANCH  25  28
ATOM     28  N   UNL     1       0.994  13.028  20.307  0.00  0.00    +0.000 NA
ATOM     29  H   UNL     1       0.136  13.544  20.509  0.00  0.00    +0.000 HD
ATOM     30  H   UNL     1       1.841  13.591  20.378  0.00  0.00    +0.000 HD
ENDBRANCH  25  28
ENDBRANCH  19  25
ENDBRANCH   1  22
TORSDOF 4
ENDMDL
MODEL 6
REMARK VINA RESULT:      -7.5      4.822      8.943
REMARK  Name = 
REMARK  4 active torsions:
REMARK  status: ('A' for Active; 'I' for Inactive)
REMARK    1  A    between atoms: N_1  and  S_2
REMARK    2  A    between atoms: S_2  and  C_5
REMARK    3  A    between atoms: C_8  and  N_9
REMARK    4  A    between atoms: C_16  and  C_17
REMARK                            x       y       z     vdW  Elec       q    Type
REMARK                         _______ _______ _______ _____ _____    ______ ____
ROOT
ATOM      1  N   UNL     1       0.466  11.174  18.790  0.00  0.00    +0.000 N 
ATOM      2  N   UNL     1      -0.888  11.284  18.593  0.00  0.00    +0.000 NA
ATOM      3  C   UNL     1      -1.136  12.595  18.610  0.00  0.00    +0.000 A 
ATOM      4  C   UNL     1       0.027  13.340  18.763  0.00  0.00    +0.000 A 
ATOM      5  C   UNL     1       0.314  14.741  18.825  0.00  0.00    +0.000 A 
ATOM      6  O   UNL     1      -0.529  15.626  18.763  0.00  0.00    +0.000 OA
ATOM      7  N   UNL     1       1.661  15.001  18.952  0.00  0.00    +0.000 N 
ATOM      8  C   UNL     1       2.647  14.019  18.986  0.00  0.00    +0.000 A 
ATOM      9  N   UNL     1       2.387  12.740  18.930  0.00  0.00    +0.000 NA
ATOM     10  C   UNL     1       1.060  12.437  18.839  0.00  0.00    +0.000 A 
ATOM     11  H   UNL     1       1.896  15.983  18.941  0.00  0.00    +0.000 HD
ENDROOT
BRANCH   8  12
ATOM     12  C   UNL     1       4.052  14.507  19.041  0.00  0.00    +0.000 A 
ATOM     13  C   UNL     1       4.855  14.553  17.894  0.00  0.00    +0.000 A 
ATOM     14  C   UNL     1       6.195  14.939  17.992  0.00  0.00    +0.000 A 
ATOM     15  C   UNL     1       6.726  15.290  19.232  0.00  0.00    +0.000 A 
ATOM     16 BR   UNL     1       8.550  15.768  19.366  0.00  0.00    +0.000 Br
ATOM     17  C   UNL     1       5.925  15.285  20.372  0.00  0.00    +0.000 A 
ATOM     18  C   UNL     1       4.585  14.899  20.276  0.00  0.00    +0.000 A 
ENDBRANCH   8  12
BRANCH   1  22
ATOM     19  C   UNL     1       2.225   7.369  19.297  0.00  0.00    +0.000 A 
ATOM     20  C   UNL     1       1.593   7.988  20.376  0.00  0.00    +0.000 A 
ATOM     21  C   UNL     1       1.011   9.246  20.196  0.00  0.00    +0.000 A 
ATOM     22  C   UNL     1       1.056   9.885  18.940  0.00  0.00    +0.000 A 
ATOM     23  C   UNL     1       1.703   9.249  17.874  0.00  0.00    +0.000 A 
ATOM     24  C   UNL     1       2.291   7.996  18.052  0.00  0.00    +0.000 A 
BRANCH  19  25
ATOM     25  S   UNL     1       2.912   5.753  19.480  0.00  0.00    +0.000 S 
ATOM     26  O   UNL     1       4.352   5.855  19.498  0.00  0.00    +0.000 OA
ATOM     27  O   UNL     1       2.206   4.831  18.620  0.00  0.00    +0.000 OA
BRANCH  25  28
ATOM     28  N   UNL     1       2.436   5.346  21.038  0.00  0.00    +0.000 NA
ATOM     29  H   UNL     1       2.772   6.056  21.690  0.00  0.00    +0.000 HD
ATOM     30  H   UNL     1       2.743   4.400  21.263  0.00  0.00    +0.000 HD
ENDBRANCH  25  28
ENDBRANCH  19  25
ENDBRANCH   1  22
TORSDOF 4
ENDMDL
MODEL 7
REMARK VINA RESULT:      -7.3      4.889      9.006
REMARK  Name = 
REMARK  4 active torsions:
REMARK  status: ('A' for Active; 'I' for Inactive)
REMARK    1  A    between atoms: N_1  and  S_2
REMARK    2  A    between atoms: S_2  and  C_5
REMARK    3  A    between atoms: C_8  and  N_9
REMARK    4  A    between atoms: C_16  and  C_17
REMARK                            x       y       z     vdW  Elec       q    Type
REMARK                         _______ _______ _______ _____ _____    ______ ____
ROOT
ATOM      1  N   UNL     1       0.480  11.224  18.843  0.00  0.00    +0.000 N 
ATOM      2  N   UNL     1      -0.875  11.338  18.665  0.00  0.00    +0.000 NA
ATOM      3  C   UNL     1      -1.118  12.650  18.677  0.00  0.00    +0.000 A 
ATOM      4  C   UNL     1       0.050  13.392  18.809  0.00  0.00    +0.000 A 
ATOM      5  C   UNL     1       0.344  14.792  18.859  0.00  0.00    +0.000 A 
ATOM      6  O   UNL     1      -0.497  15.680  18.804  0.00  0.00    +0.000 OA
ATOM      7  N   UNL     1       1.693  15.047  18.966  0.00  0.00    +0.000 N 
ATOM      8  C   UNL     1       2.676  14.062  18.991  0.00  0.00    +0.000 A 
ATOM      9  N   UNL     1       2.410  12.783  18.946  0.00  0.00    +0.000 NA
ATOM     10  C   UNL     1       1.080  12.485  18.875  0.00  0.00    +0.000 A 
ATOM     11  H   UNL     1       1.932  16.028  18.945  0.00  0.00    +0.000 HD
ENDROOT
BRANCH   8  12
ATOM     12  C   UNL     1       4.083  14.544  19.023  0.00  0.00    +0.000 A 
ATOM     13  C   UNL     1       4.618  15.159  20.163  0.00  0.00    +0.000 A 
ATOM     14  C   UNL     1       5.917  15.675  20.136  0.00  0.00    +0.000 A 
ATOM     15  C   UNL     1       6.683  15.564  18.976  0.00  0.00    +0.000 A 
ATOM     16 BR   UNL     1       8.422  16.303  18.929  0.00  0.00    +0.000 Br
ATOM     17  C   UNL     1       6.173  14.920  17.850  0.00  0.00    +0.000 A 
ATOM     18  C   UNL     1       4.875  14.404  17.875  0.00  0.00    +0.000 A 
ENDBRANCH   8  12
BRANCH   1  22
ATOM     19  C   UNL     1       2.209   7.391  19.226  0.00  0.00    +0.000 A 
ATOM     20  C   UNL     1       2.274   8.060  18.003  0.00  0.00    +0.000 A 
ATOM     21  C   UNL     1       1.702   9.330  17.888  0.00  0.00    +0.000 A 
ATOM     22  C   UNL     1       1.068   9.934  18.993  0.00  0.00    +0.000 A 
ATOM     23  C   UNL     1       1.007   9.241  20.208  0.00  0.00    +0.000 A 
ATOM     24  C   UNL     1       1.573   7.970  20.324  0.00  0.00    +0.000 A 
BRANCH  19  25
ATOM     25  S   UNL     1       2.980   5.814  19.416  0.00  0.00    +0.000 S 
ATOM     26  O   UNL     1       4.410   5.997  19.491  0.00  0.00    +0.000 OA
ATOM     27  O   UNL     1       2.361   4.866  18.517  0.00  0.00    +0.000 OA
BRANCH  25  28
ATOM     28  N   UNL     1       2.468   5.358  20.949  0.00  0.00    +0.000 NA
ATOM     29  H   UNL     1       1.922   6.115  21.361  0.00  0.00    +0.000 HD
ATOM     30  H   UNL     1       3.266   5.069  21.514  0.00  0.00    +0.000 HD
ENDBRANCH  25  28
ENDBRANCH  19  25
ENDBRANCH   1  22
TORSDOF 4
ENDMDL
MODEL 8
REMARK VINA RESULT:      -7.3      4.903      8.970
REMARK  Name = 
REMARK  4 active torsions:
REMARK  status: ('A' for Active; 'I' for Inactive)
REMARK    1  A    between atoms: N_1  and  S_2
REMARK    2  A    between atoms: S_2  and  C_5
REMARK    3  A    between atoms: C_8  and  N_9
REMARK    4  A    between atoms: C_16  and  C_17
REMARK                            x       y       z     vdW  Elec       q    Type
REMARK                         _______ _______ _______ _____ _____    ______ ____
ROOT
ATOM      1  N   UNL     1       0.495  11.207  18.778  0.00  0.00    +0.000 N 
ATOM      2  N   UNL     1      -0.853  11.323  18.552  0.00  0.00    +0.000 NA
ATOM      3  C   UNL     1      -1.095  12.635  18.560  0.00  0.00    +0.000 A 
ATOM      4  C   UNL     1       0.069  13.375  18.736  0.00  0.00    +0.000 A 
ATOM      5  C   UNL     1       0.363  14.775  18.799  0.00  0.00    +0.000 A 
ATOM      6  O   UNL     1      -0.474  15.664  18.717  0.00  0.00    +0.000 OA
ATOM      7  N   UNL     1       1.708  15.027  18.955  0.00  0.00    +0.000 N 
ATOM      8  C   UNL     1       2.688  14.041  19.012  0.00  0.00    +0.000 A 
ATOM      9  N   UNL     1       2.422  12.762  18.954  0.00  0.00    +0.000 NA
ATOM     10  C   UNL     1       1.095  12.466  18.836  0.00  0.00    +0.000 A 
ATOM     11  H   UNL     1       1.948  16.008  18.946  0.00  0.00    +0.000 HD
ENDROOT
BRANCH   8  12
ATOM     12  C   UNL     1       4.093  14.521  19.096  0.00  0.00    +0.000 A 
ATOM     13  C   UNL     1       4.638  14.979  20.303  0.00  0.00    +0.000 A 
ATOM     14  C   UNL     1       5.935  15.500  20.333  0.00  0.00    +0.000 A 
ATOM     15  C   UNL     1       6.689  15.550  19.161  0.00  0.00    +0.000 A 
ATOM     16 BR   UNL     1       8.425  16.297  19.199  0.00  0.00    +0.000 Br
ATOM     17  C   UNL     1       6.170  15.061  17.964  0.00  0.00    +0.000 A 
ATOM     18  C   UNL     1       4.874  14.541  17.932  0.00  0.00    +0.000 A 
ENDBRANCH   8  12
BRANCH   1  22
ATOM     19  C   UNL     1       2.223   7.394  19.334  0.00  0.00    +0.000 A 
ATOM     20  C   UNL     1       1.570   8.019  20.396  0.00  0.00    +0.000 A 
ATOM     21  C   UNL     1       0.998   9.280  20.201  0.00  0.00    +0.000 A 
ATOM     22  C   UNL     1       1.075   9.915  18.945  0.00  0.00    +0.000 A 
ATOM     23  C   UNL     1       1.743   9.273  17.895  0.00  0.00    +0.000 A 
ATOM     24  C   UNL     1       2.319   8.017  18.089  0.00  0.00    +0.000 A 
BRANCH  19  25
ATOM     25  S   UNL     1       2.897   5.775  19.536  0.00  0.00    +0.000 S 
ATOM     26  O   UNL     1       2.288   5.153  20.687  0.00  0.00    +0.000 OA
ATOM     27  O   UNL     1       4.328   5.824  19.342  0.00  0.00    +0.000 OA
BRANCH  25  28
ATOM     28  N   UNL     1       2.303   4.978  18.183  0.00  0.00    +0.000 NA
ATOM     29  H   UNL     1       1.285   4.919  18.246  0.00  0.00    +0.000 HD
ATOM     30  H   UNL     1       2.763   4.074  18.077  0.00  0.00    +0.000 HD
ENDBRANCH  25  28
ENDBRANCH  19  25
ENDBRANCH   1  22
TORSDOF 4
ENDMDL
MODEL 9
REMARK VINA RESULT:      -7.2      5.283      8.338
REMARK  Name = 
REMARK  4 active torsions:
REMARK  status: ('A' for Active; 'I' for Inactive)
REMARK    1  A    between atoms: N_1  and  S_2
REMARK    2  A    between atoms: S_2  and  C_5
REMARK    3  A    between atoms: C_8  and  N_9
REMARK    4  A    between atoms: C_16  and  C_17
REMARK                            x       y       z     vdW  Elec       q    Type
REMARK                         _______ _______ _______ _____ _____    ______ ____
ROOT
ATOM      1  N   UNL     1       1.439  14.214  19.012  0.00  0.00    +0.000 N 
ATOM      2  N   UNL     1       0.432  15.144  19.062  0.00  0.00    +0.000 NA
ATOM      3  C   UNL     1      -0.697  14.441  18.961  0.00  0.00    +0.000 A 
ATOM      4  C   UNL     1      -0.452  13.074  18.897  0.00  0.00    +0.000 A 
ATOM      5  C   UNL     1      -1.284  11.913  18.804  0.00  0.00    +0.000 A 
ATOM      6  O   UNL     1      -2.506  11.938  18.739  0.00  0.00    +0.000 OA
ATOM      7  N   UNL     1      -0.560  10.741  18.806  0.00  0.00    +0.000 N 
ATOM      8  C   UNL     1       0.825  10.677  18.919  0.00  0.00    +0.000 A 
ATOM      9  N   UNL     1       1.587  11.735  19.004  0.00  0.00    +0.000 NA
ATOM     10  C   UNL     1       0.912  12.921  18.970  0.00  0.00    +0.000 A 
ATOM     11  H   UNL     1      -1.127   9.905  18.798  0.00  0.00    +0.000 HD
ENDROOT
BRANCH   8  12
ATOM     12  C   UNL     1       1.412   9.312  18.988  0.00  0.00    +0.000 A 
ATOM     13  C   UNL     1       1.345   8.546  20.160  0.00  0.00    +0.000 A 
ATOM     14  C   UNL     1       1.976   7.301  20.221  0.00  0.00    +0.000 A 
ATOM     15  C   UNL     1       2.661   6.816  19.108  0.00  0.00    +0.000 A 
ATOM     16 BR   UNL     1       3.551   5.151  19.209  0.00  0.00    +0.000 Br
ATOM     17  C   UNL     1       2.701   7.552  17.925  0.00  0.00    +0.000 A 
ATOM     18  C   UNL     1       2.070   8.798  17.863  0.00  0.00    +0.000 A 
ENDBRANCH   8  12
BRANCH   1  22
ATOM     19  C   UNL     1       5.469  15.464  18.861  0.00  0.00    +0.000 A 
ATOM     20  C   UNL     1       4.718  15.407  17.687  0.00  0.00    +0.000 A 
ATOM     21  C   UNL     1       3.384  14.996  17.748  0.00  0.00    +0.000 A 
ATOM     22  C   UNL     1       2.798  14.643  18.981  0.00  0.00    +0.000 A 
ATOM     23  C   UNL     1       3.573  14.699  20.146  0.00  0.00    +0.000 A 
ATOM     24  C   UNL     1       4.907  15.104  20.086  0.00  0.00    +0.000 A 
BRANCH  19  25
ATOM     25  S   UNL     1       7.137  16.041  18.819  0.00  0.00    +0.000 S 
ATOM     26  O   UNL     1       7.842  15.520  19.966  0.00  0.00    +0.000 OA
ATOM     27  O   UNL     1       7.151  17.443  18.466  0.00  0.00    +0.000 OA
BRANCH  25  28
ATOM     28  N   UNL     1       7.748  15.248  17.472  0.00  0.00    +0.000 NA
ATOM     29  H   UNL     1       8.746  15.445  17.388  0.00  0.00    +0.000 HD
ATOM     30  H   UNL     1       7.207  15.495  16.644  0.00  0.00    +0.000 HD
ENDBRANCH  25  28
ENDBRANCH  19  25
ENDBRANCH   1  22
TORSDOF 4
ENDMDL
