MODEL 1
REMARK VINA RESULT:      -7.7      0.000      0.000
REMARK  Name = 
REMARK  5 active torsions:
REMARK  status: ('A' for Active; 'I' for Inactive)
REMARK    1  A    between atoms: C_1  and  O_2
REMARK    2  A    between atoms: O_2  and  N_3
REMARK    3  A    between atoms: N_3  and  C_4
REMARK    4  A    between atoms: N_3  and  S_5
REMARK    5  A    between atoms: S_5  and  C_8
REMARK                            x       y       z     vdW  Elec       q    Type
REMARK                         _______ _______ _______ _____ _____    ______ ____
ROOT
ATOM      1  C   UNL     1       5.162   5.518  17.072  0.00  0.00    +0.000 A 
ATOM      2  C   UNL     1       4.013   6.198  17.481  0.00  0.00    +0.000 A 
ATOM      3  C   UNL     1       3.193   5.638  18.481  0.00  0.00    +0.000 A 
ATOM      4  C   UNL     1       3.523   4.419  19.093  0.00  0.00    +0.000 A 
ATOM      5  C   UNL     1       4.761   3.827  18.725  0.00  0.00    +0.000 A 
ATOM      6  C   UNL     1       5.551   4.333  17.696  0.00  0.00    +0.000 A 
ATOM      7  N   UNL     1       5.267   2.740  19.472  0.00  0.00    +0.000 N 
ATOM      8  C   UNL     1       4.581   2.201  20.535  0.00  0.00    +0.000 C 
ATOM      9  O   UNL     1       5.127   1.447  21.336  0.00  0.00    +0.000 OA
ATOM     10  C   UNL     1       3.085   2.471  20.500  0.00  0.00    +0.000 C 
ATOM     11  C   UNL     1       2.322   2.379  21.812  0.00  0.00    +0.000 C 
ATOM     12  C   UNL     1       0.982   2.970  21.371  0.00  0.00    +0.000 C 
ATOM     13  C   UNL     1       1.389   4.168  20.486  0.00  0.00    +0.000 C 
ATOM     14  N   UNL     1       2.739   3.827  20.051  0.00  0.00    +0.000 N 
ATOM     15  H   UNL     1       6.231   2.456  19.360  0.00  0.00    +0.000 HD
ENDROOT
BRANCH   1  16
ATOM     16  S   UNL     1       6.132   6.124  15.708  0.00  0.00    +0.000 S 
ATOM     17  O   UNL     1       7.387   6.607  16.254  0.00  0.00    +0.000 OA
ATOM     18  O   UNL     1       5.256   6.980  14.941  0.00  0.00    +0.000 OA
BRANCH  16  19
ATOM     19  N   UNL     1       6.482   4.690  14.778  0.00  0.00    +0.000 NA
ATOM     20  C   UNL     1       7.511   4.899  13.731  0.00  0.00    +0.000 C 
BRANCH  19  22
ATOM     21  C   UNL     1       5.320   3.667  12.982  0.00  0.00    +0.000 C 
ATOM     22  O   UNL     1       5.179   4.283  14.258  0.00  0.00    +0.000 OA
ENDBRANCH  19  22
ENDBRANCH  16  19
ENDBRANCH   1  16
TORSDOF 3
ENDMDL
MODEL 2
REMARK VINA RESULT:      -7.5      1.168      1.393
REMARK  Name = 
REMARK  5 active torsions:
REMARK  status: ('A' for Active; 'I' for Inactive)
REMARK    1  A    between atoms: C_1  and  O_2
REMARK    2  A    between atoms: O_2  and  N_3
REMARK    3  A    between atoms: N_3  and  C_4
REMARK    4  A    between atoms: N_3  and  S_5
REMARK    5  A    between atoms: S_5  and  C_8
REMARK                            x       y       z     vdW  Elec       q    Type
REMARK                         _______ _______ _______ _____ _____    ______ ____
ROOT
ATOM      1  C   UNL     1       5.861   5.186  17.324  0.00  0.00    +0.000 A 
ATOM      2  C   UNL     1       4.700   5.962  17.327  0.00  0.00    +0.000 A 
ATOM      3  C   UNL     1       3.590   5.550  18.093  0.00  0.00    +0.000 A 
ATOM      4  C   UNL     1       3.639   4.383  18.873  0.00  0.00    +0.000 A 
ATOM      5  C   UNL     1       4.880   3.694  18.926  0.00  0.00    +0.000 A 
ATOM      6  C   UNL     1       5.964   4.052  18.129  0.00  0.00    +0.000 A 
ATOM      7  N   UNL     1       5.069   2.664  19.874  0.00  0.00    +0.000 N 
ATOM      8  C   UNL     1       4.071   2.272  20.736  0.00  0.00    +0.000 C 
ATOM      9  O   UNL     1       4.309   1.576  21.719  0.00  0.00    +0.000 OA
ATOM     10  C   UNL     1       2.672   2.613  20.250  0.00  0.00    +0.000 C 
ATOM     11  C   UNL     1       1.566   2.695  21.291  0.00  0.00    +0.000 C 
ATOM     12  C   UNL     1       0.455   3.306  20.436  0.00  0.00    +0.000 C 
ATOM     13  C   UNL     1       1.186   4.385  19.608  0.00  0.00    +0.000 C 
ATOM     14  N   UNL     1       2.573   3.933  19.610  0.00  0.00    +0.000 N 
ATOM     15  H   UNL     1       6.000   2.321  20.067  0.00  0.00    +0.000 HD
ENDROOT
BRANCH   1  16
ATOM     16  S   UNL     1       7.219   5.599  16.251  0.00  0.00    +0.000 S 
ATOM     17  O   UNL     1       8.201   4.537  16.371  0.00  0.00    +0.000 OA
ATOM     18  O   UNL     1       7.551   6.977  16.536  0.00  0.00    +0.000 OA
BRANCH  16  19
ATOM     19  N   UNL     1       6.531   5.500  14.651  0.00  0.00    +0.000 NA
ATOM     20  C   UNL     1       5.702   4.290  14.437  0.00  0.00    +0.000 C 
BRANCH  19  22
ATOM     21  C   UNL     1       7.496   4.792  12.604  0.00  0.00    +0.000 C 
ATOM     22  O   UNL     1       7.690   5.592  13.765  0.00  0.00    +0.000 OA
ENDBRANCH  19  22
ENDBRANCH  16  19
ENDBRANCH   1  16
TORSDOF 3
ENDMDL
MODEL 3
REMARK VINA RESULT:      -7.4      1.243      2.031
REMARK  Name = 
REMARK  5 active torsions:
REMARK  status: ('A' for Active; 'I' for Inactive)
REMARK    1  A    between atoms: C_1  and  O_2
REMARK    2  A    between atoms: O_2  and  N_3
REMARK    3  A    between atoms: N_3  and  C_4
REMARK    4  A    between atoms: N_3  and  S_5
REMARK    5  A    between atoms: S_5  and  C_8
REMARK                            x       y       z     vdW  Elec       q    Type
REMARK                         _______ _______ _______ _____ _____    ______ ____
ROOT
ATOM      1  C   UNL     1       4.753   5.247  16.843  0.00  0.00    +0.000 A 
ATOM      2  C   UNL     1       3.630   5.938  17.303  0.00  0.00    +0.000 A 
ATOM      3  C   UNL     1       2.903   5.433  18.400  0.00  0.00    +0.000 A 
ATOM      4  C   UNL     1       3.302   4.257  19.056  0.00  0.00    +0.000 A 
ATOM      5  C   UNL     1       4.515   3.657  18.624  0.00  0.00    +0.000 A 
ATOM      6  C   UNL     1       5.210   4.108  17.505  0.00  0.00    +0.000 A 
ATOM      7  N   UNL     1       5.098   2.625  19.392  0.00  0.00    +0.000 N 
ATOM      8  C   UNL     1       4.509   2.145  20.539  0.00  0.00    +0.000 C 
ATOM      9  O   UNL     1       5.130   1.448  21.336  0.00  0.00    +0.000 OA
ATOM     10  C   UNL     1       3.011   2.396  20.610  0.00  0.00    +0.000 C 
ATOM     11  C   UNL     1       2.358   2.377  21.983  0.00  0.00    +0.000 C 
ATOM     12  C   UNL     1       0.978   2.924  21.618  0.00  0.00    +0.000 C 
ATOM     13  C   UNL     1       1.292   4.070  20.631  0.00  0.00    +0.000 C 
ATOM     14  N   UNL     1       2.607   3.717  20.108  0.00  0.00    +0.000 N 
ATOM     15  H   UNL     1       6.054   2.345  19.219  0.00  0.00    +0.000 HD
ENDROOT
BRANCH   1  16
ATOM     16  S   UNL     1       5.600   5.778  15.371  0.00  0.00    +0.000 S 
ATOM     17  O   UNL     1       5.104   7.102  15.043  0.00  0.00    +0.000 OA
ATOM     18  O   UNL     1       5.508   4.679  14.436  0.00  0.00    +0.000 OA
BRANCH  16  19
ATOM     19  N   UNL     1       7.258   5.950  15.884  0.00  0.00    +0.000 NA
ATOM     20  C   UNL     1       7.762   4.793  16.661  0.00  0.00    +0.000 C 
BRANCH  19  22
ATOM     21  C   UNL     1       7.724   7.007  17.955  0.00  0.00    +0.000 C 
ATOM     22  O   UNL     1       7.267   7.211  16.622  0.00  0.00    +0.000 OA
ENDBRANCH  19  22
ENDBRANCH  16  19
ENDBRANCH   1  16
TORSDOF 3
ENDMDL
MODEL 4
REMARK VINA RESULT:      -7.3      5.052      6.493
REMARK  Name = 
REMARK  5 active torsions:
REMARK  status: ('A' for Active; 'I' for Inactive)
REMARK    1  A    between atoms: C_1  and  O_2
REMARK    2  A    between atoms: O_2  and  N_3
REMARK    3  A    between atoms: N_3  and  C_4
REMARK    4  A    between atoms: N_3  and  S_5
REMARK    5  A    between atoms: S_5  and  C_8
REMARK                            x       y       z     vdW  Elec       q    Type
REMARK                         _______ _______ _______ _____ _____    ______ ____
ROOT
ATOM      1  C   UNL     1       2.587   7.165  18.621  0.00  0.00    +0.000 A 
ATOM      2  C   UNL     1       2.323   8.248  17.780  0.00  0.00    +0.000 A 
ATOM      3  C   UNL     1       1.566   9.335  18.264  0.00  0.00    +0.000 A 
ATOM      4  C   UNL     1       1.093   9.359  19.585  0.00  0.00    +0.000 A 
ATOM      5  C   UNL     1       1.488   8.289  20.432  0.00  0.00    +0.000 A 
ATOM      6  C   UNL     1       2.181   7.180  19.955  0.00  0.00    +0.000 A 
ATOM      7  N   UNL     1       1.256   8.374  21.823  0.00  0.00    +0.000 N 
ATOM      8  C   UNL     1       0.619   9.453  22.393  0.00  0.00    +0.000 C 
ATOM      9  O   UNL     1       0.652   9.650  23.604  0.00  0.00    +0.000 OA
ATOM     10  C   UNL     1      -0.258  10.230  21.425  0.00  0.00    +0.000 C 
ATOM     11  C   UNL     1      -0.593  11.670  21.779  0.00  0.00    +0.000 C 
ATOM     12  C   UNL     1      -1.224  12.118  20.460  0.00  0.00    +0.000 C 
ATOM     13  C   UNL     1      -0.301  11.499  19.388  0.00  0.00    +0.000 C 
ATOM     14  N   UNL     1       0.330  10.384  20.086  0.00  0.00    +0.000 N 
ATOM     15  H   UNL     1       1.718   7.733  22.452  0.00  0.00    +0.000 HD
ENDROOT
BRANCH   1  16
ATOM     16  S   UNL     1       3.408   5.715  17.994  0.00  0.00    +0.000 S 
ATOM     17  O   UNL     1       4.402   6.164  17.036  0.00  0.00    +0.000 OA
ATOM     18  O   UNL     1       2.362   4.788  17.627  0.00  0.00    +0.000 OA
BRANCH  16  19
ATOM     19  N   UNL     1       4.262   5.089  19.381  0.00  0.00    +0.000 NA
ATOM     20  C   UNL     1       5.707   4.869  19.137  0.00  0.00    +0.000 C 
BRANCH  19  22
ATOM     21  C   UNL     1       4.381   2.738  19.669  0.00  0.00    +0.000 C 
ATOM     22  O   UNL     1       3.525   3.874  19.726  0.00  0.00    +0.000 OA
ENDBRANCH  19  22
ENDBRANCH  16  19
ENDBRANCH   1  16
TORSDOF 3
ENDMDL
MODEL 5
REMARK VINA RESULT:      -7.2      4.032      5.832
REMARK  Name = 
REMARK  5 active torsions:
REMARK  status: ('A' for Active; 'I' for Inactive)
REMARK    1  A    between atoms: C_1  and  O_2
REMARK    2  A    between atoms: O_2  and  N_3
REMARK    3  A    between atoms: N_3  and  C_4
REMARK    4  A    between atoms: N_3  and  S_5
REMARK    5  A    between atoms: S_5  and  C_8
REMARK                            x       y       z     vdW  Elec       q    Type
REMARK                         _______ _______ _______ _____ _____    ______ ____
ROOT
ATOM      1  C   UNL     1       3.673   5.598  18.569  0.00  0.00    +0.000 A 
ATOM      2  C   UNL     1       3.747   6.566  17.564  0.00  0.00    +0.000 A 
ATOM      3  C   UNL     1       3.026   7.769  17.703  0.00  0.00    +0.000 A 
ATOM      4  C   UNL     1       2.252   8.024  18.846  0.00  0.00    +0.000 A 
ATOM      5  C   UNL     1       2.304   7.061  19.889  0.00  0.00    +0.000 A 
ATOM      6  C   UNL     1       2.960   5.841  19.742  0.00  0.00    +0.000 A 
ATOM      7  N   UNL     1       1.753   7.366  21.153  0.00  0.00    +0.000 N 
ATOM      8  C   UNL     1       1.126   8.564  21.407  0.00  0.00    +0.000 C 
ATOM      9  O   UNL     1       0.887   8.933  22.553  0.00  0.00    +0.000 OA
ATOM     10  C   UNL     1       0.605   9.261  20.160  0.00  0.00    +0.000 C 
ATOM     11  C   UNL     1       0.363  10.760  20.240  0.00  0.00    +0.000 C 
ATOM     12  C   UNL     1       0.126  11.060  18.760  0.00  0.00    +0.000 C 
ATOM     13  C   UNL     1       1.204  10.218  18.042  0.00  0.00    +0.000 C 
ATOM     14  N   UNL     1       1.514   9.169  19.008  0.00  0.00    +0.000 N 
ATOM     15  H   UNL     1       1.972   6.788  21.952  0.00  0.00    +0.000 HD
ENDROOT
BRANCH   1  16
ATOM     16  S   UNL     1       4.449   4.011  18.353  0.00  0.00    +0.000 S 
ATOM     17  O   UNL     1       5.784   4.105  18.913  0.00  0.00    +0.000 OA
ATOM     18  O   UNL     1       4.226   3.640  16.974  0.00  0.00    +0.000 OA
BRANCH  16  19
ATOM     19  N   UNL     1       3.521   2.952  19.383  0.00  0.00    +0.000 NA
ATOM     20  C   UNL     1       4.355   2.138  20.300  0.00  0.00    +0.000 C 
BRANCH  19  22
ATOM     21  C   UNL     1       1.335   2.404  18.648  0.00  0.00    +0.000 C 
ATOM     22  O   UNL     1       2.723   2.163  18.447  0.00  0.00    +0.000 OA
ENDBRANCH  19  22
ENDBRANCH  16  19
ENDBRANCH   1  16
TORSDOF 3
ENDMDL
MODEL 6
REMARK VINA RESULT:      -7.2      5.046      6.541
REMARK  Name = 
REMARK  5 active torsions:
REMARK  status: ('A' for Active; 'I' for Inactive)
REMARK    1  A    between atoms: C_1  and  O_2
REMARK    2  A    between atoms: O_2  and  N_3
REMARK    3  A    between atoms: N_3  and  C_4
REMARK    4  A    between atoms: N_3  and  S_5
REMARK    5  A    between atoms: S_5  and  C_8
REMARK                            x       y       z     vdW  Elec       q    Type
REMARK                         _______ _______ _______ _____ _____    ______ ____
ROOT
ATOM      1  C   UNL     1       2.571   6.806  18.831  0.00  0.00    +0.000 A 
ATOM      2  C   UNL     1       2.460   7.852  17.911  0.00  0.00    +0.000 A 
ATOM      3  C   UNL     1       1.798   9.038  18.285  0.00  0.00    +0.000 A 
ATOM      4  C   UNL     1       1.268   9.199  19.575  0.00  0.00    +0.000 A 
ATOM      5  C   UNL     1       1.510   8.155  20.507  0.00  0.00    +0.000 A 
ATOM      6  C   UNL     1       2.107   6.952  20.138  0.00  0.00    +0.000 A 
ATOM      7  N   UNL     1       1.223   8.356  21.875  0.00  0.00    +0.000 N 
ATOM      8  C   UNL     1       0.676   9.529  22.343  0.00  0.00    +0.000 C 
ATOM      9  O   UNL     1       0.672   9.803  23.539  0.00  0.00    +0.000 OA
ATOM     10  C   UNL     1      -0.070  10.323  21.282  0.00  0.00    +0.000 C 
ATOM     11  C   UNL     1      -0.271  11.810  21.528  0.00  0.00    +0.000 C 
ATOM     12  C   UNL     1      -0.789  12.229  20.151  0.00  0.00    +0.000 C 
ATOM     13  C   UNL     1       0.114  11.449  19.171  0.00  0.00    +0.000 C 
ATOM     14  N   UNL     1       0.593  10.327  19.970  0.00  0.00    +0.000 N 
ATOM     15  H   UNL     1       1.587   7.715  22.567  0.00  0.00    +0.000 HD
ENDROOT
BRANCH   1  16
ATOM     16  S   UNL     1       3.267   5.243  18.341  0.00  0.00    +0.000 S 
ATOM     17  O   UNL     1       3.938   4.687  19.501  0.00  0.00    +0.000 OA
ATOM     18  O   UNL     1       3.968   5.486  17.101  0.00  0.00    +0.000 OA
BRANCH  16  19
ATOM     19  N   UNL     1       1.869   4.250  18.017  0.00  0.00    +0.000 NA
ATOM     20  C   UNL     1       1.295   3.621  19.230  0.00  0.00    +0.000 C 
BRANCH  19  22
ATOM     21  C   UNL     1       2.717   2.068  17.638  0.00  0.00    +0.000 C 
ATOM     22  O   UNL     1       2.343   3.294  17.018  0.00  0.00    +0.000 OA
ENDBRANCH  19  22
ENDBRANCH  16  19
ENDBRANCH   1  16
TORSDOF 3
ENDMDL
MODEL 7
REMARK VINA RESULT:      -7.1      2.101      3.122
REMARK  Name = 
REMARK  5 active torsions:
REMARK  status: ('A' for Active; 'I' for Inactive)
REMARK    1  A    between atoms: C_1  and  O_2
REMARK    2  A    between atoms: O_2  and  N_3
REMARK    3  A    between atoms: N_3  and  C_4
REMARK    4  A    between atoms: N_3  and  S_5
REMARK    5  A    between atoms: S_5  and  C_8
REMARK                            x       y       z     vdW  Elec       q    Type
REMARK                         _______ _______ _______ _____ _____    ______ ____
ROOT
ATOM      1  C   UNL     1       4.751   4.917  16.534  0.00  0.00    +0.000 A 
ATOM      2  C   UNL     1       4.463   3.551  16.577  0.00  0.00    +0.000 A 
ATOM      3  C   UNL     1       3.733   3.029  17.664  0.00  0.00    +0.000 A 
ATOM      4  C   UNL     1       3.269   3.861  18.695  0.00  0.00    +0.000 A 
ATOM      5  C   UNL     1       3.487   5.257  18.544  0.00  0.00    +0.000 A 
ATOM      6  C   UNL     1       4.258   5.782  17.510  0.00  0.00    +0.000 A 
ATOM      7  N   UNL     1       2.838   6.165  19.410  0.00  0.00    +0.000 N 
ATOM      8  C   UNL     1       2.019   5.742  20.431  0.00  0.00    +0.000 C 
ATOM      9  O   UNL     1       1.259   6.516  21.006  0.00  0.00    +0.000 OA
ATOM     10  C   UNL     1       2.291   4.317  20.886  0.00  0.00    +0.000 C 
ATOM     11  C   UNL     1       1.175   3.586  21.617  0.00  0.00    +0.000 C 
ATOM     12  C   UNL     1       1.762   2.174  21.631  0.00  0.00    +0.000 C 
ATOM     13  C   UNL     1       2.357   2.014  20.216  0.00  0.00    +0.000 C 
ATOM     14  N   UNL     1       2.580   3.389  19.783  0.00  0.00    +0.000 N 
ATOM     15  H   UNL     1       2.811   7.149  19.181  0.00  0.00    +0.000 HD
ENDROOT
BRANCH   1  16
ATOM     16  S   UNL     1       5.797   5.578  15.255  0.00  0.00    +0.000 S 
ATOM     17  O   UNL     1       5.312   6.912  14.949  0.00  0.00    +0.000 OA
ATOM     18  O   UNL     1       5.891   4.552  14.242  0.00  0.00    +0.000 OA
BRANCH  16  19
ATOM     19  N   UNL     1       7.348   5.751  16.035  0.00  0.00    +0.000 NA
ATOM     20  C   UNL     1       7.619   4.708  17.054  0.00  0.00    +0.000 C 
BRANCH  19  22
ATOM     21  C   UNL     1       7.751   7.124  17.926  0.00  0.00    +0.000 C 
ATOM     22  O   UNL     1       7.322   7.111  16.568  0.00  0.00    +0.000 OA
ENDBRANCH  19  22
ENDBRANCH  16  19
ENDBRANCH   1  16
TORSDOF 3
ENDMDL
MODEL 8
REMARK VINA RESULT:      -7.1      1.769      2.600
REMARK  Name = 
REMARK  5 active torsions:
REMARK  status: ('A' for Active; 'I' for Inactive)
REMARK    1  A    between atoms: C_1  and  O_2
REMARK    2  A    between atoms: O_2  and  N_3
REMARK    3  A    between atoms: N_3  and  C_4
REMARK    4  A    between atoms: N_3  and  S_5
REMARK    5  A    between atoms: S_5  and  C_8
REMARK                            x       y       z     vdW  Elec       q    Type
REMARK                         _______ _______ _______ _____ _____    ______ ____
ROOT
ATOM      1  C   UNL     1       5.512   5.411  17.396  0.00  0.00    +0.000 A 
ATOM      2  C   UNL     1       4.344   6.137  17.640  0.00  0.00    +0.000 A 
ATOM      3  C   UNL     1       3.370   5.614  18.514  0.00  0.00    +0.000 A 
ATOM      4  C   UNL     1       3.563   4.384  19.164  0.00  0.00    +0.000 A 
ATOM      5  C   UNL     1       4.816   3.743  18.973  0.00  0.00    +0.000 A 
ATOM      6  C   UNL     1       5.762   4.214  18.066  0.00  0.00    +0.000 A 
ATOM      7  N   UNL     1       5.169   2.640  19.781  0.00  0.00    +0.000 N 
ATOM      8  C   UNL     1       4.319   2.132  20.736  0.00  0.00    +0.000 C 
ATOM      9  O   UNL     1       4.716   1.359  21.603  0.00  0.00    +0.000 OA
ATOM     10  C   UNL     1       2.855   2.460  20.491  0.00  0.00    +0.000 C 
ATOM     11  C   UNL     1       1.911   2.403  21.682  0.00  0.00    +0.000 C 
ATOM     12  C   UNL     1       0.671   3.044  21.057  0.00  0.00    +0.000 C 
ATOM     13  C   UNL     1       1.245   4.222  20.241  0.00  0.00    +0.000 C 
ATOM     14  N   UNL     1       2.628   3.827  20.000  0.00  0.00    +0.000 N 
ATOM     15  H   UNL     1       6.126   2.318  19.805  0.00  0.00    +0.000 HD
ENDROOT
BRANCH   1  16
ATOM     16  S   UNL     1       6.688   5.974  16.184  0.00  0.00    +0.000 S 
ATOM     17  O   UNL     1       5.978   6.848  15.269  0.00  0.00    +0.000 OA
ATOM     18  O   UNL     1       7.385   4.795  15.723  0.00  0.00    +0.000 OA
BRANCH  16  19
ATOM     19  N   UNL     1       7.792   6.963  17.104  0.00  0.00    +0.000 NA
ATOM     20  C   UNL     1       7.973   6.505  18.503  0.00  0.00    +0.000 C 
BRANCH  19  22
ATOM     21  C   UNL     1       7.989   9.230  17.769  0.00  0.00    +0.000 C 
ATOM     22  O   UNL     1       7.237   8.310  16.986  0.00  0.00    +0.000 OA
ENDBRANCH  19  22
ENDBRANCH  16  19
ENDBRANCH   1  16
TORSDOF 3
ENDMDL
MODEL 9
REMARK VINA RESULT:      -7.1      4.846      6.414
REMARK  Name = 
REMARK  5 active torsions:
REMARK  status: ('A' for Active; 'I' for Inactive)
REMARK    1  A    between atoms: C_1  and  O_2
REMARK    2  A    between atoms: O_2  and  N_3
REMARK    3  A    between atoms: N_3  and  C_4
REMARK    4  A    between atoms: N_3  and  S_5
REMARK    5  A    between atoms: S_5  and  C_8
REMARK                            x       y       z     vdW  Elec       q    Type
REMARK                         _______ _______ _______ _____ _____    ______ ____
ROOT
ATOM      1  C   UNL     1       2.926   6.557  18.876  0.00  0.00    +0.000 A 
ATOM      2  C   UNL     1       2.691   7.473  17.847  0.00  0.00    +0.000 A 
ATOM      3  C   UNL     1       1.893   8.608  18.096  0.00  0.00    +0.000 A 
ATOM      4  C   UNL     1       1.349   8.849  19.368  0.00  0.00    +0.000 A 
ATOM      5  C   UNL     1       1.715   7.952  20.407  0.00  0.00    +0.000 A 
ATOM      6  C   UNL     1       2.449   6.793  20.164  0.00  0.00    +0.000 A 
ATOM      7  N   UNL     1       1.408   8.270  21.748  0.00  0.00    +0.000 N 
ATOM      8  C   UNL     1       0.726   9.415  22.089  0.00  0.00    +0.000 C 
ATOM      9  O   UNL     1       0.692   9.820  23.248  0.00  0.00    +0.000 OA
ATOM     10  C   UNL     1      -0.110   9.992  20.958  0.00  0.00    +0.000 C 
ATOM     11  C   UNL     1      -0.485  11.464  21.039  0.00  0.00    +0.000 C 
ATOM     12  C   UNL     1      -1.051  11.661  19.633  0.00  0.00    +0.000 C 
ATOM     13  C   UNL     1      -0.064  10.888  18.732  0.00  0.00    +0.000 C 
ATOM     14  N   UNL     1       0.546   9.926  19.644  0.00  0.00    +0.000 N 
ATOM     15  H   UNL     1       1.846   7.758  22.501  0.00  0.00    +0.000 HD
ENDROOT
BRANCH   1  16
ATOM     16  S   UNL     1       3.801   5.042  18.552  0.00  0.00    +0.000 S 
ATOM     17  O   UNL     1       5.059   5.109  19.272  0.00  0.00    +0.000 OA
ATOM     18  O   UNL     1       3.753   4.848  17.121  0.00  0.00    +0.000 OA
BRANCH  16  19
ATOM     19  N   UNL     1       2.819   3.823  19.323  0.00  0.00    +0.000 NA
ATOM     20  C   UNL     1       3.600   2.677  19.847  0.00  0.00    +0.000 C 
BRANCH  19  22
ATOM     21  C   UNL     1       0.886   2.544  18.822  0.00  0.00    +0.000 C 
ATOM     22  O   UNL     1       1.843   3.459  18.298  0.00  0.00    +0.000 OA
ENDBRANCH  19  22
ENDBRANCH  16  19
ENDBRANCH   1  16
TORSDOF 3
ENDMDL
