MODEL 1
REMARK VINA RESULT:      -8.4      0.000      0.000
REMARK  Name = 
REMARK  4 active torsions:
REMARK  status: ('A' for Active; 'I' for Inactive)
REMARK    1  A    between atoms: N_11  and  C_12
REMARK    2  A    between atoms: C_15  and  N_16
REMARK    3  A    between atoms: N_16  and  C_17
REMARK    4  A    between atoms: C_23  and  N_24
REMARK                            x       y       z     vdW  Elec       q    Type
REMARK                         _______ _______ _______ _____ _____    ______ ____
ROOT
ATOM      1  C   UNL     1       1.501   8.306  19.891  0.00  0.00    +0.000 A 
ATOM      2  C   UNL     1       2.204   8.340  18.680  0.00  0.00    +0.000 A 
ATOM      3  C   UNL     1       2.869   7.185  18.172  0.00  0.00    +0.000 A 
ATOM      4  C   UNL     1       2.781   5.941  18.797  0.00  0.00    +0.000 A 
ATOM      5  C   UNL     1       2.099   5.968  20.028  0.00  0.00    +0.000 A 
ATOM      6  C   UNL     1       1.561   7.120  20.610  0.00  0.00    +0.000 A 
ENDROOT
BRANCH   1  17
ATOM      7  O   UNL     1       1.325   9.644  22.616  0.00  0.00    +0.000 OA
ATOM      8  C   UNL     1       0.614   9.884  21.657  0.00  0.00    +0.000 C 
ATOM      9  C   UNL     1      -0.626  10.757  21.669  0.00  0.00    +0.000 C 
ATOM     10  C   UNL     1      -0.819  11.895  22.649  0.00  0.00    +0.000 C 
ATOM     11  C   UNL     1      -2.140  12.616  22.309  0.00  0.00    +0.000 C 
ATOM     12  C   UNL     1      -2.212  13.088  20.848  0.00  0.00    +0.000 C 
ATOM     13  C   UNL     1      -1.887  11.968  19.858  0.00  0.00    +0.000 C 
ATOM     14  C   UNL     1      -0.579  11.317  20.260  0.00  0.00    +0.000 C 
ATOM     15  C   UNL     1      -0.159  10.101  19.506  0.00  0.00    +0.000 C 
ATOM     16  O   UNL     1      -0.418   9.943  18.319  0.00  0.00    +0.000 OA
ATOM     17  N   UNL     1       0.662   9.360  20.362  0.00  0.00    +0.000 N 
ENDBRANCH   1  17
BRANCH   5  18
ATOM     18  N   UNL     1       1.698   4.734  20.673  0.00  0.00    +0.000 N 
ATOM     19  O   UNL     1       2.442   4.317  21.574  0.00  0.00    +0.000 OA
ATOM     20  O   UNL     1       0.689   4.160  20.244  0.00  0.00    +0.000 OA
ENDBRANCH   5  18
BRANCH   4  21
ATOM     21  N   UNL     1       3.324   4.766  18.333  0.00  0.00    +0.000 N 
ATOM     22  H   UNL     1       2.605   4.096  18.047  0.00  0.00    +0.000 HD
BRANCH  21  23
ATOM     23  C   UNL     1       4.649   4.266  17.957  0.00  0.00    +0.000 C 
ATOM     24  C   UNL     1       4.885   4.217  16.454  0.00  0.00    +0.000 C 
ATOM     25  C   UNL     1       5.435   5.509  15.878  0.00  0.00    +0.000 C 
ATOM     26  C   UNL     1       6.659   6.027  16.625  0.00  0.00    +0.000 C 
ATOM     27  C   UNL     1       6.581   5.979  18.150  0.00  0.00    +0.000 C 
ATOM     28  C   UNL     1       5.845   4.784  18.746  0.00  0.00    +0.000 C 
ENDBRANCH  21  23
ENDBRANCH   4  21
TORSDOF 4
ENDMDL
MODEL 2
REMARK VINA RESULT:      -8.3      0.200      1.741
REMARK  Name = 
REMARK  4 active torsions:
REMARK  status: ('A' for Active; 'I' for Inactive)
REMARK    1  A    between atoms: N_11  and  C_12
REMARK    2  A    between atoms: C_15  and  N_16
REMARK    3  A    between atoms: N_16  and  C_17
REMARK    4  A    between atoms: C_23  and  N_24
REMARK                            x       y       z     vdW  Elec       q    Type
REMARK                         _______ _______ _______ _____ _____    ______ ____
ROOT
ATOM      1  C   UNL     1       1.552   8.401  19.682  0.00  0.00    +0.000 A 
ATOM      2  C   UNL     1       2.318   8.375  18.510  0.00  0.00    +0.000 A 
ATOM      3  C   UNL     1       3.008   7.196  18.097  0.00  0.00    +0.000 A 
ATOM      4  C   UNL     1       2.886   5.986  18.778  0.00  0.00    +0.000 A 
ATOM      5  C   UNL     1       2.141   6.074  19.969  0.00  0.00    +0.000 A 
ATOM      6  C   UNL     1       1.574   7.252  20.463  0.00  0.00    +0.000 A 
ENDROOT
BRANCH   1  17
ATOM      7  O   UNL     1      -0.608   9.858  18.116  0.00  0.00    +0.000 OA
ATOM      8  C   UNL     1      -0.248  10.122  19.248  0.00  0.00    +0.000 C 
ATOM      9  C   UNL     1      -0.660  11.344  20.047  0.00  0.00    +0.000 C 
ATOM     10  C   UNL     1      -1.977  12.061  19.831  0.00  0.00    +0.000 C 
ATOM     11  C   UNL     1      -2.097  13.190  20.875  0.00  0.00    +0.000 C 
ATOM     12  C   UNL     1      -1.935  12.695  22.321  0.00  0.00    +0.000 C 
ATOM     13  C   UNL     1      -0.669  11.857  22.511  0.00  0.00    +0.000 C 
ATOM     14  C   UNL     1      -0.629  10.774  21.453  0.00  0.00    +0.000 C 
ATOM     15  C   UNL     1       0.604   9.940  21.372  0.00  0.00    +0.000 C 
ATOM     16  O   UNL     1       1.269   9.656  22.361  0.00  0.00    +0.000 OA
ATOM     17  N   UNL     1       0.691   9.475  20.056  0.00  0.00    +0.000 N 
ENDBRANCH   1  17
BRANCH   5  18
ATOM     18  N   UNL     1       1.706   4.873  20.654  0.00  0.00    +0.000 N 
ATOM     19  O   UNL     1       2.431   4.473  21.578  0.00  0.00    +0.000 OA
ATOM     20  O   UNL     1       0.689   4.306  20.236  0.00  0.00    +0.000 OA
ENDBRANCH   5  18
BRANCH   4  21
ATOM     21  N   UNL     1       3.452   4.789  18.404  0.00  0.00    +0.000 N 
ATOM     22  H   UNL     1       2.746   4.084  18.178  0.00  0.00    +0.000 HD
BRANCH  21  23
ATOM     23  C   UNL     1       4.786   4.291  18.056  0.00  0.00    +0.000 C 
ATOM     24  C   UNL     1       5.014   4.135  16.559  0.00  0.00    +0.000 C 
ATOM     25  C   UNL     1       5.534   5.392  15.885  0.00  0.00    +0.000 C 
ATOM     26  C   UNL     1       6.751   5.988  16.584  0.00  0.00    +0.000 C 
ATOM     27  C   UNL     1       6.682   6.052  18.109  0.00  0.00    +0.000 C 
ATOM     28  C   UNL     1       5.974   4.890  18.796  0.00  0.00    +0.000 C 
ENDBRANCH  21  23
ENDBRANCH   4  21
TORSDOF 4
ENDMDL
MODEL 3
REMARK VINA RESULT:      -8.2      0.731      2.020
REMARK  Name = 
REMARK  4 active torsions:
REMARK  status: ('A' for Active; 'I' for Inactive)
REMARK    1  A    between atoms: N_11  and  C_12
REMARK    2  A    between atoms: C_15  and  N_16
REMARK    3  A    between atoms: N_16  and  C_17
REMARK    4  A    between atoms: C_23  and  N_24
REMARK                            x       y       z     vdW  Elec       q    Type
REMARK                         _______ _______ _______ _____ _____    ______ ____
ROOT
ATOM      1  C   UNL     1       1.758   8.527  19.270  0.00  0.00    +0.000 A 
ATOM      2  C   UNL     1       2.495   8.655  18.086  0.00  0.00    +0.000 A 
ATOM      3  C   UNL     1       3.234   7.560  17.546  0.00  0.00    +0.000 A 
ATOM      4  C   UNL     1       3.191   6.285  18.109  0.00  0.00    +0.000 A 
ATOM      5  C   UNL     1       2.472   6.218  19.316  0.00  0.00    +0.000 A 
ATOM      6  C   UNL     1       1.858   7.311  19.934  0.00  0.00    +0.000 A 
ENDROOT
BRANCH   1  17
ATOM      7  O   UNL     1      -0.541   9.977  17.908  0.00  0.00    +0.000 OA
ATOM      8  C   UNL     1      -0.154  10.167  19.046  0.00  0.00    +0.000 C 
ATOM      9  C   UNL     1      -0.603  11.291  19.960  0.00  0.00    +0.000 C 
ATOM     10  C   UNL     1      -1.966  11.943  19.851  0.00  0.00    +0.000 C 
ATOM     11  C   UNL     1      -2.110  12.972  20.991  0.00  0.00    +0.000 C 
ATOM     12  C   UNL     1      -1.863  12.368  22.384  0.00  0.00    +0.000 C 
ATOM     13  C   UNL     1      -0.545  11.595  22.458  0.00  0.00    +0.000 C 
ATOM     14  C   UNL     1      -0.485  10.609  21.310  0.00  0.00    +0.000 C 
ATOM     15  C   UNL     1       0.790   9.860  21.116  0.00  0.00    +0.000 C 
ATOM     16  O   UNL     1       1.508   9.535  22.054  0.00  0.00    +0.000 OA
ATOM     17  N   UNL     1       0.852   9.512  19.763  0.00  0.00    +0.000 N 
ENDBRANCH   1  17
BRANCH   5  18
ATOM     18  N   UNL     1       2.116   4.934  19.889  0.00  0.00    +0.000 N 
ATOM     19  O   UNL     1       1.540   4.136  19.135  0.00  0.00    +0.000 OA
ATOM     20  O   UNL     1       2.355   4.753  21.090  0.00  0.00    +0.000 OA
ENDBRANCH   5  18
BRANCH   4  21
ATOM     21  N   UNL     1       3.809   5.162  17.608  0.00  0.00    +0.000 N 
ATOM     22  H   UNL     1       3.237   4.690  16.903  0.00  0.00    +0.000 HD
BRANCH  21  23
ATOM     23  C   UNL     1       5.139   4.550  17.663  0.00  0.00    +0.000 C 
ATOM     24  C   UNL     1       6.075   5.008  16.553  0.00  0.00    +0.000 C 
ATOM     25  C   UNL     1       6.863   6.260  16.895  0.00  0.00    +0.000 C 
ATOM     26  C   UNL     1       7.580   6.170  18.237  0.00  0.00    +0.000 C 
ATOM     27  C   UNL     1       6.769   5.580  19.390  0.00  0.00    +0.000 C 
ATOM     28  C   UNL     1       5.811   4.452  19.026  0.00  0.00    +0.000 C 
ENDBRANCH  21  23
ENDBRANCH   4  21
TORSDOF 4
ENDMDL
MODEL 4
REMARK VINA RESULT:      -8.0      1.498      2.826
REMARK  Name = 
REMARK  4 active torsions:
REMARK  status: ('A' for Active; 'I' for Inactive)
REMARK    1  A    between atoms: N_11  and  C_12
REMARK    2  A    between atoms: C_15  and  N_16
REMARK    3  A    between atoms: N_16  and  C_17
REMARK    4  A    between atoms: C_23  and  N_24
REMARK                            x       y       z     vdW  Elec       q    Type
REMARK                         _______ _______ _______ _____ _____    ______ ____
ROOT
ATOM      1  C   UNL     1       1.438   8.982  19.460  0.00  0.00    +0.000 A 
ATOM      2  C   UNL     1       2.082   8.989  18.217  0.00  0.00    +0.000 A 
ATOM      3  C   UNL     1       2.844   7.869  17.767  0.00  0.00    +0.000 A 
ATOM      4  C   UNL     1       2.914   6.679  18.489  0.00  0.00    +0.000 A 
ATOM      5  C   UNL     1       2.285   6.737  19.747  0.00  0.00    +0.000 A 
ATOM      6  C   UNL     1       1.654   7.870  20.265  0.00  0.00    +0.000 A 
ENDROOT
BRANCH   1  17
ATOM      7  O   UNL     1      -1.017  10.145  18.093  0.00  0.00    +0.000 OA
ATOM      8  C   UNL     1      -0.569  10.493  19.171  0.00  0.00    +0.000 C 
ATOM      9  C   UNL     1      -1.020  11.700  19.970  0.00  0.00    +0.000 C 
ATOM     10  C   UNL     1      -2.421  12.270  19.876  0.00  0.00    +0.000 C 
ATOM     11  C   UNL     1      -2.548  13.426  20.890  0.00  0.00    +0.000 C 
ATOM     12  C   UNL     1      -2.184  13.012  22.325  0.00  0.00    +0.000 C 
ATOM     13  C   UNL     1      -0.823  12.316  22.403  0.00  0.00    +0.000 C 
ATOM     14  C   UNL     1      -0.782  11.198  21.381  0.00  0.00    +0.000 C 
ATOM     15  C   UNL     1       0.516  10.489  21.193  0.00  0.00    +0.000 C 
ATOM     16  O   UNL     1       1.308  10.316  22.112  0.00  0.00    +0.000 OA
ATOM     17  N   UNL     1       0.512   9.979  19.891  0.00  0.00    +0.000 N 
ENDBRANCH   1  17
BRANCH   5  18
ATOM     18  N   UNL     1       2.045   5.524  20.505  0.00  0.00    +0.000 N 
ATOM     19  O   UNL     1       3.048   4.870  20.830  0.00  0.00    +0.000 OA
ATOM     20  O   UNL     1       0.870   5.201  20.718  0.00  0.00    +0.000 OA
ENDBRANCH   5  18
BRANCH   4  21
ATOM     21  N   UNL     1       3.560   5.531  18.091  0.00  0.00    +0.000 N 
ATOM     22  H   UNL     1       4.478   5.434  18.530  0.00  0.00    +0.000 HD
BRANCH  21  23
ATOM     23  C   UNL     1       3.227   4.308  17.355  0.00  0.00    +0.000 C 
ATOM     24  C   UNL     1       4.203   3.164  17.588  0.00  0.00    +0.000 C 
ATOM     25  C   UNL     1       3.855   2.295  18.783  0.00  0.00    +0.000 C 
ATOM     26  C   UNL     1       2.410   1.810  18.772  0.00  0.00    +0.000 C 
ATOM     27  C   UNL     1       1.358   2.854  18.401  0.00  0.00    +0.000 C 
ATOM     28  C   UNL     1       1.767   3.872  17.343  0.00  0.00    +0.000 C 
ENDBRANCH  21  23
ENDBRANCH   4  21
TORSDOF 4
ENDMDL
MODEL 5
REMARK VINA RESULT:      -7.9      1.491      2.298
REMARK  Name = 
REMARK  4 active torsions:
REMARK  status: ('A' for Active; 'I' for Inactive)
REMARK    1  A    between atoms: N_11  and  C_12
REMARK    2  A    between atoms: C_15  and  N_16
REMARK    3  A    between atoms: N_16  and  C_17
REMARK    4  A    between atoms: C_23  and  N_24
REMARK                            x       y       z     vdW  Elec       q    Type
REMARK                         _______ _______ _______ _____ _____    ______ ____
ROOT
ATOM      1  C   UNL     1       1.415   8.876  19.566  0.00  0.00    +0.000 A 
ATOM      2  C   UNL     1       2.018   8.931  18.303  0.00  0.00    +0.000 A 
ATOM      3  C   UNL     1       2.782   7.839  17.794  0.00  0.00    +0.000 A 
ATOM      4  C   UNL     1       2.895   6.629  18.477  0.00  0.00    +0.000 A 
ATOM      5  C   UNL     1       2.308   6.638  19.756  0.00  0.00    +0.000 A 
ATOM      6  C   UNL     1       1.676   7.745  20.329  0.00  0.00    +0.000 A 
ENDROOT
BRANCH   1  17
ATOM      7  O   UNL     1       1.263  10.307  22.244  0.00  0.00    +0.000 OA
ATOM      8  C   UNL     1       0.465  10.418  21.331  0.00  0.00    +0.000 C 
ATOM      9  C   UNL     1      -0.868  11.138  21.400  0.00  0.00    +0.000 C 
ATOM     10  C   UNL     1      -1.131  12.290  22.348  0.00  0.00    +0.000 C 
ATOM     11  C   UNL     1      -2.549  12.833  22.078  0.00  0.00    +0.000 C 
ATOM     12  C   UNL     1      -2.774  13.226  20.609  0.00  0.00    +0.000 C 
ATOM     13  C   UNL     1      -2.384  12.108  19.640  0.00  0.00    +0.000 C 
ATOM     14  C   UNL     1      -0.984  11.635  19.971  0.00  0.00    +0.000 C 
ATOM     15  C   UNL     1      -0.471  10.443  19.235  0.00  0.00    +0.000 C 
ATOM     16  O   UNL     1      -0.788  10.202  18.077  0.00  0.00    +0.000 OA
ATOM     17  N   UNL     1       0.489   9.844  20.057  0.00  0.00    +0.000 N 
ENDBRANCH   1  17
BRANCH   5  18
ATOM     18  N   UNL     1       2.112   5.400  20.484  0.00  0.00    +0.000 N 
ATOM     19  O   UNL     1       0.939   5.095  20.746  0.00  0.00    +0.000 OA
ATOM     20  O   UNL     1       3.120   4.774  20.838  0.00  0.00    +0.000 OA
ENDBRANCH   5  18
BRANCH   4  21
ATOM     21  N   UNL     1       3.545   5.505  18.022  0.00  0.00    +0.000 N 
ATOM     22  H   UNL     1       4.494   5.432  18.396  0.00  0.00    +0.000 HD
BRANCH  21  23
ATOM     23  C   UNL     1       3.197   4.278  17.299  0.00  0.00    +0.000 C 
ATOM     24  C   UNL     1       4.179   3.135  17.517  0.00  0.00    +0.000 C 
ATOM     25  C   UNL     1       3.856   2.271  18.723  0.00  0.00    +0.000 C 
ATOM     26  C   UNL     1       2.410   1.786  18.743  0.00  0.00    +0.000 C 
ATOM     27  C   UNL     1       1.351   2.828  18.389  0.00  0.00    +0.000 C 
ATOM     28  C   UNL     1       1.738   3.841  17.319  0.00  0.00    +0.000 C 
ENDBRANCH  21  23
ENDBRANCH   4  21
TORSDOF 4
ENDMDL
MODEL 6
REMARK VINA RESULT:      -7.8      1.086      1.540
REMARK  Name = 
REMARK  4 active torsions:
REMARK  status: ('A' for Active; 'I' for Inactive)
REMARK    1  A    between atoms: N_11  and  C_12
REMARK    2  A    between atoms: C_15  and  N_16
REMARK    3  A    between atoms: N_16  and  C_17
REMARK    4  A    between atoms: C_23  and  N_24
REMARK                            x       y       z     vdW  Elec       q    Type
REMARK                         _______ _______ _______ _____ _____    ______ ____
ROOT
ATOM      1  C   UNL     1       1.356   9.150  19.626  0.00  0.00    +0.000 A 
ATOM      2  C   UNL     1       1.839   9.418  18.339  0.00  0.00    +0.000 A 
ATOM      3  C   UNL     1       2.659   8.482  17.641  0.00  0.00    +0.000 A 
ATOM      4  C   UNL     1       2.947   7.218  18.155  0.00  0.00    +0.000 A 
ATOM      5  C   UNL     1       2.475   7.013  19.465  0.00  0.00    +0.000 A 
ATOM      6  C   UNL     1       1.790   7.971  20.218  0.00  0.00    +0.000 A 
ENDROOT
BRANCH   1  17
ATOM      7  O   UNL     1       1.148   9.985  22.542  0.00  0.00    +0.000 OA
ATOM      8  C   UNL     1       0.342  10.244  21.668  0.00  0.00    +0.000 C 
ATOM      9  C   UNL     1      -1.025  10.867  21.878  0.00  0.00    +0.000 C 
ATOM     10  C   UNL     1      -1.339  11.783  23.043  0.00  0.00    +0.000 C 
ATOM     11  C   UNL     1      -2.783  12.300  22.885  0.00  0.00    +0.000 C 
ATOM     12  C   UNL     1      -3.036  12.978  21.528  0.00  0.00    +0.000 C 
ATOM     13  C   UNL     1      -2.597  12.105  20.350  0.00  0.00    +0.000 C 
ATOM     14  C   UNL     1      -1.173  11.643  20.582  0.00  0.00    +0.000 C 
ATOM     15  C   UNL     1      -0.607  10.656  19.618  0.00  0.00    +0.000 C 
ATOM     16  O   UNL     1      -0.918  10.646  18.433  0.00  0.00    +0.000 OA
ATOM     17  N   UNL     1       0.387   9.948  20.302  0.00  0.00    +0.000 N 
ENDBRANCH   1  17
BRANCH   5  18
ATOM     18  N   UNL     1       2.464   5.684  20.042  0.00  0.00    +0.000 N 
ATOM     19  O   UNL     1       3.550   5.085  20.065  0.00  0.00    +0.000 OA
ATOM     20  O   UNL     1       1.376   5.224  20.411  0.00  0.00    +0.000 OA
ENDBRANCH   5  18
BRANCH   4  21
ATOM     21  N   UNL     1       3.661   6.232  17.515  0.00  0.00    +0.000 N 
ATOM     22  H   UNL     1       3.212   5.316  17.598  0.00  0.00    +0.000 HD
BRANCH  21  23
ATOM     23  C   UNL     1       4.792   6.150  16.586  0.00  0.00    +0.000 C 
ATOM     24  C   UNL     1       6.037   6.885  17.064  0.00  0.00    +0.000 C 
ATOM     25  C   UNL     1       6.952   6.040  17.931  0.00  0.00    +0.000 C 
ATOM     26  C   UNL     1       7.298   4.694  17.304  0.00  0.00    +0.000 C 
ATOM     27  C   UNL     1       6.136   3.939  16.660  0.00  0.00    +0.000 C 
ATOM     28  C   UNL     1       5.088   4.794  15.958  0.00  0.00    +0.000 C 
ENDBRANCH  21  23
ENDBRANCH   4  21
TORSDOF 4
ENDMDL
MODEL 7
REMARK VINA RESULT:      -7.7      1.114      1.659
REMARK  Name = 
REMARK  4 active torsions:
REMARK  status: ('A' for Active; 'I' for Inactive)
REMARK    1  A    between atoms: N_11  and  C_12
REMARK    2  A    between atoms: C_15  and  N_16
REMARK    3  A    between atoms: N_16  and  C_17
REMARK    4  A    between atoms: C_23  and  N_24
REMARK                            x       y       z     vdW  Elec       q    Type
REMARK                         _______ _______ _______ _____ _____    ______ ____
ROOT
ATOM      1  C   UNL     1       1.586   8.575  19.841  0.00  0.00    +0.000 A 
ATOM      2  C   UNL     1       2.006   8.603  18.506  0.00  0.00    +0.000 A 
ATOM      3  C   UNL     1       2.484   7.428  17.851  0.00  0.00    +0.000 A 
ATOM      4  C   UNL     1       2.473   6.178  18.466  0.00  0.00    +0.000 A 
ATOM      5  C   UNL     1       2.081   6.210  19.818  0.00  0.00    +0.000 A 
ATOM      6  C   UNL     1       1.743   7.372  20.517  0.00  0.00    +0.000 A 
ENDROOT
BRANCH   1  17
ATOM      7  O   UNL     1       1.520  11.549  19.209  0.00  0.00    +0.000 OA
ATOM      8  C   UNL     1       0.990  11.012  20.165  0.00  0.00    +0.000 C 
ATOM      9  C   UNL     1       0.351  11.725  21.340  0.00  0.00    +0.000 C 
ATOM     10  C   UNL     1      -0.252  13.110  21.231  0.00  0.00    +0.000 C 
ATOM     11  C   UNL     1      -0.890  13.475  22.588  0.00  0.00    +0.000 C 
ATOM     12  C   UNL     1      -1.911  12.434  23.074  0.00  0.00    +0.000 C 
ATOM     13  C   UNL     1      -1.344  11.013  23.060  0.00  0.00    +0.000 C 
ATOM     14  C   UNL     1      -0.742  10.734  21.698  0.00  0.00    +0.000 C 
ATOM     15  C   UNL     1      -0.002   9.452  21.525  0.00  0.00    +0.000 C 
ATOM     16  O   UNL     1      -0.319   8.427  22.118  0.00  0.00    +0.000 OA
ATOM     17  N   UNL     1       0.925   9.656  20.498  0.00  0.00    +0.000 N 
ENDBRANCH   1  17
BRANCH   5  18
ATOM     18  N   UNL     1       1.771   4.981  20.523  0.00  0.00    +0.000 N 
ATOM     19  O   UNL     1       2.482   4.714  21.503  0.00  0.00    +0.000 OA
ATOM     20  O   UNL     1       0.870   4.266  20.066  0.00  0.00    +0.000 OA
ENDBRANCH   5  18
BRANCH   4  21
ATOM     21  N   UNL     1       2.841   4.988  17.882  0.00  0.00    +0.000 N 
ATOM     22  H   UNL     1       2.108   4.615  17.273  0.00  0.00    +0.000 HD
BRANCH  21  23
ATOM     23  C   UNL     1       4.063   4.192  17.737  0.00  0.00    +0.000 C 
ATOM     24  C   UNL     1       4.769   4.384  16.402  0.00  0.00    +0.000 C 
ATOM     25  C   UNL     1       5.762   5.533  16.394  0.00  0.00    +0.000 C 
ATOM     26  C   UNL     1       6.751   5.479  17.553  0.00  0.00    +0.000 C 
ATOM     27  C   UNL     1       6.159   5.143  18.921  0.00  0.00    +0.000 C 
ATOM     28  C   UNL     1       5.012   4.140  18.927  0.00  0.00    +0.000 C 
ENDBRANCH  21  23
ENDBRANCH   4  21
TORSDOF 4
ENDMDL
MODEL 8
REMARK VINA RESULT:      -7.5      1.148      1.301
REMARK  Name = 
REMARK  4 active torsions:
REMARK  status: ('A' for Active; 'I' for Inactive)
REMARK    1  A    between atoms: N_11  and  C_12
REMARK    2  A    between atoms: C_15  and  N_16
REMARK    3  A    between atoms: N_16  and  C_17
REMARK    4  A    between atoms: C_23  and  N_24
REMARK                            x       y       z     vdW  Elec       q    Type
REMARK                         _______ _______ _______ _____ _____    ______ ____
ROOT
ATOM      1  C   UNL     1       1.507   8.620  19.858  0.00  0.00    +0.000 A 
ATOM      2  C   UNL     1       1.967   8.735  18.541  0.00  0.00    +0.000 A 
ATOM      3  C   UNL     1       2.525   7.621  17.846  0.00  0.00    +0.000 A 
ATOM      4  C   UNL     1       2.558   6.341  18.399  0.00  0.00    +0.000 A 
ATOM      5  C   UNL     1       2.122   6.286  19.736  0.00  0.00    +0.000 A 
ATOM      6  C   UNL     1       1.704   7.393  20.479  0.00  0.00    +0.000 A 
ENDROOT
BRANCH   1  17
ATOM      7  O   UNL     1      -0.380   8.445  22.236  0.00  0.00    +0.000 OA
ATOM      8  C   UNL     1      -0.119   9.454  21.607  0.00  0.00    +0.000 C 
ATOM      9  C   UNL     1      -0.817  10.793  21.747  0.00  0.00    +0.000 C 
ATOM     10  C   UNL     1      -1.477  11.243  23.034  0.00  0.00    +0.000 C 
ATOM     11  C   UNL     1      -1.998  12.683  22.841  0.00  0.00    +0.000 C 
ATOM     12  C   UNL     1      -0.907  13.661  22.374  0.00  0.00    +0.000 C 
ATOM     13  C   UNL     1      -0.148  13.145  21.149  0.00  0.00    +0.000 C 
ATOM     14  C   UNL     1       0.329  11.733  21.422  0.00  0.00    +0.000 C 
ATOM     15  C   UNL     1       0.964  10.994  20.293  0.00  0.00    +0.000 C 
ATOM     16  O   UNL     1       1.629  11.558  19.433  0.00  0.00    +0.000 OA
ATOM     17  N   UNL     1       0.771   9.632  20.544  0.00  0.00    +0.000 N 
ENDBRANCH   1  17
BRANCH   5  18
ATOM     18  N   UNL     1       1.853   5.009  20.368  0.00  0.00    +0.000 N 
ATOM     19  O   UNL     1       0.997   4.296  19.825  0.00  0.00    +0.000 OA
ATOM     20  O   UNL     1       2.445   4.753  21.425  0.00  0.00    +0.000 OA
ENDBRANCH   5  18
BRANCH   4  21
ATOM     21  N   UNL     1       3.005   5.203  17.770  0.00  0.00    +0.000 N 
ATOM     22  H   UNL     1       2.319   4.835  17.106  0.00  0.00    +0.000 HD
BRANCH  21  23
ATOM     23  C   UNL     1       4.266   4.467  17.642  0.00  0.00    +0.000 C 
ATOM     24  C   UNL     1       4.982   4.694  16.318  0.00  0.00    +0.000 C 
ATOM     25  C   UNL     1       5.918   5.889  16.326  0.00  0.00    +0.000 C 
ATOM     26  C   UNL     1       6.891   5.882  17.500  0.00  0.00    +0.000 C 
ATOM     27  C   UNL     1       6.296   5.516  18.858  0.00  0.00    +0.000 C 
ATOM     28  C   UNL     1       5.199   4.459  18.847  0.00  0.00    +0.000 C 
ENDBRANCH  21  23
ENDBRANCH   4  21
TORSDOF 4
ENDMDL
MODEL 9
REMARK VINA RESULT:      -7.5      1.115      2.387
REMARK  Name = 
REMARK  4 active torsions:
REMARK  status: ('A' for Active; 'I' for Inactive)
REMARK    1  A    between atoms: N_11  and  C_12
REMARK    2  A    between atoms: C_15  and  N_16
REMARK    3  A    between atoms: N_16  and  C_17
REMARK    4  A    between atoms: C_23  and  N_24
REMARK                            x       y       z     vdW  Elec       q    Type
REMARK                         _______ _______ _______ _____ _____    ______ ____
ROOT
ATOM      1  C   UNL     1       1.404   9.234  19.417  0.00  0.00    +0.000 A 
ATOM      2  C   UNL     1       2.091   9.541  18.235  0.00  0.00    +0.000 A 
ATOM      3  C   UNL     1       2.932   8.586  17.593  0.00  0.00    +0.000 A 
ATOM      4  C   UNL     1       3.046   7.272  18.046  0.00  0.00    +0.000 A 
ATOM      5  C   UNL     1       2.371   7.025  19.256  0.00  0.00    +0.000 A 
ATOM      6  C   UNL     1       1.657   7.987  19.974  0.00  0.00    +0.000 A 
ENDROOT
BRANCH   1  17
ATOM      7  O   UNL     1      -1.125  10.449  18.246  0.00  0.00    +0.000 OA
ATOM      8  C   UNL     1      -0.707  10.625  19.375  0.00  0.00    +0.000 C 
ATOM      9  C   UNL     1      -1.247  11.631  20.374  0.00  0.00    +0.000 C 
ATOM     10  C   UNL     1      -2.685  12.108  20.363  0.00  0.00    +0.000 C 
ATOM     11  C   UNL     1      -2.899  13.046  21.568  0.00  0.00    +0.000 C 
ATOM     12  C   UNL     1      -2.509  12.405  22.910  0.00  0.00    +0.000 C 
ATOM     13  C   UNL     1      -1.101  11.805  22.880  0.00  0.00    +0.000 C 
ATOM     14  C   UNL     1      -0.976  10.898  21.674  0.00  0.00    +0.000 C 
ATOM     15  C   UNL     1       0.371  10.330  21.380  0.00  0.00    +0.000 C 
ATOM     16  O   UNL     1       1.171  10.050  22.265  0.00  0.00    +0.000 OA
ATOM     17  N   UNL     1       0.408  10.067  20.007  0.00  0.00    +0.000 N 
ENDBRANCH   1  17
BRANCH   5  18
ATOM     18  N   UNL     1       2.176   5.667  19.724  0.00  0.00    +0.000 N 
ATOM     19  O   UNL     1       1.838   4.833  18.871  0.00  0.00    +0.000 OA
ATOM     20  O   UNL     1       2.301   5.452  20.937  0.00  0.00    +0.000 OA
ENDBRANCH   5  18
BRANCH   4  21
ATOM     21  N   UNL     1       3.771   6.271  17.442  0.00  0.00    +0.000 N 
ATOM     22  H   UNL     1       3.324   5.356  17.545  0.00  0.00    +0.000 HD
BRANCH  21  23
ATOM     23  C   UNL     1       4.913   6.168  16.529  0.00  0.00    +0.000 C 
ATOM     24  C   UNL     1       6.166   6.875  17.026  0.00  0.00    +0.000 C 
ATOM     25  C   UNL     1       7.052   6.007  17.902  0.00  0.00    +0.000 C 
ATOM     26  C   UNL     1       7.377   4.656  17.275  0.00  0.00    +0.000 C 
ATOM     27  C   UNL     1       6.208   3.928  16.612  0.00  0.00    +0.000 C 
ATOM     28  C   UNL     1       5.188   4.809  15.899  0.00  0.00    +0.000 C 
ENDBRANCH  21  23
ENDBRANCH   4  21
TORSDOF 4
ENDMDL
