MODEL 1
REMARK VINA RESULT:      -7.3      0.000      0.000
REMARK  Name = 
REMARK  6 active torsions:
REMARK  status: ('A' for Active; 'I' for Inactive)
REMARK    1  A    between atoms: C_1  and  C_2
REMARK    2  A    between atoms: C_2  and  C_3
REMARK    3  A    between atoms: C_2  and  C_4
REMARK    4  A    between atoms: C_4  and  N_5
REMARK    5  A    between atoms: C_4  and  C_9
REMARK    6  A    between atoms: N_11  and  C_12
REMARK                            x       y       z     vdW  Elec       q    Type
REMARK                         _______ _______ _______ _____ _____    ______ ____
ROOT
ATOM      1  C   UNL     1       4.119   5.290  18.768  0.00  0.00    +0.000 C 
ATOM      2  O   UNL     1       4.849   5.848  19.585  0.00  0.00    +0.000 OA
ATOM      3  N   UNL     1       2.902   5.790  18.314  0.00  0.00    +0.000 N 
ATOM      4  H   UNL     1       2.339   5.187  17.723  0.00  0.00    +0.000 HD
ENDROOT
BRANCH   3   5
ATOM      5  C   UNL     1       2.317   7.013  18.726  0.00  0.00    +0.000 A 
ATOM      6  C   UNL     1       2.139   8.096  17.845  0.00  0.00    +0.000 A 
ATOM      7  C   UNL     1       1.622   9.319  18.280  0.00  0.00    +0.000 A 
ATOM      8  C   UNL     1       1.268   9.442  19.605  0.00  0.00    +0.000 A 
ATOM      9  C   UNL     1       1.406   8.371  20.491  0.00  0.00    +0.000 A 
ATOM     10  C   UNL     1       1.914   7.146  20.065  0.00  0.00    +0.000 A 
ATOM     11  C   UNL     1       1.029   8.795  21.878  0.00  0.00    +0.000 C 
ATOM     12  C   UNL     1       0.225  10.077  21.600  0.00  0.00    +0.000 C 
ATOM     13  C   UNL     1       0.783  10.674  20.302  0.00  0.00    +0.000 C 
ENDBRANCH   3   5
BRANCH   1  14
ATOM     14  C   UNL     1       4.587   4.005  18.055  0.00  0.00    +0.000 C 
BRANCH  14  15
ATOM     15  N   UNL     1       6.036   3.943  18.238  0.00  0.00    +0.000 N 
ATOM     16  C   UNL     1       6.923   4.452  17.351  0.00  0.00    +0.000 C 
ATOM     17  N   UNL     1       8.205   4.212  17.717  0.00  0.00    +0.000 N 
ATOM     18  O   UNL     1       6.638   5.043  16.322  0.00  0.00    +0.000 OA
ATOM     19  H   UNL     1       6.377   3.748  19.171  0.00  0.00    +0.000 HD
ATOM     20  H   UNL     1       8.391   3.341  18.195  0.00  0.00    +0.000 HD
ATOM     21  H   UNL     1       8.883   4.458  17.008  0.00  0.00    +0.000 HD
ENDBRANCH  14  15
BRANCH  14  23
ATOM     22  C   UNL     1       2.729   2.276  17.762  0.00  0.00    +0.000 C 
ATOM     23  C   UNL     1       3.937   2.703  18.598  0.00  0.00    +0.000 C 
ATOM     24  C   UNL     1       3.553   2.745  20.084  0.00  0.00    +0.000 C 
ENDBRANCH  14  23
ENDBRANCH   1  14
TORSDOF 4
ENDMDL
MODEL 2
REMARK VINA RESULT:      -7.3      1.834      2.642
REMARK  Name = 
REMARK  6 active torsions:
REMARK  status: ('A' for Active; 'I' for Inactive)
REMARK    1  A    between atoms: C_1  and  C_2
REMARK    2  A    between atoms: C_2  and  C_3
REMARK    3  A    between atoms: C_2  and  C_4
REMARK    4  A    between atoms: C_4  and  N_5
REMARK    5  A    between atoms: C_4  and  C_9
REMARK    6  A    between atoms: N_11  and  C_12
REMARK                            x       y       z     vdW  Elec       q    Type
REMARK                         _______ _______ _______ _____ _____    ______ ____
ROOT
ATOM      1  C   UNL     1       3.426   5.234  18.225  0.00  0.00    +0.000 C 
ATOM      2  O   UNL     1       2.313   4.733  18.077  0.00  0.00    +0.000 OA
ATOM      3  N   UNL     1       3.663   6.566  18.553  0.00  0.00    +0.000 N 
ATOM      4  H   UNL     1       4.625   6.888  18.540  0.00  0.00    +0.000 HD
ENDROOT
BRANCH   3   5
ATOM      5  C   UNL     1       2.662   7.546  18.762  0.00  0.00    +0.000 A 
ATOM      6  C   UNL     1       2.216   8.397  17.733  0.00  0.00    +0.000 A 
ATOM      7  C   UNL     1       1.276   9.403  17.968  0.00  0.00    +0.000 A 
ATOM      8  C   UNL     1       0.773   9.540  19.243  0.00  0.00    +0.000 A 
ATOM      9  C   UNL     1       1.176   8.687  20.273  0.00  0.00    +0.000 A 
ATOM     10  C   UNL     1       2.107   7.676  20.046  0.00  0.00    +0.000 A 
ATOM     11  C   UNL     1       0.543   9.102  21.566  0.00  0.00    +0.000 C 
ATOM     12  C   UNL     1      -0.615   9.986  21.071  0.00  0.00    +0.000 C 
ATOM     13  C   UNL     1      -0.167  10.594  19.737  0.00  0.00    +0.000 C 
ENDBRANCH   3   5
BRANCH   1  14
ATOM     14  C   UNL     1       4.690   4.351  18.188  0.00  0.00    +0.000 C 
BRANCH  14  15
ATOM     15  N   UNL     1       4.223   2.981  17.983  0.00  0.00    +0.000 N 
ATOM     16  C   UNL     1       4.318   2.011  18.922  0.00  0.00    +0.000 C 
ATOM     17  N   UNL     1       3.873   0.815  18.468  0.00  0.00    +0.000 N 
ATOM     18  O   UNL     1       4.766   2.156  20.048  0.00  0.00    +0.000 OA
ATOM     19  H   UNL     1       3.579   2.821  17.219  0.00  0.00    +0.000 HD
ATOM     20  H   UNL     1       4.030   0.608  17.491  0.00  0.00    +0.000 HD
ATOM     21  H   UNL     1       4.059   0.046  19.097  0.00  0.00    +0.000 HD
ENDBRANCH  14  15
BRANCH  14  23
ATOM     22  C   UNL     1       5.448   3.941  15.783  0.00  0.00    +0.000 C 
ATOM     23  C   UNL     1       5.699   4.730  17.070  0.00  0.00    +0.000 C 
ATOM     24  C   UNL     1       7.177   4.617  17.470  0.00  0.00    +0.000 C 
ENDBRANCH  14  23
ENDBRANCH   1  14
TORSDOF 4
ENDMDL
MODEL 3
REMARK VINA RESULT:      -7.3      3.502      5.128
REMARK  Name = 
REMARK  6 active torsions:
REMARK  status: ('A' for Active; 'I' for Inactive)
REMARK    1  A    between atoms: C_1  and  C_2
REMARK    2  A    between atoms: C_2  and  C_3
REMARK    3  A    between atoms: C_2  and  C_4
REMARK    4  A    between atoms: C_4  and  N_5
REMARK    5  A    between atoms: C_4  and  C_9
REMARK    6  A    between atoms: N_11  and  C_12
REMARK                            x       y       z     vdW  Elec       q    Type
REMARK                         _______ _______ _______ _____ _____    ______ ____
ROOT
ATOM      1  C   UNL     1       5.482   4.290  16.043  0.00  0.00    +0.000 C 
ATOM      2  O   UNL     1       6.073   3.307  16.487  0.00  0.00    +0.000 OA
ATOM      3  N   UNL     1       4.232   4.729  16.470  0.00  0.00    +0.000 N 
ATOM      4  H   UNL     1       3.799   5.487  15.952  0.00  0.00    +0.000 HD
ENDROOT
BRANCH   3   5
ATOM      5  C   UNL     1       3.449   4.110  17.476  0.00  0.00    +0.000 A 
ATOM      6  C   UNL     1       2.619   3.005  17.208  0.00  0.00    +0.000 A 
ATOM      7  C   UNL     1       1.801   2.445  18.193  0.00  0.00    +0.000 A 
ATOM      8  C   UNL     1       1.835   2.993  19.456  0.00  0.00    +0.000 A 
ATOM      9  C   UNL     1       2.675   4.070  19.753  0.00  0.00    +0.000 A 
ATOM     10  C   UNL     1       3.498   4.629  18.779  0.00  0.00    +0.000 A 
ATOM     11  C   UNL     1       2.458   4.520  21.166  0.00  0.00    +0.000 C 
ATOM     12  C   UNL     1       1.749   3.297  21.773  0.00  0.00    +0.000 C 
ATOM     13  C   UNL     1       0.988   2.616  20.630  0.00  0.00    +0.000 C 
ENDBRANCH   3   5
BRANCH   1  14
ATOM     14  C   UNL     1       6.175   5.225  15.031  0.00  0.00    +0.000 C 
BRANCH  14  15
ATOM     15  N   UNL     1       7.115   6.036  15.804  0.00  0.00    +0.000 N 
ATOM     16  C   UNL     1       6.731   6.931  16.744  0.00  0.00    +0.000 C 
ATOM     17  N   UNL     1       7.784   7.599  17.273  0.00  0.00    +0.000 N 
ATOM     18  O   UNL     1       5.580   7.151  17.086  0.00  0.00    +0.000 OA
ATOM     19  H   UNL     1       8.081   5.734  15.822  0.00  0.00    +0.000 HD
ATOM     20  H   UNL     1       8.559   7.797  16.655  0.00  0.00    +0.000 HD
ATOM     21  H   UNL     1       7.517   8.367  17.874  0.00  0.00    +0.000 HD
ENDBRANCH  14  15
BRANCH  14  23
ATOM     22  C   UNL     1       7.839   5.431  13.103  0.00  0.00    +0.000 C 
ATOM     23  C   UNL     1       6.936   4.485  13.898  0.00  0.00    +0.000 C 
ATOM     24  C   UNL     1       6.045   3.686  12.937  0.00  0.00    +0.000 C 
ENDBRANCH  14  23
ENDBRANCH   1  14
TORSDOF 4
ENDMDL
MODEL 4
REMARK VINA RESULT:      -7.2      1.413      1.426
REMARK  Name = 
REMARK  6 active torsions:
REMARK  status: ('A' for Active; 'I' for Inactive)
REMARK    1  A    between atoms: C_1  and  C_2
REMARK    2  A    between atoms: C_2  and  C_3
REMARK    3  A    between atoms: C_2  and  C_4
REMARK    4  A    between atoms: C_4  and  N_5
REMARK    5  A    between atoms: C_4  and  C_9
REMARK    6  A    between atoms: N_11  and  C_12
REMARK                            x       y       z     vdW  Elec       q    Type
REMARK                         _______ _______ _______ _____ _____    ______ ____
ROOT
ATOM      1  C   UNL     1       2.655   4.417  17.774  0.00  0.00    +0.000 C 
ATOM      2  O   UNL     1       1.507   4.393  17.333  0.00  0.00    +0.000 OA
ATOM      3  N   UNL     1       3.218   5.479  18.476  0.00  0.00    +0.000 N 
ATOM      4  H   UNL     1       4.208   5.425  18.692  0.00  0.00    +0.000 HD
ENDROOT
BRANCH   3   5
ATOM      5  C   UNL     1       2.558   6.694  18.784  0.00  0.00    +0.000 A 
ATOM      6  C   UNL     1       2.366   7.709  17.829  0.00  0.00    +0.000 A 
ATOM      7  C   UNL     1       1.773   8.929  18.162  0.00  0.00    +0.000 A 
ATOM      8  C   UNL     1       1.360   9.119  19.462  0.00  0.00    +0.000 A 
ATOM      9  C   UNL     1       1.512   8.114  20.421  0.00  0.00    +0.000 A 
ATOM     10  C   UNL     1       2.094   6.892  20.095  0.00  0.00    +0.000 A 
ATOM     11  C   UNL     1       1.057   8.606  21.761  0.00  0.00    +0.000 C 
ATOM     12  C   UNL     1       0.205   9.825  21.369  0.00  0.00    +0.000 C 
ATOM     13  C   UNL     1       0.787  10.366  20.058  0.00  0.00    +0.000 C 
ENDBRANCH   3   5
BRANCH   1  14
ATOM     14  C   UNL     1       3.547   3.160  17.694  0.00  0.00    +0.000 C 
BRANCH  14  15
ATOM     15  N   UNL     1       4.927   3.639  17.731  0.00  0.00    +0.000 N 
ATOM     16  C   UNL     1       5.637   3.960  16.623  0.00  0.00    +0.000 C 
ATOM     17  N   UNL     1       6.910   4.316  16.919  0.00  0.00    +0.000 N 
ATOM     18  O   UNL     1       5.218   3.924  15.478  0.00  0.00    +0.000 OA
ATOM     19  H   UNL     1       5.273   3.986  18.617  0.00  0.00    +0.000 HD
ATOM     20  H   UNL     1       7.350   3.844  17.697  0.00  0.00    +0.000 HD
ATOM     21  H   UNL     1       7.500   4.426  16.105  0.00  0.00    +0.000 HD
ENDBRANCH  14  15
BRANCH  14  23
ATOM     22  C   UNL     1       1.872   2.165  19.346  0.00  0.00    +0.000 C 
ATOM     23  C   UNL     1       3.317   2.142  18.843  0.00  0.00    +0.000 C 
ATOM     24  C   UNL     1       4.283   2.278  20.028  0.00  0.00    +0.000 C 
ENDBRANCH  14  23
ENDBRANCH   1  14
TORSDOF 4
ENDMDL
MODEL 5
REMARK VINA RESULT:      -7.2      1.376      1.376
REMARK  Name = 
REMARK  6 active torsions:
REMARK  status: ('A' for Active; 'I' for Inactive)
REMARK    1  A    between atoms: C_1  and  C_2
REMARK    2  A    between atoms: C_2  and  C_3
REMARK    3  A    between atoms: C_2  and  C_4
REMARK    4  A    between atoms: C_4  and  N_5
REMARK    5  A    between atoms: C_4  and  C_9
REMARK    6  A    between atoms: N_11  and  C_12
REMARK                            x       y       z     vdW  Elec       q    Type
REMARK                         _______ _______ _______ _____ _____    ______ ____
ROOT
ATOM      1  C   UNL     1       2.859   5.131  17.616  0.00  0.00    +0.000 C 
ATOM      2  O   UNL     1       1.702   4.731  17.721  0.00  0.00    +0.000 OA
ATOM      3  N   UNL     1       3.300   6.400  17.981  0.00  0.00    +0.000 N 
ATOM      4  H   UNL     1       4.255   6.650  17.744  0.00  0.00    +0.000 HD
ENDROOT
BRANCH   3   5
ATOM      5  C   UNL     1       2.485   7.423  18.523  0.00  0.00    +0.000 A 
ATOM      6  C   UNL     1       1.999   8.490  17.744  0.00  0.00    +0.000 A 
ATOM      7  C   UNL     1       1.251   9.528  18.305  0.00  0.00    +0.000 A 
ATOM      8  C   UNL     1       0.979   9.480  19.654  0.00  0.00    +0.000 A 
ATOM      9  C   UNL     1       1.423   8.414  20.442  0.00  0.00    +0.000 A 
ATOM     10  C   UNL     1       2.163   7.372  19.889  0.00  0.00    +0.000 A 
ATOM     11  C   UNL     1       1.063   8.648  21.877  0.00  0.00    +0.000 C 
ATOM     12  C   UNL     1      -0.030   9.723  21.750  0.00  0.00    +0.000 C 
ATOM     13  C   UNL     1       0.279  10.516  20.475  0.00  0.00    +0.000 C 
ENDBRANCH   3   5
BRANCH   1  14
ATOM     14  C   UNL     1       3.981   4.167  17.178  0.00  0.00    +0.000 C 
BRANCH  14  15
ATOM     15  N   UNL     1       5.164   4.995  16.952  0.00  0.00    +0.000 N 
ATOM     16  C   UNL     1       6.123   4.695  16.046  0.00  0.00    +0.000 C 
ATOM     17  N   UNL     1       7.146   5.584  16.072  0.00  0.00    +0.000 N 
ATOM     18  O   UNL     1       6.113   3.735  15.293  0.00  0.00    +0.000 OA
ATOM     19  H   UNL     1       5.135   5.947  17.296  0.00  0.00    +0.000 HD
ATOM     20  H   UNL     1       7.387   5.980  16.971  0.00  0.00    +0.000 HD
ATOM     21  H   UNL     1       7.937   5.310  15.506  0.00  0.00    +0.000 HD
ENDBRANCH  14  15
BRANCH  14  23
ATOM     22  C   UNL     1       3.426   1.824  18.033  0.00  0.00    +0.000 C 
ATOM     23  C   UNL     1       4.310   3.060  18.216  0.00  0.00    +0.000 C 
ATOM     24  C   UNL     1       4.268   3.516  19.682  0.00  0.00    +0.000 C 
ENDBRANCH  14  23
ENDBRANCH   1  14
TORSDOF 4
ENDMDL
MODEL 6
REMARK VINA RESULT:      -7.1      0.608      1.579
REMARK  Name = 
REMARK  6 active torsions:
REMARK  status: ('A' for Active; 'I' for Inactive)
REMARK    1  A    between atoms: C_1  and  C_2
REMARK    2  A    between atoms: C_2  and  C_3
REMARK    3  A    between atoms: C_2  and  C_4
REMARK    4  A    between atoms: C_4  and  N_5
REMARK    5  A    between atoms: C_4  and  C_9
REMARK    6  A    between atoms: N_11  and  C_12
REMARK                            x       y       z     vdW  Elec       q    Type
REMARK                         _______ _______ _______ _____ _____    ______ ____
ROOT
ATOM      1  C   UNL     1       4.055   5.132  18.776  0.00  0.00    +0.000 C 
ATOM      2  O   UNL     1       4.881   5.610  19.553  0.00  0.00    +0.000 OA
ATOM      3  N   UNL     1       2.790   5.659  18.534  0.00  0.00    +0.000 N 
ATOM      4  H   UNL     1       2.159   5.115  17.956  0.00  0.00    +0.000 HD
ENDROOT
BRANCH   3   5
ATOM      5  C   UNL     1       2.260   6.822  19.145  0.00  0.00    +0.000 A 
ATOM      6  C   UNL     1       1.799   6.828  20.475  0.00  0.00    +0.000 A 
ATOM      7  C   UNL     1       1.217   7.963  21.046  0.00  0.00    +0.000 A 
ATOM      8  C   UNL     1       1.114   9.099  20.275  0.00  0.00    +0.000 A 
ATOM      9  C   UNL     1       1.593   9.126  18.962  0.00  0.00    +0.000 A 
ATOM     10  C   UNL     1       2.182   8.002  18.389  0.00  0.00    +0.000 A 
ATOM     11  C   UNL     1       1.285  10.448  18.327  0.00  0.00    +0.000 C 
ATOM     12  C   UNL     1       0.999  11.323  19.560  0.00  0.00    +0.000 C 
ATOM     13  C   UNL     1       0.453  10.389  20.646  0.00  0.00    +0.000 C 
ENDBRANCH   3   5
BRANCH   1  14
ATOM     14  C   UNL     1       4.432   3.937  17.877  0.00  0.00    +0.000 C 
BRANCH  14  15
ATOM     15  N   UNL     1       5.893   3.921  17.813  0.00  0.00    +0.000 N 
ATOM     16  C   UNL     1       6.604   4.520  16.829  0.00  0.00    +0.000 C 
ATOM     17  N   UNL     1       7.936   4.308  16.961  0.00  0.00    +0.000 N 
ATOM     18  O   UNL     1       6.134   5.164  15.905  0.00  0.00    +0.000 OA
ATOM     19  H   UNL     1       6.390   3.680  18.661  0.00  0.00    +0.000 HD
ATOM     20  H   UNL     1       8.223   3.416  17.340  0.00  0.00    +0.000 HD
ATOM     21  H   UNL     1       8.478   4.625  16.169  0.00  0.00    +0.000 HD
ENDBRANCH  14  15
BRANCH  14  23
ATOM     22  C   UNL     1       2.574   2.188  17.765  0.00  0.00    +0.000 C 
ATOM     23  C   UNL     1       3.918   2.565  18.391  0.00  0.00    +0.000 C 
ATOM     24  C   UNL     1       3.834   2.439  19.919  0.00  0.00    +0.000 C 
ENDBRANCH  14  23
ENDBRANCH   1  14
TORSDOF 4
ENDMDL
MODEL 7
REMARK VINA RESULT:      -7.1      1.549      2.783
REMARK  Name = 
REMARK  6 active torsions:
REMARK  status: ('A' for Active; 'I' for Inactive)
REMARK    1  A    between atoms: C_1  and  C_2
REMARK    2  A    between atoms: C_2  and  C_3
REMARK    3  A    between atoms: C_2  and  C_4
REMARK    4  A    between atoms: C_4  and  N_5
REMARK    5  A    between atoms: C_4  and  C_9
REMARK    6  A    between atoms: N_11  and  C_12
REMARK                            x       y       z     vdW  Elec       q    Type
REMARK                         _______ _______ _______ _____ _____    ______ ____
ROOT
ATOM      1  C   UNL     1       4.781   5.255  18.741  0.00  0.00    +0.000 C 
ATOM      2  O   UNL     1       5.342   5.847  19.662  0.00  0.00    +0.000 OA
ATOM      3  N   UNL     1       3.599   5.666  18.133  0.00  0.00    +0.000 N 
ATOM      4  H   UNL     1       3.176   5.037  17.459  0.00  0.00    +0.000 HD
ENDROOT
BRANCH   3   5
ATOM      5  C   UNL     1       2.860   6.823  18.484  0.00  0.00    +0.000 A 
ATOM      6  C   UNL     1       2.699   7.908  17.602  0.00  0.00    +0.000 A 
ATOM      7  C   UNL     1       2.025   9.070  17.983  0.00  0.00    +0.000 A 
ATOM      8  C   UNL     1       1.496   9.130  19.254  0.00  0.00    +0.000 A 
ATOM      9  C   UNL     1       1.615   8.053  20.135  0.00  0.00    +0.000 A 
ATOM     10  C   UNL     1       2.280   6.888  19.761  0.00  0.00    +0.000 A 
ATOM     11  C   UNL     1       1.029   8.408  21.468  0.00  0.00    +0.000 C 
ATOM     12  C   UNL     1       0.156   9.622  21.106  0.00  0.00    +0.000 C 
ATOM     13  C   UNL     1       0.819  10.297  19.899  0.00  0.00    +0.000 C 
ENDBRANCH   3   5
BRANCH   1  14
ATOM     14  C   UNL     1       5.451   4.035  18.076  0.00  0.00    +0.000 C 
BRANCH  14  15
ATOM     15  N   UNL     1       4.385   3.061  17.848  0.00  0.00    +0.000 N 
ATOM     16  C   UNL     1       3.949   2.196  18.793  0.00  0.00    +0.000 C 
ATOM     17  N   UNL     1       3.000   1.355  18.316  0.00  0.00    +0.000 N 
ATOM     18  O   UNL     1       4.354   2.138  19.943  0.00  0.00    +0.000 OA
ATOM     19  H   UNL     1       3.784   3.212  17.048  0.00  0.00    +0.000 HD
ATOM     20  H   UNL     1       3.084   1.069  17.350  0.00  0.00    +0.000 HD
ATOM     21  H   UNL     1       2.756   0.612  18.957  0.00  0.00    +0.000 HD
ENDBRANCH  14  15
BRANCH  14  23
ATOM     22  C   UNL     1       6.944   5.667  16.799  0.00  0.00    +0.000 C 
ATOM     23  C   UNL     1       6.164   4.353  16.734  0.00  0.00    +0.000 C 
ATOM     24  C   UNL     1       5.248   4.352  15.501  0.00  0.00    +0.000 C 
ENDBRANCH  14  23
ENDBRANCH   1  14
TORSDOF 4
ENDMDL
MODEL 8
REMARK VINA RESULT:      -7.1      0.720      1.065
REMARK  Name = 
REMARK  6 active torsions:
REMARK  status: ('A' for Active; 'I' for Inactive)
REMARK    1  A    between atoms: C_1  and  C_2
REMARK    2  A    between atoms: C_2  and  C_3
REMARK    3  A    between atoms: C_2  and  C_4
REMARK    4  A    between atoms: C_4  and  N_5
REMARK    5  A    between atoms: C_4  and  C_9
REMARK    6  A    between atoms: N_11  and  C_12
REMARK                            x       y       z     vdW  Elec       q    Type
REMARK                         _______ _______ _______ _____ _____    ______ ____
ROOT
ATOM      1  C   UNL     1       4.138   5.883  17.976  0.00  0.00    +0.000 C 
ATOM      2  O   UNL     1       4.802   6.824  17.547  0.00  0.00    +0.000 OA
ATOM      3  N   UNL     1       2.915   6.003  18.630  0.00  0.00    +0.000 N 
ATOM      4  H   UNL     1       2.516   5.163  19.035  0.00  0.00    +0.000 HD
ENDROOT
BRANCH   3   5
ATOM      5  C   UNL     1       2.252   7.225  18.903  0.00  0.00    +0.000 A 
ATOM      6  C   UNL     1       1.999   8.183  17.904  0.00  0.00    +0.000 A 
ATOM      7  C   UNL     1       1.404   9.412  18.198  0.00  0.00    +0.000 A 
ATOM      8  C   UNL     1       1.049   9.668  19.504  0.00  0.00    +0.000 A 
ATOM      9  C   UNL     1       1.261   8.719  20.508  0.00  0.00    +0.000 A 
ATOM     10  C   UNL     1       1.847   7.489  20.222  0.00  0.00    +0.000 A 
ATOM     11  C   UNL     1       0.863   9.278  21.840  0.00  0.00    +0.000 C 
ATOM     12  C   UNL     1      -0.025  10.463  21.423  0.00  0.00    +0.000 C 
ATOM     13  C   UNL     1       0.486  10.938  20.058  0.00  0.00    +0.000 C 
ENDBRANCH   3   5
BRANCH   1  14
ATOM     14  C   UNL     1       4.568   4.430  17.689  0.00  0.00    +0.000 C 
BRANCH  14  15
ATOM     15  N   UNL     1       5.977   4.340  18.071  0.00  0.00    +0.000 N 
ATOM     16  C   UNL     1       6.996   4.391  17.183  0.00  0.00    +0.000 C 
ATOM     17  N   UNL     1       8.201   4.222  17.779  0.00  0.00    +0.000 N 
ATOM     18  O   UNL     1       6.881   4.546  15.978  0.00  0.00    +0.000 OA
ATOM     19  H   UNL     1       6.203   4.505  19.044  0.00  0.00    +0.000 HD
ATOM     20  H   UNL     1       8.237   3.599  18.574  0.00  0.00    +0.000 HD
ATOM     21  H   UNL     1       8.967   4.118  17.126  0.00  0.00    +0.000 HD
ENDBRANCH  14  15
BRANCH  14  23
ATOM     22  C   UNL     1       4.509   2.826  19.676  0.00  0.00    +0.000 C 
ATOM     23  C   UNL     1       3.750   3.359  18.459  0.00  0.00    +0.000 C 
ATOM     24  C   UNL     1       3.252   2.187  17.602  0.00  0.00    +0.000 C 
ENDBRANCH  14  23
ENDBRANCH   1  14
TORSDOF 4
ENDMDL
MODEL 9
REMARK VINA RESULT:      -7.1      1.296      1.525
REMARK  Name = 
REMARK  6 active torsions:
REMARK  status: ('A' for Active; 'I' for Inactive)
REMARK    1  A    between atoms: C_1  and  C_2
REMARK    2  A    between atoms: C_2  and  C_3
REMARK    3  A    between atoms: C_2  and  C_4
REMARK    4  A    between atoms: C_4  and  N_5
REMARK    5  A    between atoms: C_4  and  C_9
REMARK    6  A    between atoms: N_11  and  C_12
REMARK                            x       y       z     vdW  Elec       q    Type
REMARK                         _______ _______ _______ _____ _____    ______ ____
ROOT
ATOM      1  C   UNL     1       2.800   5.110  18.187  0.00  0.00    +0.000 C 
ATOM      2  O   UNL     1       1.676   4.892  17.737  0.00  0.00    +0.000 OA
ATOM      3  N   UNL     1       3.210   6.311  18.759  0.00  0.00    +0.000 N 
ATOM      4  H   UNL     1       4.193   6.406  18.994  0.00  0.00    +0.000 HD
ENDROOT
BRANCH   3   5
ATOM      5  C   UNL     1       2.400   7.463  18.908  0.00  0.00    +0.000 A 
ATOM      6  C   UNL     1       2.163   8.358  17.848  0.00  0.00    +0.000 A 
ATOM      7  C   UNL     1       1.417   9.525  18.024  0.00  0.00    +0.000 A 
ATOM      8  C   UNL     1       0.895   9.782  19.273  0.00  0.00    +0.000 A 
ATOM      9  C   UNL     1       1.090   8.893  20.333  0.00  0.00    +0.000 A 
ATOM     10  C   UNL     1       1.826   7.723  20.163  0.00  0.00    +0.000 A 
ATOM     11  C   UNL     1       0.491   9.448  21.589  0.00  0.00    +0.000 C 
ATOM     12  C   UNL     1      -0.461  10.519  21.030  0.00  0.00    +0.000 C 
ATOM     13  C   UNL     1       0.147  11.003  19.709  0.00  0.00    +0.000 C 
ENDBRANCH   3   5
BRANCH   1  14
ATOM     14  C   UNL     1       3.839   3.974  18.273  0.00  0.00    +0.000 C 
BRANCH  14  15
ATOM     15  N   UNL     1       4.965   4.510  19.036  0.00  0.00    +0.000 N 
ATOM     16  C   UNL     1       6.201   4.694  18.514  0.00  0.00    +0.000 C 
ATOM     17  N   UNL     1       7.084   5.142  19.439  0.00  0.00    +0.000 N 
ATOM     18  O   UNL     1       6.523   4.473  17.358  0.00  0.00    +0.000 OA
ATOM     19  H   UNL     1       4.751   4.996  19.897  0.00  0.00    +0.000 HD
ATOM     20  H   UNL     1       6.965   4.808  20.386  0.00  0.00    +0.000 HD
ATOM     21  H   UNL     1       8.041   5.156  19.114  0.00  0.00    +0.000 HD
ENDBRANCH  14  15
BRANCH  14  23
ATOM     22  C   UNL     1       3.756   2.589  20.418  0.00  0.00    +0.000 C 
ATOM     23  C   UNL     1       3.315   2.682  18.955  0.00  0.00    +0.000 C 
ATOM     24  C   UNL     1       3.662   1.378  18.223  0.00  0.00    +0.000 C 
ENDBRANCH  14  23
ENDBRANCH   1  14
TORSDOF 4
ENDMDL
