MODEL 1
REMARK VINA RESULT:      -7.2      0.000      0.000
REMARK  Name = 
REMARK  9 active torsions:
REMARK  status: ('A' for Active; 'I' for Inactive)
REMARK    1  A    between atoms: C_1  and  C_2
REMARK    2  A    between atoms: C_2  and  C_3
REMARK    3  A    between atoms: C_2  and  N_13
REMARK    4  A    between atoms: C_3  and  C_4
REMARK    5  A    between atoms: C_7  and  N_8
REMARK    6  A    between atoms: N_16  and  C_17
REMARK    7  A    between atoms: C_17  and  C_18
REMARK    8  A    between atoms: C_18  and  C_19
REMARK    9  A    between atoms: C_22  and  N_23
REMARK                            x       y       z     vdW  Elec       q    Type
REMARK                         _______ _______ _______ _____ _____    ______ ____
ROOT
ATOM      1  N   UNL     1       1.254  10.297  20.139  0.00  0.00    +0.000 NA
ATOM      2  C   UNL     1       0.425  11.501  19.886  0.00  0.00    +0.000 C 
ATOM      3  C   UNL     1      -1.063  11.354  20.297  0.00  0.00    +0.000 C 
ATOM      4  N   UNL     1      -1.290  10.895  21.687  0.00  0.00    +0.000 NA
ATOM      5  C   UNL     1      -0.448   9.700  21.926  0.00  0.00    +0.000 C 
ATOM      6  C   UNL     1       1.038   9.906  21.552  0.00  0.00    +0.000 C 
ENDROOT
BRANCH   1   8
ATOM      7  C   UNL     1       0.262   9.645  17.915  0.00  0.00    +0.000 C 
ATOM      8  C   UNL     1       0.991   9.177  19.191  0.00  0.00    +0.000 C 
BRANCH   8   9
ATOM      9  C   UNL     1       2.276   8.383  18.790  0.00  0.00    +0.000 C 
BRANCH   9  10
ATOM     10  C   UNL     1       2.224   6.893  19.058  0.00  0.00    +0.000 A 
ATOM     11  C   UNL     1       2.370   5.958  18.020  0.00  0.00    +0.000 A 
ATOM     12  C   UNL     1       2.236   4.592  18.263  0.00  0.00    +0.000 A 
ATOM     13  C   UNL     1       1.959   4.152  19.563  0.00  0.00    +0.000 A 
ATOM     14  C   UNL     1       1.842   5.069  20.613  0.00  0.00    +0.000 A 
ATOM     15  C   UNL     1       1.982   6.433  20.359  0.00  0.00    +0.000 A 
BRANCH  13  16
ATOM     16  N   UNL     1       1.771   2.722  19.820  0.00  0.00    +0.000 N 
ATOM     17  O   UNL     1       1.850   1.945  18.858  0.00  0.00    +0.000 OA
ATOM     18  O   UNL     1       1.538   2.373  20.987  0.00  0.00    +0.000 OA
ENDBRANCH  13  16
ENDBRANCH   9  10
ENDBRANCH   8   9
ENDBRANCH   1   8
BRANCH   4  19
ATOM     19  C   UNL     1      -0.966  11.920  22.694  0.00  0.00    +0.000 C 
BRANCH  19  20
ATOM     20  C   UNL     1      -1.784  13.213  22.584  0.00  0.00    +0.000 C 
BRANCH  20  21
ATOM     21  C   UNL     1      -3.226  12.912  22.920  0.00  0.00    +0.000 A 
ATOM     22  C   UNL     1      -4.232  13.174  21.978  0.00  0.00    +0.000 A 
ATOM     23  C   UNL     1      -5.574  13.006  22.316  0.00  0.00    +0.000 A 
ATOM     24  C   UNL     1      -5.908  12.578  23.607  0.00  0.00    +0.000 A 
ATOM     25  C   UNL     1      -4.913  12.307  24.553  0.00  0.00    +0.000 A 
ATOM     26  C   UNL     1      -3.571  12.476  24.206  0.00  0.00    +0.000 A 
BRANCH  24  27
ATOM     27  N   UNL     1      -7.321  12.431  23.977  0.00  0.00    +0.000 N 
ATOM     28  O   UNL     1      -7.869  13.381  24.556  0.00  0.00    +0.000 OA
ATOM     29  O   UNL     1      -7.883  11.364  23.693  0.00  0.00    +0.000 OA
ENDBRANCH  24  27
ENDBRANCH  20  21
ENDBRANCH  19  20
ENDBRANCH   4  19
TORSDOF 8
ENDMDL
MODEL 2
REMARK VINA RESULT:      -6.8      4.837      7.103
REMARK  Name = 
REMARK  9 active torsions:
REMARK  status: ('A' for Active; 'I' for Inactive)
REMARK    1  A    between atoms: C_1  and  C_2
REMARK    2  A    between atoms: C_2  and  C_3
REMARK    3  A    between atoms: C_2  and  N_13
REMARK    4  A    between atoms: C_3  and  C_4
REMARK    5  A    between atoms: C_7  and  N_8
REMARK    6  A    between atoms: N_16  and  C_17
REMARK    7  A    between atoms: C_17  and  C_18
REMARK    8  A    between atoms: C_18  and  C_19
REMARK    9  A    between atoms: C_22  and  N_23
REMARK                            x       y       z     vdW  Elec       q    Type
REMARK                         _______ _______ _______ _____ _____    ______ ____
ROOT
ATOM      1  N   UNL     1       1.871   3.635  18.675  0.00  0.00    +0.000 NA
ATOM      2  C   UNL     1       1.463   3.731  20.097  0.00  0.00    +0.000 C 
ATOM      3  C   UNL     1       2.239   4.794  20.918  0.00  0.00    +0.000 C 
ATOM      4  N   UNL     1       2.259   6.152  20.329  0.00  0.00    +0.000 NA
ATOM      5  C   UNL     1       2.658   6.038  18.907  0.00  0.00    +0.000 C 
ATOM      6  C   UNL     1       1.825   5.005  18.113  0.00  0.00    +0.000 C 
ENDROOT
BRANCH   1   8
ATOM      7  C   UNL     1       3.102   1.442  18.509  0.00  0.00    +0.000 C 
ATOM      8  C   UNL     1       3.195   2.981  18.473  0.00  0.00    +0.000 C 
BRANCH   8   9
ATOM      9  C   UNL     1       3.918   3.423  17.160  0.00  0.00    +0.000 C 
BRANCH   9  10
ATOM     10  C   UNL     1       5.009   4.459  17.342  0.00  0.00    +0.000 A 
ATOM     11  C   UNL     1       5.777   4.514  18.516  0.00  0.00    +0.000 A 
ATOM     12  C   UNL     1       6.719   5.522  18.709  0.00  0.00    +0.000 A 
ATOM     13  C   UNL     1       6.905   6.486  17.711  0.00  0.00    +0.000 A 
ATOM     14  C   UNL     1       6.169   6.426  16.521  0.00  0.00    +0.000 A 
ATOM     15  C   UNL     1       5.231   5.411  16.338  0.00  0.00    +0.000 A 
BRANCH  13  16
ATOM     16  N   UNL     1       7.860   7.576  17.923  0.00  0.00    +0.000 N 
ATOM     17  O   UNL     1       7.830   8.534  17.138  0.00  0.00    +0.000 OA
ATOM     18  O   UNL     1       8.648   7.473  18.875  0.00  0.00    +0.000 OA
ENDBRANCH  13  16
ENDBRANCH   9  10
ENDBRANCH   8   9
ENDBRANCH   1   8
BRANCH   4  19
ATOM     19  C   UNL     1       0.956   6.836  20.408  0.00  0.00    +0.000 C 
BRANCH  19  20
ATOM     20  C   UNL     1       0.908   8.021  21.382  0.00  0.00    +0.000 C 
BRANCH  20  21
ATOM     21  C   UNL     1       0.743   9.298  20.593  0.00  0.00    +0.000 A 
ATOM     22  C   UNL     1       1.375   9.437  19.349  0.00  0.00    +0.000 A 
ATOM     23  C   UNL     1       1.322  10.651  18.664  0.00  0.00    +0.000 A 
ATOM     24  C   UNL     1       0.636  11.731  19.233  0.00  0.00    +0.000 A 
ATOM     25  C   UNL     1      -0.004  11.602  20.471  0.00  0.00    +0.000 A 
ATOM     26  C   UNL     1       0.052  10.383  21.150  0.00  0.00    +0.000 A 
BRANCH  24  27
ATOM     27  N   UNL     1       0.605  13.020  18.531  0.00  0.00    +0.000 N 
ATOM     28  O   UNL     1       1.633  13.379  17.939  0.00  0.00    +0.000 OA
ATOM     29  O   UNL     1      -0.445  13.674  18.574  0.00  0.00    +0.000 OA
ENDBRANCH  24  27
ENDBRANCH  20  21
ENDBRANCH  19  20
ENDBRANCH   4  19
TORSDOF 8
ENDMDL
MODEL 3
REMARK VINA RESULT:      -6.7      4.428      6.895
REMARK  Name = 
REMARK  9 active torsions:
REMARK  status: ('A' for Active; 'I' for Inactive)
REMARK    1  A    between atoms: C_1  and  C_2
REMARK    2  A    between atoms: C_2  and  C_3
REMARK    3  A    between atoms: C_2  and  N_13
REMARK    4  A    between atoms: C_3  and  C_4
REMARK    5  A    between atoms: C_7  and  N_8
REMARK    6  A    between atoms: N_16  and  C_17
REMARK    7  A    between atoms: C_17  and  C_18
REMARK    8  A    between atoms: C_18  and  C_19
REMARK    9  A    between atoms: C_22  and  N_23
REMARK                            x       y       z     vdW  Elec       q    Type
REMARK                         _______ _______ _______ _____ _____    ______ ____
ROOT
ATOM      1  N   UNL     1       2.504   4.460  17.842  0.00  0.00    +0.000 NA
ATOM      2  C   UNL     1       1.246   4.144  18.562  0.00  0.00    +0.000 C 
ATOM      3  C   UNL     1       1.374   4.136  20.108  0.00  0.00    +0.000 C 
ATOM      4  N   UNL     1       1.974   5.357  20.695  0.00  0.00    +0.000 NA
ATOM      5  C   UNL     1       3.221   5.664  19.960  0.00  0.00    +0.000 C 
ATOM      6  C   UNL     1       3.039   5.713  18.425  0.00  0.00    +0.000 C 
ENDROOT
BRANCH   1   8
ATOM      7  C   UNL     1       2.846   1.968  17.676  0.00  0.00    +0.000 C 
ATOM      8  C   UNL     1       3.500   3.352  17.861  0.00  0.00    +0.000 C 
BRANCH   8   9
ATOM      9  C   UNL     1       4.647   3.525  16.814  0.00  0.00    +0.000 C 
BRANCH   9  10
ATOM     10  C   UNL     1       5.595   4.677  17.079  0.00  0.00    +0.000 A 
ATOM     11  C   UNL     1       6.504   4.645  18.148  0.00  0.00    +0.000 A 
ATOM     12  C   UNL     1       7.312   5.744  18.434  0.00  0.00    +0.000 A 
ATOM     13  C   UNL     1       7.217   6.890  17.636  0.00  0.00    +0.000 A 
ATOM     14  C   UNL     1       6.339   6.925  16.547  0.00  0.00    +0.000 A 
ATOM     15  C   UNL     1       5.538   5.818  16.268  0.00  0.00    +0.000 A 
BRANCH  13  16
ATOM     16  N   UNL     1       8.029   8.067  17.956  0.00  0.00    +0.000 N 
ATOM     17  O   UNL     1       7.958   9.043  17.197  0.00  0.00    +0.000 OA
ATOM     18  O   UNL     1       8.745   8.014  18.967  0.00  0.00    +0.000 OA
ENDBRANCH  13  16
ENDBRANCH   9  10
ENDBRANCH   8   9
ENDBRANCH   1   8
BRANCH   4  19
ATOM     19  C   UNL     1       1.080   6.526  20.634  0.00  0.00    +0.000 C 
BRANCH  19  20
ATOM     20  C   UNL     1       1.743   7.865  20.984  0.00  0.00    +0.000 C 
BRANCH  20  21
ATOM     21  C   UNL     1       0.912   8.989  20.413  0.00  0.00    +0.000 A 
ATOM     22  C   UNL     1       1.176   9.466  19.120  0.00  0.00    +0.000 A 
ATOM     23  C   UNL     1       0.492  10.575  18.625  0.00  0.00    +0.000 A 
ATOM     24  C   UNL     1      -0.458  11.213  19.434  0.00  0.00    +0.000 A 
ATOM     25  C   UNL     1      -0.735  10.742  20.723  0.00  0.00    +0.000 A 
ATOM     26  C   UNL     1      -0.046   9.630  21.210  0.00  0.00    +0.000 A 
BRANCH  24  27
ATOM     27  N   UNL     1      -1.157  12.401  18.929  0.00  0.00    +0.000 N 
ATOM     28  O   UNL     1      -0.577  13.096  18.083  0.00  0.00    +0.000 OA
ATOM     29  O   UNL     1      -2.285  12.640  19.380  0.00  0.00    +0.000 OA
ENDBRANCH  24  27
ENDBRANCH  20  21
ENDBRANCH  19  20
ENDBRANCH   4  19
TORSDOF 8
ENDMDL
MODEL 4
REMARK VINA RESULT:      -6.7      3.836      6.180
REMARK  Name = 
REMARK  9 active torsions:
REMARK  status: ('A' for Active; 'I' for Inactive)
REMARK    1  A    between atoms: C_1  and  C_2
REMARK    2  A    between atoms: C_2  and  C_3
REMARK    3  A    between atoms: C_2  and  N_13
REMARK    4  A    between atoms: C_3  and  C_4
REMARK    5  A    between atoms: C_7  and  N_8
REMARK    6  A    between atoms: N_16  and  C_17
REMARK    7  A    between atoms: C_17  and  C_18
REMARK    8  A    between atoms: C_18  and  C_19
REMARK    9  A    between atoms: C_22  and  N_23
REMARK                            x       y       z     vdW  Elec       q    Type
REMARK                         _______ _______ _______ _____ _____    ______ ____
ROOT
ATOM      1  N   UNL     1       1.500   4.152  18.745  0.00  0.00    +0.000 NA
ATOM      2  C   UNL     1       0.958   4.246  20.123  0.00  0.00    +0.000 C 
ATOM      3  C   UNL     1       1.839   5.060  21.106  0.00  0.00    +0.000 C 
ATOM      4  N   UNL     1       2.213   6.416  20.640  0.00  0.00    +0.000 NA
ATOM      5  C   UNL     1       2.741   6.306  19.261  0.00  0.00    +0.000 C 
ATOM      6  C   UNL     1       1.809   5.532  18.302  0.00  0.00    +0.000 C 
ENDROOT
BRANCH   1   8
ATOM      7  C   UNL     1       2.278   1.755  18.772  0.00  0.00    +0.000 C 
ATOM      8  C   UNL     1       2.670   3.239  18.621  0.00  0.00    +0.000 C 
BRANCH   8   9
ATOM      9  C   UNL     1       3.473   3.427  17.294  0.00  0.00    +0.000 C 
BRANCH   9  10
ATOM     10  C   UNL     1       4.661   4.363  17.386  0.00  0.00    +0.000 A 
ATOM     11  C   UNL     1       5.574   4.283  18.450  0.00  0.00    +0.000 A 
ATOM     12  C   UNL     1       6.615   5.203  18.570  0.00  0.00    +0.000 A 
ATOM     13  C   UNL     1       6.752   6.212  17.609  0.00  0.00    +0.000 A 
ATOM     14  C   UNL     1       5.869   6.284  16.526  0.00  0.00    +0.000 A 
ATOM     15  C   UNL     1       4.834   5.357  16.413  0.00  0.00    +0.000 A 
BRANCH  13  16
ATOM     16  N   UNL     1       7.815   7.210  17.752  0.00  0.00    +0.000 N 
ATOM     17  O   UNL     1       8.392   7.289  18.845  0.00  0.00    +0.000 OA
ATOM     18  O   UNL     1       8.071   7.922  16.769  0.00  0.00    +0.000 OA
ENDBRANCH  13  16
ENDBRANCH   9  10
ENDBRANCH   8   9
ENDBRANCH   1   8
BRANCH   4  19
ATOM     19  C   UNL     1       1.083   7.361  20.648  0.00  0.00    +0.000 C 
BRANCH  19  20
ATOM     20  C   UNL     1       1.200   8.498  21.671  0.00  0.00    +0.000 C 
BRANCH  20  21
ATOM     21  C   UNL     1       0.315   9.642  21.237  0.00  0.00    +0.000 A 
ATOM     22  C   UNL     1      -0.201  10.528  22.195  0.00  0.00    +0.000 A 
ATOM     23  C   UNL     1      -1.108  11.520  21.821  0.00  0.00    +0.000 A 
ATOM     24  C   UNL     1      -1.502  11.619  20.481  0.00  0.00    +0.000 A 
ATOM     25  C   UNL     1      -0.989  10.745  19.515  0.00  0.00    +0.000 A 
ATOM     26  C   UNL     1      -0.081   9.756  19.898  0.00  0.00    +0.000 A 
BRANCH  24  27
ATOM     27  N   UNL     1      -2.481  12.640  20.088  0.00  0.00    +0.000 N 
ATOM     28  O   UNL     1      -3.485  12.267  19.463  0.00  0.00    +0.000 OA
ATOM     29  O   UNL     1      -2.245  13.814  20.402  0.00  0.00    +0.000 OA
ENDBRANCH  24  27
ENDBRANCH  20  21
ENDBRANCH  19  20
ENDBRANCH   4  19
TORSDOF 8
ENDMDL
MODEL 5
REMARK VINA RESULT:      -6.7      3.274      9.286
REMARK  Name = 
REMARK  9 active torsions:
REMARK  status: ('A' for Active; 'I' for Inactive)
REMARK    1  A    between atoms: C_1  and  C_2
REMARK    2  A    between atoms: C_2  and  C_3
REMARK    3  A    between atoms: C_2  and  N_13
REMARK    4  A    between atoms: C_3  and  C_4
REMARK    5  A    between atoms: C_7  and  N_8
REMARK    6  A    between atoms: N_16  and  C_17
REMARK    7  A    between atoms: C_17  and  C_18
REMARK    8  A    between atoms: C_18  and  C_19
REMARK    9  A    between atoms: C_22  and  N_23
REMARK                            x       y       z     vdW  Elec       q    Type
REMARK                         _______ _______ _______ _____ _____    ______ ____
ROOT
ATOM      1  N   UNL     1      -0.078  11.200  22.364  0.00  0.00    +0.000 NA
ATOM      2  C   UNL     1      -0.088   9.939  23.145  0.00  0.00    +0.000 C 
ATOM      3  C   UNL     1      -0.601   8.702  22.363  0.00  0.00    +0.000 C 
ATOM      4  N   UNL     1       0.065   8.460  21.062  0.00  0.00    +0.000 NA
ATOM      5  C   UNL     1       0.076   9.729  20.300  0.00  0.00    +0.000 C 
ATOM      6  C   UNL     1       0.643  10.925  21.099  0.00  0.00    +0.000 C 
ENDROOT
BRANCH   1   8
ATOM      7  C   UNL     1      -2.073  12.311  23.431  0.00  0.00    +0.000 C 
ATOM      8  C   UNL     1      -1.433  11.774  22.134  0.00  0.00    +0.000 C 
BRANCH   8   9
ATOM      9  C   UNL     1      -1.462  12.892  21.043  0.00  0.00    +0.000 C 
BRANCH   9  10
ATOM     10  C   UNL     1      -2.001  12.464  19.694  0.00  0.00    +0.000 A 
ATOM     11  C   UNL     1      -3.338  12.066  19.534  0.00  0.00    +0.000 A 
ATOM     12  C   UNL     1      -3.802  11.593  18.307  0.00  0.00    +0.000 A 
ATOM     13  C   UNL     1      -2.921  11.525  17.222  0.00  0.00    +0.000 A 
ATOM     14  C   UNL     1      -1.594  11.948  17.357  0.00  0.00    +0.000 A 
ATOM     15  C   UNL     1      -1.141  12.423  18.588  0.00  0.00    +0.000 A 
BRANCH  13  16
ATOM     16  N   UNL     1      -3.387  10.987  15.942  0.00  0.00    +0.000 N 
ATOM     17  O   UNL     1      -2.535  10.696  15.090  0.00  0.00    +0.000 OA
ATOM     18  O   UNL     1      -4.610  10.858  15.783  0.00  0.00    +0.000 OA
ENDBRANCH  13  16
ENDBRANCH   9  10
ENDBRANCH   8   9
ENDBRANCH   1   8
BRANCH   4  19
ATOM     19  C   UNL     1       1.448   7.972  21.204  0.00  0.00    +0.000 C 
BRANCH  19  20
ATOM     20  C   UNL     1       2.193   7.750  19.881  0.00  0.00    +0.000 C 
BRANCH  20  21
ATOM     21  C   UNL     1       2.348   6.266  19.648  0.00  0.00    +0.000 A 
ATOM     22  C   UNL     1       3.004   5.804  18.497  0.00  0.00    +0.000 A 
ATOM     23  C   UNL     1       3.056   4.440  18.215  0.00  0.00    +0.000 A 
ATOM     24  C   UNL     1       2.440   3.535  19.089  0.00  0.00    +0.000 A 
ATOM     25  C   UNL     1       1.788   3.983  20.244  0.00  0.00    +0.000 A 
ATOM     26  C   UNL     1       1.743   5.351  20.520  0.00  0.00    +0.000 A 
BRANCH  24  27
ATOM     27  N   UNL     1       2.464   2.100  18.779  0.00  0.00    +0.000 N 
ATOM     28  O   UNL     1       1.479   1.422  19.107  0.00  0.00    +0.000 OA
ATOM     29  O   UNL     1       3.468   1.650  18.211  0.00  0.00    +0.000 OA
ENDBRANCH  24  27
ENDBRANCH  20  21
ENDBRANCH  19  20
ENDBRANCH   4  19
TORSDOF 8
ENDMDL
MODEL 6
REMARK VINA RESULT:      -6.7      3.560     10.501
REMARK  Name = 
REMARK  9 active torsions:
REMARK  status: ('A' for Active; 'I' for Inactive)
REMARK    1  A    between atoms: C_1  and  C_2
REMARK    2  A    between atoms: C_2  and  C_3
REMARK    3  A    between atoms: C_2  and  N_13
REMARK    4  A    between atoms: C_3  and  C_4
REMARK    5  A    between atoms: C_7  and  N_8
REMARK    6  A    between atoms: N_16  and  C_17
REMARK    7  A    between atoms: C_17  and  C_18
REMARK    8  A    between atoms: C_18  and  C_19
REMARK    9  A    between atoms: C_22  and  N_23
REMARK                            x       y       z     vdW  Elec       q    Type
REMARK                         _______ _______ _______ _____ _____    ______ ____
ROOT
ATOM      1  N   UNL     1       0.994  11.535  20.480  0.00  0.00    +0.000 NA
ATOM      2  C   UNL     1       1.357  10.378  21.334  0.00  0.00    +0.000 C 
ATOM      3  C   UNL     1       0.677   9.043  20.933  0.00  0.00    +0.000 C 
ATOM      4  N   UNL     1       0.833   8.661  19.510  0.00  0.00    +0.000 NA
ATOM      5  C   UNL     1       0.478   9.828  18.671  0.00  0.00    +0.000 C 
ATOM      6  C   UNL     1       1.217  11.126  19.073  0.00  0.00    +0.000 C 
ENDROOT
BRANCH   1   8
ATOM      7  C   UNL     1      -0.447  13.077  21.856  0.00  0.00    +0.000 C 
ATOM      8  C   UNL     1      -0.386  12.044  20.713  0.00  0.00    +0.000 C 
BRANCH   8   9
ATOM      9  C   UNL     1      -1.055  12.648  19.436  0.00  0.00    +0.000 C 
BRANCH   9  10
ATOM     10  C   UNL     1      -2.476  12.194  19.176  0.00  0.00    +0.000 A 
ATOM     11  C   UNL     1      -2.786  11.338  18.107  0.00  0.00    +0.000 A 
ATOM     12  C   UNL     1      -4.108  10.994  17.825  0.00  0.00    +0.000 A 
ATOM     13  C   UNL     1      -5.135  11.507  18.626  0.00  0.00    +0.000 A 
ATOM     14  C   UNL     1      -4.839  12.336  19.714  0.00  0.00    +0.000 A 
ATOM     15  C   UNL     1      -3.513  12.670  19.989  0.00  0.00    +0.000 A 
BRANCH  13  16
ATOM     16  N   UNL     1      -6.529  11.189  18.310  0.00  0.00    +0.000 N 
ATOM     17  O   UNL     1      -7.176  12.013  17.649  0.00  0.00    +0.000 OA
ATOM     18  O   UNL     1      -6.983  10.113  18.728  0.00  0.00    +0.000 OA
ENDBRANCH  13  16
ENDBRANCH   9  10
ENDBRANCH   8   9
ENDBRANCH   1   8
BRANCH   4  19
ATOM     19  C   UNL     1       2.202   8.228  19.176  0.00  0.00    +0.000 C 
BRANCH  19  20
ATOM     20  C   UNL     1       2.336   7.492  17.837  0.00  0.00    +0.000 C 
BRANCH  20  21
ATOM     21  C   UNL     1       3.696   6.837  17.771  0.00  0.00    +0.000 A 
ATOM     22  C   UNL     1       4.520   7.049  16.655  0.00  0.00    +0.000 A 
ATOM     23  C   UNL     1       5.727   6.363  16.531  0.00  0.00    +0.000 A 
ATOM     24  C   UNL     1       6.106   5.455  17.528  0.00  0.00    +0.000 A 
ATOM     25  C   UNL     1       5.295   5.240  18.649  0.00  0.00    +0.000 A 
ATOM     26  C   UNL     1       4.089   5.933  18.766  0.00  0.00    +0.000 A 
BRANCH  24  27
ATOM     27  N   UNL     1       7.360   4.706  17.385  0.00  0.00    +0.000 N 
ATOM     28  O   UNL     1       7.971   4.399  18.420  0.00  0.00    +0.000 OA
ATOM     29  O   UNL     1       7.737   4.427  16.239  0.00  0.00    +0.000 OA
ENDBRANCH  24  27
ENDBRANCH  20  21
ENDBRANCH  19  20
ENDBRANCH   4  19
TORSDOF 8
ENDMDL
MODEL 7
REMARK VINA RESULT:      -6.6      4.033      6.278
REMARK  Name = 
REMARK  9 active torsions:
REMARK  status: ('A' for Active; 'I' for Inactive)
REMARK    1  A    between atoms: C_1  and  C_2
REMARK    2  A    between atoms: C_2  and  C_3
REMARK    3  A    between atoms: C_2  and  N_13
REMARK    4  A    between atoms: C_3  and  C_4
REMARK    5  A    between atoms: C_7  and  N_8
REMARK    6  A    between atoms: N_16  and  C_17
REMARK    7  A    between atoms: C_17  and  C_18
REMARK    8  A    between atoms: C_18  and  C_19
REMARK    9  A    between atoms: C_22  and  N_23
REMARK                            x       y       z     vdW  Elec       q    Type
REMARK                         _______ _______ _______ _____ _____    ______ ____
ROOT
ATOM      1  N   UNL     1       1.786   4.215  18.468  0.00  0.00    +0.000 NA
ATOM      2  C   UNL     1       1.120   4.236  19.792  0.00  0.00    +0.000 C 
ATOM      3  C   UNL     1       1.878   5.039  20.881  0.00  0.00    +0.000 C 
ATOM      4  N   UNL     1       2.243   6.424  20.501  0.00  0.00    +0.000 NA
ATOM      5  C   UNL     1       2.897   6.387  19.173  0.00  0.00    +0.000 C 
ATOM      6  C   UNL     1       2.083   5.621  18.105  0.00  0.00    +0.000 C 
ENDROOT
BRANCH   1   8
ATOM      7  C   UNL     1       2.648   1.847  18.520  0.00  0.00    +0.000 C 
ATOM      8  C   UNL     1       2.996   3.346  18.418  0.00  0.00    +0.000 C 
BRANCH   8   9
ATOM      9  C   UNL     1       3.886   3.585  17.156  0.00  0.00    +0.000 C 
BRANCH   9  10
ATOM     10  C   UNL     1       4.995   4.602  17.332  0.00  0.00    +0.000 A 
ATOM     11  C   UNL     1       5.857   4.561  18.440  0.00  0.00    +0.000 A 
ATOM     12  C   UNL     1       6.819   5.550  18.636  0.00  0.00    +0.000 A 
ATOM     13  C   UNL     1       6.928   6.593  17.708  0.00  0.00    +0.000 A 
ATOM     14  C   UNL     1       6.098   6.630  16.582  0.00  0.00    +0.000 A 
ATOM     15  C   UNL     1       5.141   5.633  16.394  0.00  0.00    +0.000 A 
BRANCH  13  16
ATOM     16  N   UNL     1       7.905   7.662  17.930  0.00  0.00    +0.000 N 
ATOM     17  O   UNL     1       8.662   7.561  18.905  0.00  0.00    +0.000 OA
ATOM     18  O   UNL     1       7.912   8.609  17.129  0.00  0.00    +0.000 OA
ENDBRANCH  13  16
ENDBRANCH   9  10
ENDBRANCH   8   9
ENDBRANCH   1   8
BRANCH   4  19
ATOM     19  C   UNL     1       1.083   7.330  20.440  0.00  0.00    +0.000 C 
BRANCH  19  20
ATOM     20  C   UNL     1       0.486   7.708  21.802  0.00  0.00    +0.000 C 
BRANCH  20  21
ATOM     21  C   UNL     1      -0.025   9.128  21.738  0.00  0.00    +0.000 A 
ATOM     22  C   UNL     1       0.120   9.870  20.557  0.00  0.00    +0.000 A 
ATOM     23  C   UNL     1      -0.246  11.214  20.520  0.00  0.00    +0.000 A 
ATOM     24  C   UNL     1      -0.754  11.819  21.677  0.00  0.00    +0.000 A 
ATOM     25  C   UNL     1      -0.909  11.087  22.860  0.00  0.00    +0.000 A 
ATOM     26  C   UNL     1      -0.542   9.740  22.888  0.00  0.00    +0.000 A 
BRANCH  24  27
ATOM     27  N   UNL     1      -1.110  13.243  21.652  0.00  0.00    +0.000 N 
ATOM     28  O   UNL     1      -1.635  13.689  20.622  0.00  0.00    +0.000 OA
ATOM     29  O   UNL     1      -0.860  13.916  22.662  0.00  0.00    +0.000 OA
ENDBRANCH  24  27
ENDBRANCH  20  21
ENDBRANCH  19  20
ENDBRANCH   4  19
TORSDOF 8
ENDMDL
MODEL 8
REMARK VINA RESULT:      -6.6      1.982     10.508
REMARK  Name = 
REMARK  9 active torsions:
REMARK  status: ('A' for Active; 'I' for Inactive)
REMARK    1  A    between atoms: C_1  and  C_2
REMARK    2  A    between atoms: C_2  and  C_3
REMARK    3  A    between atoms: C_2  and  N_13
REMARK    4  A    between atoms: C_3  and  C_4
REMARK    5  A    between atoms: C_7  and  N_8
REMARK    6  A    between atoms: N_16  and  C_17
REMARK    7  A    between atoms: C_17  and  C_18
REMARK    8  A    between atoms: C_18  and  C_19
REMARK    9  A    between atoms: C_22  and  N_23
REMARK                            x       y       z     vdW  Elec       q    Type
REMARK                         _______ _______ _______ _____ _____    ______ ____
ROOT
ATOM      1  N   UNL     1      -0.162  11.930  21.096  0.00  0.00    +0.000 NA
ATOM      2  C   UNL     1      -0.716  10.658  20.572  0.00  0.00    +0.000 C 
ATOM      3  C   UNL     1      -0.609  10.496  19.033  0.00  0.00    +0.000 C 
ATOM      4  N   UNL     1       0.746  10.700  18.472  0.00  0.00    +0.000 NA
ATOM      5  C   UNL     1       1.290  11.967  19.013  0.00  0.00    +0.000 C 
ATOM      6  C   UNL     1       1.210  12.066  20.554  0.00  0.00    +0.000 C 
ENDROOT
BRANCH   1   8
ATOM      7  C   UNL     1      -2.322  12.746  20.087  0.00  0.00    +0.000 C 
ATOM      8  C   UNL     1      -1.010  13.120  20.804  0.00  0.00    +0.000 C 
BRANCH   8   9
ATOM      9  C   UNL     1      -1.339  13.979  22.068  0.00  0.00    +0.000 C 
BRANCH   9  10
ATOM     10  C   UNL     1      -2.712  13.748  22.665  0.00  0.00    +0.000 A 
ATOM     11  C   UNL     1      -2.973  12.644  23.492  0.00  0.00    +0.000 A 
ATOM     12  C   UNL     1      -4.260  12.394  23.968  0.00  0.00    +0.000 A 
ATOM     13  C   UNL     1      -5.300  13.263  23.619  0.00  0.00    +0.000 A 
ATOM     14  C   UNL     1      -5.049  14.385  22.822  0.00  0.00    +0.000 A 
ATOM     15  C   UNL     1      -3.758  14.628  22.354  0.00  0.00    +0.000 A 
BRANCH  13  16
ATOM     16  N   UNL     1      -6.663  12.984  24.076  0.00  0.00    +0.000 N 
ATOM     17  O   UNL     1      -7.392  13.948  24.348  0.00  0.00    +0.000 OA
ATOM     18  O   UNL     1      -7.007  11.796  24.168  0.00  0.00    +0.000 OA
ENDBRANCH  13  16
ENDBRANCH   9  10
ENDBRANCH   8   9
ENDBRANCH   1   8
BRANCH   4  19
ATOM     19  C   UNL     1       1.675   9.603  18.795  0.00  0.00    +0.000 C 
BRANCH  19  20
ATOM     20  C   UNL     1       1.802   8.525  17.710  0.00  0.00    +0.000 C 
BRANCH  20  21
ATOM     21  C   UNL     1       2.813   7.496  18.156  0.00  0.00    +0.000 A 
ATOM     22  C   UNL     1       3.977   7.288  17.401  0.00  0.00    +0.000 A 
ATOM     23  C   UNL     1       4.863   6.265  17.739  0.00  0.00    +0.000 A 
ATOM     24  C   UNL     1       4.576   5.444  18.837  0.00  0.00    +0.000 A 
ATOM     25  C   UNL     1       3.421   5.647  19.602  0.00  0.00    +0.000 A 
ATOM     26  C   UNL     1       2.540   6.673  19.257  0.00  0.00    +0.000 A 
BRANCH  24  27
ATOM     27  N   UNL     1       5.489   4.346  19.177  0.00  0.00    +0.000 N 
ATOM     28  O   UNL     1       6.706   4.552  19.067  0.00  0.00    +0.000 OA
ATOM     29  O   UNL     1       4.988   3.277  19.551  0.00  0.00    +0.000 OA
ENDBRANCH  24  27
ENDBRANCH  20  21
ENDBRANCH  19  20
ENDBRANCH   4  19
TORSDOF 8
ENDMDL
MODEL 9
REMARK VINA RESULT:      -6.6      1.460      9.661
REMARK  Name = 
REMARK  9 active torsions:
REMARK  status: ('A' for Active; 'I' for Inactive)
REMARK    1  A    between atoms: C_1  and  C_2
REMARK    2  A    between atoms: C_2  and  C_3
REMARK    3  A    between atoms: C_2  and  N_13
REMARK    4  A    between atoms: C_3  and  C_4
REMARK    5  A    between atoms: C_7  and  N_8
REMARK    6  A    between atoms: N_16  and  C_17
REMARK    7  A    between atoms: C_17  and  C_18
REMARK    8  A    between atoms: C_18  and  C_19
REMARK    9  A    between atoms: C_22  and  N_23
REMARK                            x       y       z     vdW  Elec       q    Type
REMARK                         _______ _______ _______ _____ _____    ______ ____
ROOT
ATOM      1  N   UNL     1      -0.488  11.351  19.754  0.00  0.00    +0.000 NA
ATOM      2  C   UNL     1      -0.823  10.018  19.197  0.00  0.00    +0.000 C 
ATOM      3  C   UNL     1      -0.067   9.658  17.892  0.00  0.00    +0.000 C 
ATOM      4  N   UNL     1       1.407   9.796  17.961  0.00  0.00    +0.000 NA
ATOM      5  C   UNL     1       1.725  11.126  18.528  0.00  0.00    +0.000 C 
ATOM      6  C   UNL     1       0.989  11.424  19.855  0.00  0.00    +0.000 C 
ENDROOT
BRANCH   1   8
ATOM      7  C   UNL     1      -2.242  12.053  18.086  0.00  0.00    +0.000 C 
ATOM      8  C   UNL     1      -1.063  12.487  18.980  0.00  0.00    +0.000 C 
BRANCH   8   9
ATOM      9  C   UNL     1      -1.509  13.690  19.873  0.00  0.00    +0.000 C 
BRANCH   9  10
ATOM     10  C   UNL     1      -2.492  13.348  20.974  0.00  0.00    +0.000 A 
ATOM     11  C   UNL     1      -3.865  13.219  20.713  0.00  0.00    +0.000 A 
ATOM     12  C   UNL     1      -4.772  12.988  21.747  0.00  0.00    +0.000 A 
ATOM     13  C   UNL     1      -4.299  12.875  23.060  0.00  0.00    +0.000 A 
ATOM     14  C   UNL     1      -2.929  12.969  23.331  0.00  0.00    +0.000 A 
ATOM     15  C   UNL     1      -2.031  13.197  22.289  0.00  0.00    +0.000 A 
BRANCH  13  16
ATOM     16  N   UNL     1      -5.248  12.678  24.158  0.00  0.00    +0.000 N 
ATOM     17  O   UNL     1      -6.346  13.247  24.084  0.00  0.00    +0.000 OA
ATOM     18  O   UNL     1      -4.893  11.956  25.102  0.00  0.00    +0.000 OA
ENDBRANCH  13  16
ENDBRANCH   9  10
ENDBRANCH   8   9
ENDBRANCH   1   8
BRANCH   4  19
ATOM     19  C   UNL     1       2.046   8.757  18.786  0.00  0.00    +0.000 C 
BRANCH  19  20
ATOM     20  C   UNL     1       2.832   7.700  17.998  0.00  0.00    +0.000 C 
BRANCH  20  21
ATOM     21  C   UNL     1       2.581   6.343  18.612  0.00  0.00    +0.000 A 
ATOM     22  C   UNL     1       2.579   5.199  17.800  0.00  0.00    +0.000 A 
ATOM     23  C   UNL     1       2.239   3.957  18.335  0.00  0.00    +0.000 A 
ATOM     24  C   UNL     1       1.895   3.863  19.689  0.00  0.00    +0.000 A 
ATOM     25  C   UNL     1       1.901   4.997  20.510  0.00  0.00    +0.000 A 
ATOM     26  C   UNL     1       2.243   6.237  19.968  0.00  0.00    +0.000 A 
BRANCH  24  27
ATOM     27  N   UNL     1       1.505   2.563  20.249  0.00  0.00    +0.000 N 
ATOM     28  O   UNL     1       1.356   2.485  21.477  0.00  0.00    +0.000 OA
ATOM     29  O   UNL     1       1.352   1.621  19.461  0.00  0.00    +0.000 OA
ENDBRANCH  24  27
ENDBRANCH  20  21
ENDBRANCH  19  20
ENDBRANCH   4  19
TORSDOF 8
ENDMDL
