MODEL 1
REMARK VINA RESULT:      -7.4      0.000      0.000
REMARK  Name = 
REMARK  2 active torsions:
REMARK  status: ('A' for Active; 'I' for Inactive)
REMARK    1  A    between atoms: C_4  and  C_5
REMARK    2  A    between atoms: C_8  and  O_9
REMARK                            x       y       z     vdW  Elec       q    Type
REMARK                         _______ _______ _______ _____ _____    ______ ____
ROOT
ATOM      1  O   UNL     1       2.062   9.334  17.483  0.00  0.00    +0.000 OA
ATOM      2  C   UNL     1       1.841   8.751  18.536  0.00  0.00    +0.000 C 
ATOM      3  C   UNL     1       2.223   7.320  18.757  0.00  0.00    +0.000 C 
ATOM      4  C   UNL     1       2.318   6.519  17.680  0.00  0.00    +0.000 C 
ATOM      5  C   UNL     1       2.415   6.926  20.193  0.00  0.00    +0.000 C 
ATOM      6  C   UNL     1       1.157   7.259  20.985  0.00  0.00    +0.000 C 
ATOM      7  C   UNL     1       0.807   8.716  20.839  0.00  0.00    +0.000 A 
ATOM      8  C   UNL     1       0.094   9.365  21.856  0.00  0.00    +0.000 A 
ATOM      9  C   UNL     1      -0.240  10.715  21.732  0.00  0.00    +0.000 A 
ATOM     10  C   UNL     1       0.128  11.425  20.590  0.00  0.00    +0.000 A 
ATOM     11  C   UNL     1       0.818  10.784  19.560  0.00  0.00    +0.000 A 
ATOM     12  C   UNL     1       1.153   9.430  19.675  0.00  0.00    +0.000 A 
ENDROOT
BRANCH   4  13
ATOM     13  C   UNL     1       2.589   5.086  17.784  0.00  0.00    +0.000 A 
ATOM     14  C   UNL     1       1.528   4.188  17.969  0.00  0.00    +0.000 A 
ATOM     15  C   UNL     1       1.780   2.830  18.172  0.00  0.00    +0.000 A 
ATOM     16  C   UNL     1       3.096   2.376  18.187  0.00  0.00    +0.000 A 
ATOM     17  C   UNL     1       4.156   3.253  17.983  0.00  0.00    +0.000 A 
ATOM     18  C   UNL     1       3.904   4.610  17.781  0.00  0.00    +0.000 A 
BRANCH  16  19
ATOM     19  O   UNL     1       3.392   1.065  18.413  0.00  0.00    +0.000 OA
ATOM     20  H   UNL     1       2.593   0.618  18.739  0.00  0.00    +0.000 HD
ENDBRANCH  16  19
ENDBRANCH   4  13
TORSDOF 2
ENDMDL
MODEL 2
REMARK VINA RESULT:      -7.4      0.288      1.142
REMARK  Name = 
REMARK  2 active torsions:
REMARK  status: ('A' for Active; 'I' for Inactive)
REMARK    1  A    between atoms: C_4  and  C_5
REMARK    2  A    between atoms: C_8  and  O_9
REMARK                            x       y       z     vdW  Elec       q    Type
REMARK                         _______ _______ _______ _____ _____    ______ ____
ROOT
ATOM      1  O   UNL     1       2.077   9.362  17.380  0.00  0.00    +0.000 OA
ATOM      2  C   UNL     1       1.816   8.861  18.465  0.00  0.00    +0.000 C 
ATOM      3  C   UNL     1       2.199   7.455  18.813  0.00  0.00    +0.000 C 
ATOM      4  C   UNL     1       2.346   6.574  17.807  0.00  0.00    +0.000 C 
ATOM      5  C   UNL     1       2.333   7.176  20.283  0.00  0.00    +0.000 C 
ATOM      6  C   UNL     1       1.040   7.556  20.993  0.00  0.00    +0.000 C 
ATOM      7  C   UNL     1       0.686   8.994  20.719  0.00  0.00    +0.000 A 
ATOM      8  C   UNL     1      -0.075   9.712  21.650  0.00  0.00    +0.000 A 
ATOM      9  C   UNL     1      -0.414  11.044  21.407  0.00  0.00    +0.000 A 
ATOM     10  C   UNL     1      -0.004  11.667  20.230  0.00  0.00    +0.000 A 
ATOM     11  C   UNL     1       0.735  10.956  19.283  0.00  0.00    +0.000 A 
ATOM     12  C   UNL     1       1.075   9.618  19.517  0.00  0.00    +0.000 A 
ENDROOT
BRANCH   4  13
ATOM     13  C   UNL     1       2.624   5.156  18.034  0.00  0.00    +0.000 A 
ATOM     14  C   UNL     1       3.948   4.720  18.178  0.00  0.00    +0.000 A 
ATOM     15  C   UNL     1       4.234   3.358  18.294  0.00  0.00    +0.000 A 
ATOM     16  C   UNL     1       3.191   2.438  18.265  0.00  0.00    +0.000 A 
ATOM     17  C   UNL     1       1.870   2.859  18.144  0.00  0.00    +0.000 A 
ATOM     18  C   UNL     1       1.585   4.220  18.028  0.00  0.00    +0.000 A 
BRANCH  16  19
ATOM     19  O   UNL     1       3.424   1.098  18.342  0.00  0.00    +0.000 OA
ATOM     20  H   UNL     1       2.867   0.647  17.686  0.00  0.00    +0.000 HD
ENDBRANCH  16  19
ENDBRANCH   4  13
TORSDOF 2
ENDMDL
MODEL 3
REMARK VINA RESULT:      -7.3      2.619      3.644
REMARK  Name = 
REMARK  2 active torsions:
REMARK  status: ('A' for Active; 'I' for Inactive)
REMARK    1  A    between atoms: C_4  and  C_5
REMARK    2  A    between atoms: C_8  and  O_9
REMARK                            x       y       z     vdW  Elec       q    Type
REMARK                         _______ _______ _______ _____ _____    ______ ____
ROOT
ATOM      1  O   UNL     1       2.115   5.550  21.033  0.00  0.00    +0.000 OA
ATOM      2  C   UNL     1       2.178   6.423  20.178  0.00  0.00    +0.000 C 
ATOM      3  C   UNL     1       3.027   6.284  18.951  0.00  0.00    +0.000 C 
ATOM      4  C   UNL     1       4.104   5.481  19.016  0.00  0.00    +0.000 C 
ATOM      5  C   UNL     1       2.590   7.114  17.777  0.00  0.00    +0.000 C 
ATOM      6  C   UNL     1       2.505   8.577  18.192  0.00  0.00    +0.000 C 
ATOM      7  C   UNL     1       1.588   8.742  19.374  0.00  0.00    +0.000 A 
ATOM      8  C   UNL     1       0.922   9.958  19.573  0.00  0.00    +0.000 A 
ATOM      9  C   UNL     1       0.072  10.126  20.667  0.00  0.00    +0.000 A 
ATOM     10  C   UNL     1      -0.112   9.086  21.577  0.00  0.00    +0.000 A 
ATOM     11  C   UNL     1       0.565   7.878  21.404  0.00  0.00    +0.000 A 
ATOM     12  C   UNL     1       1.422   7.703  20.311  0.00  0.00    +0.000 A 
ENDROOT
BRANCH   4  13
ATOM     13  C   UNL     1       5.055   5.345  17.913  0.00  0.00    +0.000 A 
ATOM     14  C   UNL     1       6.208   6.141  17.886  0.00  0.00    +0.000 A 
ATOM     15  C   UNL     1       7.072   6.095  16.790  0.00  0.00    +0.000 A 
ATOM     16  C   UNL     1       6.776   5.250  15.724  0.00  0.00    +0.000 A 
ATOM     17  C   UNL     1       5.645   4.440  15.748  0.00  0.00    +0.000 A 
ATOM     18  C   UNL     1       4.782   4.487  16.843  0.00  0.00    +0.000 A 
BRANCH  16  19
ATOM     19  O   UNL     1       7.572   5.196  14.619  0.00  0.00    +0.000 OA
ATOM     20  H   UNL     1       7.668   4.267  14.350  0.00  0.00    +0.000 HD
ENDBRANCH  16  19
ENDBRANCH   4  13
TORSDOF 2
ENDMDL
MODEL 4
REMARK VINA RESULT:      -7.3      2.566      3.441
REMARK  Name = 
REMARK  2 active torsions:
REMARK  status: ('A' for Active; 'I' for Inactive)
REMARK    1  A    between atoms: C_4  and  C_5
REMARK    2  A    between atoms: C_8  and  O_9
REMARK                            x       y       z     vdW  Elec       q    Type
REMARK                         _______ _______ _______ _____ _____    ______ ____
ROOT
ATOM      1  O   UNL     1       1.986   5.801  20.943  0.00  0.00    +0.000 OA
ATOM      2  C   UNL     1       2.040   6.702  20.117  0.00  0.00    +0.000 C 
ATOM      3  C   UNL     1       2.855   6.595  18.865  0.00  0.00    +0.000 C 
ATOM      4  C   UNL     1       3.923   5.776  18.875  0.00  0.00    +0.000 C 
ATOM      5  C   UNL     1       2.401   7.470  17.732  0.00  0.00    +0.000 C 
ATOM      6  C   UNL     1       2.348   8.919  18.198  0.00  0.00    +0.000 C 
ATOM      7  C   UNL     1       1.463   9.056  19.409  0.00  0.00    +0.000 A 
ATOM      8  C   UNL     1       0.819  10.273  19.666  0.00  0.00    +0.000 A 
ATOM      9  C   UNL     1      -0.001  10.414  20.787  0.00  0.00    +0.000 A 
ATOM     10  C   UNL     1      -0.177   9.346  21.665  0.00  0.00    +0.000 A 
ATOM     11  C   UNL     1       0.478   8.135  21.433  0.00  0.00    +0.000 A 
ATOM     12  C   UNL     1       1.305   7.987  20.313  0.00  0.00    +0.000 A 
ENDROOT
BRANCH   4  13
ATOM     13  C   UNL     1       4.844   5.666  17.744  0.00  0.00    +0.000 A 
ATOM     14  C   UNL     1       4.591   4.734  16.728  0.00  0.00    +0.000 A 
ATOM     15  C   UNL     1       5.513   4.547  15.697  0.00  0.00    +0.000 A 
ATOM     16  C   UNL     1       6.685   5.296  15.687  0.00  0.00    +0.000 A 
ATOM     17  C   UNL     1       6.939   6.239  16.677  0.00  0.00    +0.000 A 
ATOM     18  C   UNL     1       6.018   6.426  17.709  0.00  0.00    +0.000 A 
BRANCH  16  19
ATOM     19  O   UNL     1       7.629   5.125  14.718  0.00  0.00    +0.000 OA
ATOM     20  H   UNL     1       7.225   5.310  13.854  0.00  0.00    +0.000 HD
ENDBRANCH  16  19
ENDBRANCH   4  13
TORSDOF 2
ENDMDL
MODEL 5
REMARK VINA RESULT:      -7.0      4.181      7.375
REMARK  Name = 
REMARK  2 active torsions:
REMARK  status: ('A' for Active; 'I' for Inactive)
REMARK    1  A    between atoms: C_4  and  C_5
REMARK    2  A    between atoms: C_8  and  O_9
REMARK                            x       y       z     vdW  Elec       q    Type
REMARK                         _______ _______ _______ _____ _____    ______ ____
ROOT
ATOM      1  O   UNL     1       7.521   6.343  16.600  0.00  0.00    +0.000 OA
ATOM      2  C   UNL     1       6.671   5.581  16.158  0.00  0.00    +0.000 C 
ATOM      3  C   UNL     1       5.517   5.101  16.983  0.00  0.00    +0.000 C 
ATOM      4  C   UNL     1       5.671   5.058  18.319  0.00  0.00    +0.000 C 
ATOM      5  C   UNL     1       4.310   4.669  16.200  0.00  0.00    +0.000 C 
ATOM      6  C   UNL     1       4.713   3.600  15.192  0.00  0.00    +0.000 C 
ATOM      7  C   UNL     1       5.818   4.100  14.300  0.00  0.00    +0.000 A 
ATOM      8  C   UNL     1       5.960   3.577  13.008  0.00  0.00    +0.000 A 
ATOM      9  C   UNL     1       6.982   4.029  12.172  0.00  0.00    +0.000 A 
ATOM     10  C   UNL     1       7.876   4.999  12.621  0.00  0.00    +0.000 A 
ATOM     11  C   UNL     1       7.760   5.512  13.914  0.00  0.00    +0.000 A 
ATOM     12  C   UNL     1       6.741   5.060  14.760  0.00  0.00    +0.000 A 
ENDROOT
BRANCH   4  13
ATOM     13  C   UNL     1       4.648   4.518  19.214  0.00  0.00    +0.000 A 
ATOM     14  C   UNL     1       4.626   3.145  19.498  0.00  0.00    +0.000 A 
ATOM     15  C   UNL     1       3.596   2.600  20.267  0.00  0.00    +0.000 A 
ATOM     16  C   UNL     1       2.593   3.434  20.751  0.00  0.00    +0.000 A 
ATOM     17  C   UNL     1       2.614   4.801  20.495  0.00  0.00    +0.000 A 
ATOM     18  C   UNL     1       3.643   5.346  19.725  0.00  0.00    +0.000 A 
BRANCH  16  19
ATOM     19  O   UNL     1       1.551   2.942  21.479  0.00  0.00    +0.000 OA
ATOM     20  H   UNL     1       0.891   3.646  21.592  0.00  0.00    +0.000 HD
ENDBRANCH  16  19
ENDBRANCH   4  13
TORSDOF 2
ENDMDL
MODEL 6
REMARK VINA RESULT:      -7.0      3.738      5.666
REMARK  Name = 
REMARK  2 active torsions:
REMARK  status: ('A' for Active; 'I' for Inactive)
REMARK    1  A    between atoms: C_4  and  C_5
REMARK    2  A    between atoms: C_8  and  O_9
REMARK                            x       y       z     vdW  Elec       q    Type
REMARK                         _______ _______ _______ _____ _____    ______ ____
ROOT
ATOM      1  O   UNL     1       4.255   7.230  17.895  0.00  0.00    +0.000 OA
ATOM      2  C   UNL     1       4.041   6.028  17.816  0.00  0.00    +0.000 C 
ATOM      3  C   UNL     1       4.725   5.156  16.809  0.00  0.00    +0.000 C 
ATOM      4  C   UNL     1       5.158   5.727  15.670  0.00  0.00    +0.000 C 
ATOM      5  C   UNL     1       4.809   3.702  17.178  0.00  0.00    +0.000 C 
ATOM      6  C   UNL     1       3.412   3.169  17.468  0.00  0.00    +0.000 C 
ATOM      7  C   UNL     1       2.743   3.988  18.540  0.00  0.00    +0.000 A 
ATOM      8  C   UNL     1       1.761   3.402  19.351  0.00  0.00    +0.000 A 
ATOM      9  C   UNL     1       1.130   4.151  20.345  0.00  0.00    +0.000 A 
ATOM     10  C   UNL     1       1.466   5.491  20.533  0.00  0.00    +0.000 A 
ATOM     11  C   UNL     1       2.425   6.092  19.717  0.00  0.00    +0.000 A 
ATOM     12  C   UNL     1       3.060   5.349  18.714  0.00  0.00    +0.000 A 
ENDROOT
BRANCH   4  13
ATOM     13  C   UNL     1       5.752   4.956  14.578  0.00  0.00    +0.000 A 
ATOM     14  C   UNL     1       7.084   5.185  14.209  0.00  0.00    +0.000 A 
ATOM     15  C   UNL     1       7.633   4.531  13.104  0.00  0.00    +0.000 A 
ATOM     16  C   UNL     1       6.843   3.649  12.373  0.00  0.00    +0.000 A 
ATOM     17  C   UNL     1       5.526   3.397  12.741  0.00  0.00    +0.000 A 
ATOM     18  C   UNL     1       4.977   4.051  13.845  0.00  0.00    +0.000 A 
BRANCH  16  19
ATOM     19  O   UNL     1       7.326   3.013  11.268  0.00  0.00    +0.000 OA
ATOM     20  H   UNL     1       8.271   2.833  11.402  0.00  0.00    +0.000 HD
ENDBRANCH  16  19
ENDBRANCH   4  13
TORSDOF 2
ENDMDL
MODEL 7
REMARK VINA RESULT:      -6.9      4.235      7.369
REMARK  Name = 
REMARK  2 active torsions:
REMARK  status: ('A' for Active; 'I' for Inactive)
REMARK    1  A    between atoms: C_4  and  C_5
REMARK    2  A    between atoms: C_8  and  O_9
REMARK                            x       y       z     vdW  Elec       q    Type
REMARK                         _______ _______ _______ _____ _____    ______ ____
ROOT
ATOM      1  O   UNL     1       7.482   6.302  16.666  0.00  0.00    +0.000 OA
ATOM      2  C   UNL     1       6.647   5.543  16.193  0.00  0.00    +0.000 C 
ATOM      3  C   UNL     1       5.481   5.037  16.987  0.00  0.00    +0.000 C 
ATOM      4  C   UNL     1       5.610   4.969  18.324  0.00  0.00    +0.000 C 
ATOM      5  C   UNL     1       4.292   4.613  16.172  0.00  0.00    +0.000 C 
ATOM      6  C   UNL     1       4.722   3.568  15.151  0.00  0.00    +0.000 C 
ATOM      7  C   UNL     1       5.840   4.094  14.290  0.00  0.00    +0.000 A 
ATOM      8  C   UNL     1       6.009   3.598  12.991  0.00  0.00    +0.000 A 
ATOM      9  C   UNL     1       7.043   4.074  12.183  0.00  0.00    +0.000 A 
ATOM     10  C   UNL     1       7.921   5.042  12.668  0.00  0.00    +0.000 A 
ATOM     11  C   UNL     1       7.778   5.527  13.969  0.00  0.00    +0.000 A 
ATOM     12  C   UNL     1       6.746   5.051  14.786  0.00  0.00    +0.000 A 
ENDROOT
BRANCH   4  13
ATOM     13  C   UNL     1       4.575   4.403  19.189  0.00  0.00    +0.000 A 
ATOM     14  C   UNL     1       3.585   5.236  19.727  0.00  0.00    +0.000 A 
ATOM     15  C   UNL     1       2.653   4.729  20.634  0.00  0.00    +0.000 A 
ATOM     16  C   UNL     1       2.716   3.388  20.998  0.00  0.00    +0.000 A 
ATOM     17  C   UNL     1       3.680   2.545  20.455  0.00  0.00    +0.000 A 
ATOM     18  C   UNL     1       4.613   3.052  19.549  0.00  0.00    +0.000 A 
BRANCH  16  19
ATOM     19  O   UNL     1       1.847   2.856  21.904  0.00  0.00    +0.000 OA
ATOM     20  H   UNL     1       2.070   3.199  22.785  0.00  0.00    +0.000 HD
ENDBRANCH  16  19
ENDBRANCH   4  13
TORSDOF 2
ENDMDL
MODEL 8
REMARK VINA RESULT:      -6.9      3.785      6.462
REMARK  Name = 
REMARK  2 active torsions:
REMARK  status: ('A' for Active; 'I' for Inactive)
REMARK    1  A    between atoms: C_4  and  C_5
REMARK    2  A    between atoms: C_8  and  O_9
REMARK                            x       y       z     vdW  Elec       q    Type
REMARK                         _______ _______ _______ _____ _____    ______ ____
ROOT
ATOM      1  O   UNL     1       4.326   3.017  16.610  0.00  0.00    +0.000 OA
ATOM      2  C   UNL     1       3.979   3.826  17.460  0.00  0.00    +0.000 C 
ATOM      3  C   UNL     1       4.748   5.082  17.735  0.00  0.00    +0.000 C 
ATOM      4  C   UNL     1       6.064   5.090  17.456  0.00  0.00    +0.000 C 
ATOM      5  C   UNL     1       3.949   6.197  18.348  0.00  0.00    +0.000 C 
ATOM      6  C   UNL     1       3.282   5.702  19.625  0.00  0.00    +0.000 C 
ATOM      7  C   UNL     1       2.438   4.487  19.348  0.00  0.00    +0.000 A 
ATOM      8  C   UNL     1       1.335   4.205  20.165  0.00  0.00    +0.000 A 
ATOM      9  C   UNL     1       0.546   3.080  19.921  0.00  0.00    +0.000 A 
ATOM     10  C   UNL     1       0.856   2.223  18.866  0.00  0.00    +0.000 A 
ATOM     11  C   UNL     1       1.966   2.479  18.060  0.00  0.00    +0.000 A 
ATOM     12  C   UNL     1       2.764   3.603  18.300  0.00  0.00    +0.000 A 
ENDROOT
BRANCH   4  13
ATOM     13  C   UNL     1       6.931   6.224  17.771  0.00  0.00    +0.000 A 
ATOM     14  C   UNL     1       7.795   6.155  18.872  0.00  0.00    +0.000 A 
ATOM     15  C   UNL     1       8.553   7.267  19.246  0.00  0.00    +0.000 A 
ATOM     16  C   UNL     1       8.442   8.445  18.513  0.00  0.00    +0.000 A 
ATOM     17  C   UNL     1       7.604   8.520  17.405  0.00  0.00    +0.000 A 
ATOM     18  C   UNL     1       6.846   7.409  17.032  0.00  0.00    +0.000 A 
BRANCH  16  19
ATOM     19  O   UNL     1       9.137   9.565  18.859  0.00  0.00    +0.000 OA
ATOM     20  H   UNL     1      10.025   9.513  18.467  0.00  0.00    +0.000 HD
ENDBRANCH  16  19
ENDBRANCH   4  13
TORSDOF 2
ENDMDL
MODEL 9
REMARK VINA RESULT:      -6.8      3.686      5.796
REMARK  Name = 
REMARK  2 active torsions:
REMARK  status: ('A' for Active; 'I' for Inactive)
REMARK    1  A    between atoms: C_4  and  C_5
REMARK    2  A    between atoms: C_8  and  O_9
REMARK                            x       y       z     vdW  Elec       q    Type
REMARK                         _______ _______ _______ _____ _____    ______ ____
ROOT
ATOM      1  O   UNL     1       3.940   6.656  18.398  0.00  0.00    +0.000 OA
ATOM      2  C   UNL     1       3.757   5.483  18.103  0.00  0.00    +0.000 C 
ATOM      3  C   UNL     1       4.490   4.813  16.982  0.00  0.00    +0.000 C 
ATOM      4  C   UNL     1       4.942   5.583  15.975  0.00  0.00    +0.000 C 
ATOM      5  C   UNL     1       4.599   3.319  17.094  0.00  0.00    +0.000 C 
ATOM      6  C   UNL     1       3.207   2.718  17.240  0.00  0.00    +0.000 C 
ATOM      7  C   UNL     1       2.488   3.323  18.417  0.00  0.00    +0.000 A 
ATOM      8  C   UNL     1       1.497   2.586  19.080  0.00  0.00    +0.000 A 
ATOM      9  C   UNL     1       0.820   3.137  20.169  0.00  0.00    +0.000 A 
ATOM     10  C   UNL     1       1.119   4.429  20.599  0.00  0.00    +0.000 A 
ATOM     11  C   UNL     1       2.086   5.182  19.932  0.00  0.00    +0.000 A 
ATOM     12  C   UNL     1       2.767   4.638  18.836  0.00  0.00    +0.000 A 
ENDROOT
BRANCH   4  13
ATOM     13  C   UNL     1       5.585   5.028  14.785  0.00  0.00    +0.000 A 
ATOM     14  C   UNL     1       4.846   4.228  13.903  0.00  0.00    +0.000 A 
ATOM     15  C   UNL     1       5.472   3.608  12.819  0.00  0.00    +0.000 A 
ATOM     16  C   UNL     1       6.837   3.794  12.623  0.00  0.00    +0.000 A 
ATOM     17  C   UNL     1       7.578   4.602  13.479  0.00  0.00    +0.000 A 
ATOM     18  C   UNL     1       6.953   5.220  14.562  0.00  0.00    +0.000 A 
BRANCH  16  19
ATOM     19  O   UNL     1       7.496   3.183  11.598  0.00  0.00    +0.000 OA
ATOM     20  H   UNL     1       8.436   3.426  11.644  0.00  0.00    +0.000 HD
ENDBRANCH  16  19
ENDBRANCH   4  13
TORSDOF 2
ENDMDL
