MODEL 1
REMARK VINA RESULT:      -8.6      0.000      0.000
REMARK  Name = 
REMARK  7 active torsions:
REMARK  status: ('A' for Active; 'I' for Inactive)
REMARK    1  A    between atoms: C_1  and  C_2
REMARK    2  A    between atoms: C_2  and  C_3
REMARK    3  A    between atoms: C_3  and  C_4
REMARK    4  A    between atoms: C_4  and  N_5
REMARK    5  A    between atoms: C_4  and  C_21
REMARK    6  A    between atoms: N_5  and  S_6
REMARK    7  A    between atoms: S_6  and  C_9
REMARK                            x       y       z     vdW  Elec       q    Type
REMARK                         _______ _______ _______ _____ _____    ______ ____
ROOT
ATOM      1  S   UNL     1       3.109   3.198  17.823  0.00  0.00    +0.000 S 
ATOM      2  O   UNL     1       2.381   3.139  16.570  0.00  0.00    +0.000 OA
ATOM      3  O   UNL     1       3.007   2.132  18.793  0.00  0.00    +0.000 OA
ENDROOT
BRANCH   1   4
ATOM      4  C   UNL     1       2.583   4.671  18.658  0.00  0.00    +0.000 A 
ATOM      5  C   UNL     1       2.196   4.584  19.991  0.00  0.00    +0.000 A 
ATOM      6  C   UNL     1       1.943   5.749  20.706  0.00  0.00    +0.000 A 
ATOM      7  C   UNL     1       2.034   7.001  20.087  0.00  0.00    +0.000 A 
ATOM      8  C   UNL     1       2.426   7.104  18.744  0.00  0.00    +0.000 A 
ATOM      9  C   UNL     1       2.711   5.921  18.033  0.00  0.00    +0.000 A 
ATOM     10  C   UNL     1       2.595   8.441  18.076  0.00  0.00    +0.000 C 
ATOM     11  C   UNL     1       1.269   9.184  17.997  0.00  0.00    +0.000 C 
ATOM     12  C   UNL     1       0.874   9.849  19.304  0.00  0.00    +0.000 C 
ATOM     13  C   UNL     1       0.699   8.974  20.518  0.00  0.00    +0.000 C 
ATOM     14  O   UNL     1      -0.253   9.122  21.286  0.00  0.00    +0.000 OA
ATOM     15  N   UNL     1       1.696   8.111  20.889  0.00  0.00    +0.000 N 
ATOM     16  H   UNL     1       1.513   7.841  21.852  0.00  0.00    +0.000 HD
ENDBRANCH   1   4
BRANCH   1  17
ATOM     17  N   UNL     1       4.744   3.413  17.538  0.00  0.00    +0.000 NA
ATOM     18  H   UNL     1       5.297   3.394  18.392  0.00  0.00    +0.000 HD
BRANCH  17  19
ATOM     19  C   UNL     1       5.294   4.294  16.481  0.00  0.00    +0.000 C 
BRANCH  19  20
ATOM     20  C   UNL     1       6.140   5.424  17.060  0.00  0.00    +0.000 A 
ATOM     21  C   UNL     1       6.053   6.792  16.838  0.00  0.00    +0.000 A 
ATOM     22  C   UNL     1       7.024   7.544  17.565  0.00  0.00    +0.000 A 
ATOM     23  C   UNL     1       7.864   6.731  18.286  0.00  0.00    +0.000 A 
ATOM     24  S   UNL     1       7.482   5.083  18.089  0.00  0.00    +0.000 S 
ENDBRANCH  19  20
BRANCH  19  25
ATOM     25  C   UNL     1       5.960   3.485  15.357  0.00  0.00    +0.000 C 
BRANCH  25  27
ATOM     26  C   UNL     1       5.812   3.529  12.792  0.00  0.00    +0.000 C 
ATOM     27  C   UNL     1       6.258   4.245  14.058  0.00  0.00    +0.000 C 
ENDBRANCH  25  27
ENDBRANCH  19  25
ENDBRANCH  17  19
ENDBRANCH   1  17
TORSDOF 6
ENDMDL
MODEL 2
REMARK VINA RESULT:      -7.9      0.840      1.030
REMARK  Name = 
REMARK  7 active torsions:
REMARK  status: ('A' for Active; 'I' for Inactive)
REMARK    1  A    between atoms: C_1  and  C_2
REMARK    2  A    between atoms: C_2  and  C_3
REMARK    3  A    between atoms: C_3  and  C_4
REMARK    4  A    between atoms: C_4  and  N_5
REMARK    5  A    between atoms: C_4  and  C_21
REMARK    6  A    between atoms: N_5  and  S_6
REMARK    7  A    between atoms: S_6  and  C_9
REMARK                            x       y       z     vdW  Elec       q    Type
REMARK                         _______ _______ _______ _____ _____    ______ ____
ROOT
ATOM      1  S   UNL     1       2.955   3.083  18.068  0.00  0.00    +0.000 S 
ATOM      2  O   UNL     1       2.090   2.879  16.924  0.00  0.00    +0.000 OA
ATOM      3  O   UNL     1       3.005   2.121  19.144  0.00  0.00    +0.000 OA
ENDROOT
BRANCH   1   4
ATOM      4  C   UNL     1       2.478   4.621  18.811  0.00  0.00    +0.000 A 
ATOM      5  C   UNL     1       2.036   4.621  20.129  0.00  0.00    +0.000 A 
ATOM      6  C   UNL     1       1.819   5.832  20.776  0.00  0.00    +0.000 A 
ATOM      7  C   UNL     1       1.999   7.045  20.103  0.00  0.00    +0.000 A 
ATOM      8  C   UNL     1       2.447   7.061  18.774  0.00  0.00    +0.000 A 
ATOM      9  C   UNL     1       2.696   5.831  18.132  0.00  0.00    +0.000 A 
ATOM     10  C   UNL     1       2.712   8.353  18.049  0.00  0.00    +0.000 C 
ATOM     11  C   UNL     1       1.432   9.158  17.881  0.00  0.00    +0.000 C 
ATOM     12  C   UNL     1       1.023   9.906  19.137  0.00  0.00    +0.000 C 
ATOM     13  C   UNL     1       0.756   9.103  20.384  0.00  0.00    +0.000 C 
ATOM     14  O   UNL     1      -0.215   9.338  21.105  0.00  0.00    +0.000 OA
ATOM     15  N   UNL     1       1.691   8.210  20.836  0.00  0.00    +0.000 N 
ATOM     16  H   UNL     1       1.458   7.998  21.802  0.00  0.00    +0.000 HD
ENDBRANCH   1   4
BRANCH   1  17
ATOM     17  N   UNL     1       4.538   3.308  17.571  0.00  0.00    +0.000 NA
ATOM     18  H   UNL     1       5.215   2.980  18.256  0.00  0.00    +0.000 HD
BRANCH  17  19
ATOM     19  C   UNL     1       5.000   4.466  16.770  0.00  0.00    +0.000 C 
BRANCH  19  20
ATOM     20  C   UNL     1       6.114   5.238  17.470  0.00  0.00    +0.000 A 
ATOM     21  C   UNL     1       6.999   4.811  18.453  0.00  0.00    +0.000 A 
ATOM     22  C   UNL     1       7.913   5.825  18.867  0.00  0.00    +0.000 A 
ATOM     23  C   UNL     1       7.675   7.019  18.231  0.00  0.00    +0.000 A 
ATOM     24  S   UNL     1       6.366   6.914  17.145  0.00  0.00    +0.000 S 
ENDBRANCH  19  20
BRANCH  19  25
ATOM     25  C   UNL     1       5.291   4.070  15.314  0.00  0.00    +0.000 C 
BRANCH  25  27
ATOM     26  C   UNL     1       7.147   4.981  13.789  0.00  0.00    +0.000 C 
ATOM     27  C   UNL     1       6.770   4.021  14.906  0.00  0.00    +0.000 C 
ENDBRANCH  25  27
ENDBRANCH  19  25
ENDBRANCH  17  19
ENDBRANCH   1  17
TORSDOF 6
ENDMDL
MODEL 3
REMARK VINA RESULT:      -7.8      1.141      2.860
REMARK  Name = 
REMARK  7 active torsions:
REMARK  status: ('A' for Active; 'I' for Inactive)
REMARK    1  A    between atoms: C_1  and  C_2
REMARK    2  A    between atoms: C_2  and  C_3
REMARK    3  A    between atoms: C_3  and  C_4
REMARK    4  A    between atoms: C_4  and  N_5
REMARK    5  A    between atoms: C_4  and  C_21
REMARK    6  A    between atoms: N_5  and  S_6
REMARK    7  A    between atoms: S_6  and  C_9
REMARK                            x       y       z     vdW  Elec       q    Type
REMARK                         _______ _______ _______ _____ _____    ______ ____
ROOT
ATOM      1  S   UNL     1       3.458   3.788  17.451  0.00  0.00    +0.000 S 
ATOM      2  O   UNL     1       2.335   3.152  16.790  0.00  0.00    +0.000 OA
ATOM      3  O   UNL     1       4.321   3.039  18.334  0.00  0.00    +0.000 OA
ENDROOT
BRANCH   1   4
ATOM      4  C   UNL     1       2.802   5.119  18.421  0.00  0.00    +0.000 A 
ATOM      5  C   UNL     1       2.455   4.876  19.745  0.00  0.00    +0.000 A 
ATOM      6  C   UNL     1       2.100   5.941  20.564  0.00  0.00    +0.000 A 
ATOM      7  C   UNL     1       2.047   7.245  20.059  0.00  0.00    +0.000 A 
ATOM      8  C   UNL     1       2.396   7.506  18.725  0.00  0.00    +0.000 A 
ATOM      9  C   UNL     1       2.786   6.426  17.908  0.00  0.00    +0.000 A 
ATOM     10  C   UNL     1       2.411   8.906  18.177  0.00  0.00    +0.000 C 
ATOM     11  C   UNL     1       1.014   9.510  18.182  0.00  0.00    +0.000 C 
ATOM     12  C   UNL     1       0.582  10.013  19.547  0.00  0.00    +0.000 C 
ATOM     13  C   UNL     1       0.525   9.022  20.681  0.00  0.00    +0.000 C 
ATOM     14  O   UNL     1      -0.420   9.003  21.471  0.00  0.00    +0.000 OA
ATOM     15  N   UNL     1       1.614   8.239  20.961  0.00  0.00    +0.000 N 
ATOM     16  H   UNL     1       1.482   7.869  21.897  0.00  0.00    +0.000 HD
ENDBRANCH   1   4
BRANCH   1  17
ATOM     17  N   UNL     1       4.461   4.516  16.326  0.00  0.00    +0.000 NA
ATOM     18  H   UNL     1       3.956   4.855  15.510  0.00  0.00    +0.000 HD
BRANCH  17  19
ATOM     19  C   UNL     1       5.846   4.073  16.039  0.00  0.00    +0.000 C 
BRANCH  19  20
ATOM     20  C   UNL     1       6.138   4.041  14.542  0.00  0.00    +0.000 A 
ATOM     21  C   UNL     1       5.510   3.315  13.538  0.00  0.00    +0.000 A 
ATOM     22  C   UNL     1       6.064   3.547  12.243  0.00  0.00    +0.000 A 
ATOM     23  C   UNL     1       7.135   4.406  12.293  0.00  0.00    +0.000 A 
ATOM     24  S   UNL     1       7.464   4.925  13.881  0.00  0.00    +0.000 S 
ENDBRANCH  19  20
BRANCH  19  25
ATOM     25  C   UNL     1       6.873   4.835  16.891  0.00  0.00    +0.000 C 
BRANCH  25  27
ATOM     26  C   UNL     1       7.526   7.236  17.534  0.00  0.00    +0.000 C 
ATOM     27  C   UNL     1       6.422   6.193  17.447  0.00  0.00    +0.000 C 
ENDBRANCH  25  27
ENDBRANCH  19  25
ENDBRANCH  17  19
ENDBRANCH   1  17
TORSDOF 6
ENDMDL
MODEL 4
REMARK VINA RESULT:      -7.3      1.004      2.629
REMARK  Name = 
REMARK  7 active torsions:
REMARK  status: ('A' for Active; 'I' for Inactive)
REMARK    1  A    between atoms: C_1  and  C_2
REMARK    2  A    between atoms: C_2  and  C_3
REMARK    3  A    between atoms: C_3  and  C_4
REMARK    4  A    between atoms: C_4  and  N_5
REMARK    5  A    between atoms: C_4  and  C_21
REMARK    6  A    between atoms: N_5  and  S_6
REMARK    7  A    between atoms: S_6  and  C_9
REMARK                            x       y       z     vdW  Elec       q    Type
REMARK                         _______ _______ _______ _____ _____    ______ ____
ROOT
ATOM      1  S   UNL     1       3.220   3.306  18.145  0.00  0.00    +0.000 S 
ATOM      2  O   UNL     1       3.134   3.477  16.708  0.00  0.00    +0.000 OA
ATOM      3  O   UNL     1       2.504   2.243  18.811  0.00  0.00    +0.000 OA
ENDROOT
BRANCH   1   4
ATOM      4  C   UNL     1       2.650   4.815  18.882  0.00  0.00    +0.000 A 
ATOM      5  C   UNL     1       2.269   4.806  20.218  0.00  0.00    +0.000 A 
ATOM      6  C   UNL     1       1.982   6.008  20.855  0.00  0.00    +0.000 A 
ATOM      7  C   UNL     1       2.030   7.218  20.152  0.00  0.00    +0.000 A 
ATOM      8  C   UNL     1       2.416   7.242  18.804  0.00  0.00    +0.000 A 
ATOM      9  C   UNL     1       2.737   6.023  18.173  0.00  0.00    +0.000 A 
ATOM     10  C   UNL     1       2.541   8.536  18.046  0.00  0.00    +0.000 C 
ATOM     11  C   UNL     1       1.192   9.230  17.923  0.00  0.00    +0.000 C 
ATOM     12  C   UNL     1       0.779   9.968  19.184  0.00  0.00    +0.000 C 
ATOM     13  C   UNL     1       0.635   9.172  20.455  0.00  0.00    +0.000 C 
ATOM     14  O   UNL     1      -0.320   9.342  21.215  0.00  0.00    +0.000 OA
ATOM     15  N   UNL     1       1.659   8.368  20.879  0.00  0.00    +0.000 N 
ATOM     16  H   UNL     1       1.488   8.158  21.858  0.00  0.00    +0.000 HD
ENDBRANCH   1   4
BRANCH   1  17
ATOM     17  N   UNL     1       4.819   3.160  18.621  0.00  0.00    +0.000 NA
ATOM     18  H   UNL     1       4.914   2.837  19.581  0.00  0.00    +0.000 HD
BRANCH  17  19
ATOM     19  C   UNL     1       5.903   4.067  18.177  0.00  0.00    +0.000 C 
BRANCH  19  20
ATOM     20  C   UNL     1       5.827   4.359  16.681  0.00  0.00    +0.000 A 
ATOM     21  C   UNL     1       6.084   3.519  15.605  0.00  0.00    +0.000 A 
ATOM     22  C   UNL     1       5.904   4.152  14.339  0.00  0.00    +0.000 A 
ATOM     23  C   UNL     1       5.564   5.476  14.474  0.00  0.00    +0.000 A 
ATOM     24  S   UNL     1       5.461   5.945  16.108  0.00  0.00    +0.000 S 
ENDBRANCH  19  20
BRANCH  19  25
ATOM     25  C   UNL     1       6.015   5.304  19.081  0.00  0.00    +0.000 C 
BRANCH  25  27
ATOM     26  C   UNL     1       8.026   6.829  18.597  0.00  0.00    +0.000 C 
ATOM     27  C   UNL     1       7.436   5.734  19.472  0.00  0.00    +0.000 C 
ENDBRANCH  25  27
ENDBRANCH  19  25
ENDBRANCH  17  19
ENDBRANCH   1  17
TORSDOF 6
ENDMDL
MODEL 5
REMARK VINA RESULT:      -7.1      3.690      7.976
REMARK  Name = 
REMARK  7 active torsions:
REMARK  status: ('A' for Active; 'I' for Inactive)
REMARK    1  A    between atoms: C_1  and  C_2
REMARK    2  A    between atoms: C_2  and  C_3
REMARK    3  A    between atoms: C_3  and  C_4
REMARK    4  A    between atoms: C_4  and  N_5
REMARK    5  A    between atoms: C_4  and  C_21
REMARK    6  A    between atoms: N_5  and  S_6
REMARK    7  A    between atoms: S_6  and  C_9
REMARK                            x       y       z     vdW  Elec       q    Type
REMARK                         _______ _______ _______ _____ _____    ______ ____
ROOT
ATOM      1  S   UNL     1       0.892   9.121  21.473  0.00  0.00    +0.000 S 
ATOM      2  O   UNL     1       1.887   9.356  22.501  0.00  0.00    +0.000 OA
ATOM      3  O   UNL     1      -0.489   8.875  21.817  0.00  0.00    +0.000 OA
ENDROOT
BRANCH   1   4
ATOM      4  C   UNL     1       1.426   7.703  20.551  0.00  0.00    +0.000 A 
ATOM      5  C   UNL     1       2.078   7.899  19.339  0.00  0.00    +0.000 A 
ATOM      6  C   UNL     1       2.649   6.811  18.688  0.00  0.00    +0.000 A 
ATOM      7  C   UNL     1       2.537   5.521  19.218  0.00  0.00    +0.000 A 
ATOM      8  C   UNL     1       1.884   5.309  20.442  0.00  0.00    +0.000 A 
ATOM      9  C   UNL     1       1.334   6.420  21.113  0.00  0.00    +0.000 A 
ATOM     10  C   UNL     1       1.808   3.942  21.065  0.00  0.00    +0.000 C 
ATOM     11  C   UNL     1       1.003   2.988  20.194  0.00  0.00    +0.000 C 
ATOM     12  C   UNL     1       1.787   2.444  19.014  0.00  0.00    +0.000 C 
ATOM     13  C   UNL     1       2.338   3.429  18.015  0.00  0.00    +0.000 C 
ATOM     14  O   UNL     1       2.258   3.228  16.803  0.00  0.00    +0.000 OA
ATOM     15  N   UNL     1       3.099   4.485  18.444  0.00  0.00    +0.000 N 
ATOM     16  H   UNL     1       3.594   4.844  17.632  0.00  0.00    +0.000 HD
ENDBRANCH   1   4
BRANCH   1  17
ATOM     17  N   UNL     1       0.881  10.382  20.373  0.00  0.00    +0.000 NA
ATOM     18  H   UNL     1       1.605  11.072  20.559  0.00  0.00    +0.000 HD
BRANCH  17  19
ATOM     19  C   UNL     1      -0.349  10.944  19.768  0.00  0.00    +0.000 C 
BRANCH  19  20
ATOM     20  C   UNL     1      -0.405  12.464  19.892  0.00  0.00    +0.000 A 
ATOM     21  C   UNL     1      -0.626  13.248  21.018  0.00  0.00    +0.000 A 
ATOM     22  C   UNL     1      -0.605  14.648  20.743  0.00  0.00    +0.000 A 
ATOM     23  C   UNL     1      -0.419  14.903  19.405  0.00  0.00    +0.000 A 
ATOM     24  S   UNL     1      -0.271  13.470  18.497  0.00  0.00    +0.000 S 
ENDBRANCH  19  20
BRANCH  19  25
ATOM     25  C   UNL     1      -0.590  10.393  18.354  0.00  0.00    +0.000 C 
BRANCH  25  27
ATOM     26  C   UNL     1      -2.369  10.266  16.504  0.00  0.00    +0.000 C 
ATOM     27  C   UNL     1      -2.048  10.092  17.981  0.00  0.00    +0.000 C 
ENDBRANCH  25  27
ENDBRANCH  19  25
ENDBRANCH  17  19
ENDBRANCH   1  17
TORSDOF 6
ENDMDL
MODEL 6
REMARK VINA RESULT:      -7.1      3.762      8.241
REMARK  Name = 
REMARK  7 active torsions:
REMARK  status: ('A' for Active; 'I' for Inactive)
REMARK    1  A    between atoms: C_1  and  C_2
REMARK    2  A    between atoms: C_2  and  C_3
REMARK    3  A    between atoms: C_3  and  C_4
REMARK    4  A    between atoms: C_4  and  N_5
REMARK    5  A    between atoms: C_4  and  C_21
REMARK    6  A    between atoms: N_5  and  S_6
REMARK    7  A    between atoms: S_6  and  C_9
REMARK                            x       y       z     vdW  Elec       q    Type
REMARK                         _______ _______ _______ _____ _____    ______ ____
ROOT
ATOM      1  S   UNL     1       0.797   9.065  21.527  0.00  0.00    +0.000 S 
ATOM      2  O   UNL     1       1.866   9.407  22.445  0.00  0.00    +0.000 OA
ATOM      3  O   UNL     1      -0.515   8.706  22.014  0.00  0.00    +0.000 OA
ENDROOT
BRANCH   1   4
ATOM      4  C   UNL     1       1.358   7.682  20.570  0.00  0.00    +0.000 A 
ATOM      5  C   UNL     1       2.003   7.921  19.361  0.00  0.00    +0.000 A 
ATOM      6  C   UNL     1       2.595   6.862  18.683  0.00  0.00    +0.000 A 
ATOM      7  C   UNL     1       2.512   5.557  19.182  0.00  0.00    +0.000 A 
ATOM      8  C   UNL     1       1.867   5.302  20.402  0.00  0.00    +0.000 A 
ATOM      9  C   UNL     1       1.295   6.384  21.100  0.00  0.00    +0.000 A 
ATOM     10  C   UNL     1       1.822   3.919  20.992  0.00  0.00    +0.000 C 
ATOM     11  C   UNL     1       1.035   2.969  20.100  0.00  0.00    +0.000 C 
ATOM     12  C   UNL     1       1.827   2.471  18.905  0.00  0.00    +0.000 C 
ATOM     13  C   UNL     1       2.354   3.491  17.930  0.00  0.00    +0.000 C 
ATOM     14  O   UNL     1       2.275   3.318  16.713  0.00  0.00    +0.000 OA
ATOM     15  N   UNL     1       3.094   4.552  18.382  0.00  0.00    +0.000 N 
ATOM     16  H   UNL     1       3.579   4.941  17.578  0.00  0.00    +0.000 HD
ENDBRANCH   1   4
BRANCH   1  17
ATOM     17  N   UNL     1       0.561  10.299  20.420  0.00  0.00    +0.000 NA
ATOM     18  H   UNL     1       1.357  10.930  20.360  0.00  0.00    +0.000 HD
BRANCH  17  19
ATOM     19  C   UNL     1      -0.747  10.949  20.168  0.00  0.00    +0.000 C 
BRANCH  19  20
ATOM     20  C   UNL     1      -0.981  12.141  21.091  0.00  0.00    +0.000 A 
ATOM     21  C   UNL     1      -0.956  12.199  22.478  0.00  0.00    +0.000 A 
ATOM     22  C   UNL     1      -1.223  13.503  22.992  0.00  0.00    +0.000 A 
ATOM     23  C   UNL     1      -1.497  14.402  21.990  0.00  0.00    +0.000 A 
ATOM     24  S   UNL     1      -1.430  13.679  20.449  0.00  0.00    +0.000 S 
ENDBRANCH  19  20
BRANCH  19  25
ATOM     25  C   UNL     1      -0.965  11.224  18.672  0.00  0.00    +0.000 C 
BRANCH  25  27
ATOM     26  C   UNL     1      -2.795   9.964  17.381  0.00  0.00    +0.000 C 
ATOM     27  C   UNL     1      -1.335  10.013  17.805  0.00  0.00    +0.000 C 
ENDBRANCH  25  27
ENDBRANCH  19  25
ENDBRANCH  17  19
ENDBRANCH   1  17
TORSDOF 6
ENDMDL
MODEL 7
REMARK VINA RESULT:      -7.1      2.720      4.780
REMARK  Name = 
REMARK  7 active torsions:
REMARK  status: ('A' for Active; 'I' for Inactive)
REMARK    1  A    between atoms: C_1  and  C_2
REMARK    2  A    between atoms: C_2  and  C_3
REMARK    3  A    between atoms: C_3  and  C_4
REMARK    4  A    between atoms: C_4  and  N_5
REMARK    5  A    between atoms: C_4  and  C_21
REMARK    6  A    between atoms: N_5  and  S_6
REMARK    7  A    between atoms: S_6  and  C_9
REMARK                            x       y       z     vdW  Elec       q    Type
REMARK                         _______ _______ _______ _____ _____    ______ ____
ROOT
ATOM      1  S   UNL     1       2.981   6.970  18.389  0.00  0.00    +0.000 S 
ATOM      2  O   UNL     1       3.924   7.656  17.527  0.00  0.00    +0.000 OA
ATOM      3  O   UNL     1       2.099   5.953  17.866  0.00  0.00    +0.000 OA
ENDROOT
BRANCH   1   4
ATOM      4  C   UNL     1       1.930   8.210  19.098  0.00  0.00    +0.000 A 
ATOM      5  C   UNL     1       1.642   9.349  18.354  0.00  0.00    +0.000 A 
ATOM      6  C   UNL     1       0.691  10.247  18.823  0.00  0.00    +0.000 A 
ATOM      7  C   UNL     1       0.055  10.039  20.052  0.00  0.00    +0.000 A 
ATOM      8  C   UNL     1       0.333   8.893  20.812  0.00  0.00    +0.000 A 
ATOM      9  C   UNL     1       1.276   7.969  20.316  0.00  0.00    +0.000 A 
ATOM     10  C   UNL     1      -0.385   8.612  22.103  0.00  0.00    +0.000 C 
ATOM     11  C   UNL     1      -0.070   9.675  23.146  0.00  0.00    +0.000 C 
ATOM     12  C   UNL     1      -0.853  10.961  22.950  0.00  0.00    +0.000 C 
ATOM     13  C   UNL     1      -0.681  11.702  21.649  0.00  0.00    +0.000 C 
ATOM     14  O   UNL     1      -0.550  12.927  21.620  0.00  0.00    +0.000 OA
ATOM     15  N   UNL     1      -0.846  11.045  20.459  0.00  0.00    +0.000 N 
ATOM     16  H   UNL     1      -0.972  11.753  19.742  0.00  0.00    +0.000 HD
ENDBRANCH   1   4
BRANCH   1  17
ATOM     17  N   UNL     1       3.777   6.274  19.687  0.00  0.00    +0.000 NA
ATOM     18  H   UNL     1       4.342   6.942  20.205  0.00  0.00    +0.000 HD
BRANCH  17  19
ATOM     19  C   UNL     1       4.320   4.895  19.685  0.00  0.00    +0.000 C 
BRANCH  19  20
ATOM     20  C   UNL     1       3.213   3.844  19.711  0.00  0.00    +0.000 A 
ATOM     21  C   UNL     1       2.170   3.685  20.614  0.00  0.00    +0.000 A 
ATOM     22  C   UNL     1       1.324   2.578  20.308  0.00  0.00    +0.000 A 
ATOM     23  C   UNL     1       1.767   1.885  19.209  0.00  0.00    +0.000 A 
ATOM     24  S   UNL     1       3.185   2.565  18.554  0.00  0.00    +0.000 S 
ENDBRANCH  19  20
BRANCH  19  25
ATOM     25  C   UNL     1       5.381   4.704  18.590  0.00  0.00    +0.000 C 
BRANCH  25  27
ATOM     26  C   UNL     1       7.222   6.279  17.735  0.00  0.00    +0.000 C 
ATOM     27  C   UNL     1       6.746   5.356  18.847  0.00  0.00    +0.000 C 
ENDBRANCH  25  27
ENDBRANCH  19  25
ENDBRANCH  17  19
ENDBRANCH   1  17
TORSDOF 6
ENDMDL
MODEL 8
REMARK VINA RESULT:      -7.0      2.414      3.797
REMARK  Name = 
REMARK  7 active torsions:
REMARK  status: ('A' for Active; 'I' for Inactive)
REMARK    1  A    between atoms: C_1  and  C_2
REMARK    2  A    between atoms: C_2  and  C_3
REMARK    3  A    between atoms: C_3  and  C_4
REMARK    4  A    between atoms: C_4  and  N_5
REMARK    5  A    between atoms: C_4  and  C_21
REMARK    6  A    between atoms: N_5  and  S_6
REMARK    7  A    between atoms: S_6  and  C_9
REMARK                            x       y       z     vdW  Elec       q    Type
REMARK                         _______ _______ _______ _____ _____    ______ ____
ROOT
ATOM      1  S   UNL     1       3.132   5.720  19.254  0.00  0.00    +0.000 S 
ATOM      2  O   UNL     1       2.256   4.988  20.148  0.00  0.00    +0.000 OA
ATOM      3  O   UNL     1       4.533   5.892  19.563  0.00  0.00    +0.000 OA
ENDROOT
BRANCH   1   4
ATOM      4  C   UNL     1       2.463   7.354  19.096  0.00  0.00    +0.000 A 
ATOM      5  C   UNL     1       2.643   8.039  17.899  0.00  0.00    +0.000 A 
ATOM      6  C   UNL     1       1.985   9.247  17.698  0.00  0.00    +0.000 A 
ATOM      7  C   UNL     1       1.180   9.798  18.702  0.00  0.00    +0.000 A 
ATOM      8  C   UNL     1       0.986   9.117  19.913  0.00  0.00    +0.000 A 
ATOM      9  C   UNL     1       1.632   7.877  20.098  0.00  0.00    +0.000 A 
ATOM     10  C   UNL     1       0.074   9.656  20.980  0.00  0.00    +0.000 C 
ATOM     11  C   UNL     1       0.593  10.977  21.528  0.00  0.00    +0.000 C 
ATOM     12  C   UNL     1       0.294  12.161  20.625  0.00  0.00    +0.000 C 
ATOM     13  C   UNL     1       0.842  12.138  19.222  0.00  0.00    +0.000 C 
ATOM     14  O   UNL     1       1.363  13.135  18.719  0.00  0.00    +0.000 OA
ATOM     15  N   UNL     1       0.611  11.056  18.414  0.00  0.00    +0.000 N 
ATOM     16  H   UNL     1       0.802  11.349  17.461  0.00  0.00    +0.000 HD
ENDBRANCH   1   4
BRANCH   1  17
ATOM     17  N   UNL     1       3.072   5.068  17.713  0.00  0.00    +0.000 NA
ATOM     18  H   UNL     1       2.149   5.143  17.292  0.00  0.00    +0.000 HD
BRANCH  17  19
ATOM     19  C   UNL     1       3.837   3.873  17.287  0.00  0.00    +0.000 C 
BRANCH  19  20
ATOM     20  C   UNL     1       5.041   4.242  16.425  0.00  0.00    +0.000 A 
ATOM     21  C   UNL     1       5.145   4.316  15.042  0.00  0.00    +0.000 A 
ATOM     22  C   UNL     1       6.444   4.701  14.594  0.00  0.00    +0.000 A 
ATOM     23  C   UNL     1       7.318   4.863  15.641  0.00  0.00    +0.000 A 
ATOM     24  S   UNL     1       6.578   4.556  17.144  0.00  0.00    +0.000 S 
ENDBRANCH  19  20
BRANCH  19  25
ATOM     25  C   UNL     1       4.138   2.940  18.470  0.00  0.00    +0.000 C 
BRANCH  25  27
ATOM     26  C   UNL     1       1.778   1.931  18.601  0.00  0.00    +0.000 C 
ATOM     27  C   UNL     1       3.277   1.673  18.572  0.00  0.00    +0.000 C 
ENDBRANCH  25  27
ENDBRANCH  19  25
ENDBRANCH  17  19
ENDBRANCH   1  17
TORSDOF 6
ENDMDL
MODEL 9
REMARK VINA RESULT:      -7.0      3.759      8.004
REMARK  Name = 
REMARK  7 active torsions:
REMARK  status: ('A' for Active; 'I' for Inactive)
REMARK    1  A    between atoms: C_1  and  C_2
REMARK    2  A    between atoms: C_2  and  C_3
REMARK    3  A    between atoms: C_3  and  C_4
REMARK    4  A    between atoms: C_4  and  N_5
REMARK    5  A    between atoms: C_4  and  C_21
REMARK    6  A    between atoms: N_5  and  S_6
REMARK    7  A    between atoms: S_6  and  C_9
REMARK                            x       y       z     vdW  Elec       q    Type
REMARK                         _______ _______ _______ _____ _____    ______ ____
ROOT
ATOM      1  S   UNL     1       0.981  10.041  20.471  0.00  0.00    +0.000 S 
ATOM      2  O   UNL     1       1.634  11.057  19.670  0.00  0.00    +0.000 OA
ATOM      3  O   UNL     1       1.198   9.963  21.897  0.00  0.00    +0.000 OA
ENDROOT
BRANCH   1   4
ATOM      4  C   UNL     1       1.475   8.469  19.816  0.00  0.00    +0.000 A 
ATOM      5  C   UNL     1       2.041   8.419  18.547  0.00  0.00    +0.000 A 
ATOM      6  C   UNL     1       2.585   7.225  18.088  0.00  0.00    +0.000 A 
ATOM      7  C   UNL     1       2.530   6.067  18.872  0.00  0.00    +0.000 A 
ATOM      8  C   UNL     1       1.965   6.102  20.155  0.00  0.00    +0.000 A 
ATOM      9  C   UNL     1       1.443   7.324  20.627  0.00  0.00    +0.000 A 
ATOM     10  C   UNL     1       1.953   4.888  21.043  0.00  0.00    +0.000 C 
ATOM     11  C   UNL     1       1.107   3.777  20.438  0.00  0.00    +0.000 C 
ATOM     12  C   UNL     1       1.820   3.009  19.339  0.00  0.00    +0.000 C 
ATOM     13  C   UNL     1       2.286   3.776  18.128  0.00  0.00    +0.000 C 
ATOM     14  O   UNL     1       2.128   3.336  16.988  0.00  0.00    +0.000 OA
ATOM     15  N   UNL     1       3.056   4.898  18.283  0.00  0.00    +0.000 N 
ATOM     16  H   UNL     1       3.489   5.089  17.384  0.00  0.00    +0.000 HD
ENDBRANCH   1   4
BRANCH   1  17
ATOM     17  N   UNL     1      -0.678  10.105  20.256  0.00  0.00    +0.000 NA
ATOM     18  H   UNL     1      -1.141   9.236  20.512  0.00  0.00    +0.000 HD
BRANCH  17  19
ATOM     19  C   UNL     1      -1.345  10.846  19.159  0.00  0.00    +0.000 C 
BRANCH  19  20
ATOM     20  C   UNL     1      -1.073  12.345  19.234  0.00  0.00    +0.000 A 
ATOM     21  C   UNL     1      -0.487  13.182  18.293  0.00  0.00    +0.000 A 
ATOM     22  C   UNL     1      -0.404  14.541  18.721  0.00  0.00    +0.000 A 
ATOM     23  C   UNL     1      -0.881  14.704  19.999  0.00  0.00    +0.000 A 
ATOM     24  S   UNL     1      -1.425  13.236  20.669  0.00  0.00    +0.000 S 
ENDBRANCH  19  20
BRANCH  19  25
ATOM     25  C   UNL     1      -1.077  10.198  17.791  0.00  0.00    +0.000 C 
BRANCH  25  27
ATOM     26  C   UNL     1      -2.747  10.983  16.003  0.00  0.00    +0.000 C 
ATOM     27  C   UNL     1      -2.312   9.868  16.942  0.00  0.00    +0.000 C 
ENDBRANCH  25  27
ENDBRANCH  19  25
ENDBRANCH  17  19
ENDBRANCH   1  17
TORSDOF 6
ENDMDL
