MODEL 1
REMARK VINA RESULT:      -8.3      0.000      0.000
REMARK  Name = 
REMARK  7 active torsions:
REMARK  status: ('A' for Active; 'I' for Inactive)
REMARK    1  A    between atoms: C_1  and  O_2
REMARK    2  A    between atoms: O_2  and  C_3
REMARK    3  A    between atoms: C_6  and  S_7
REMARK    4  A    between atoms: S_7  and  C_10
REMARK    5  A    between atoms: C_19  and  C_20
REMARK    6  A    between atoms: C_23  and  C_24
REMARK    7  A    between atoms: C_25  and  C_26
REMARK                            x       y       z     vdW  Elec       q    Type
REMARK                         _______ _______ _______ _____ _____    ______ ____
ROOT
ATOM      1  C   UNL     1       2.299   7.171  18.884  0.00  0.00    +0.000 A 
ATOM      2  C   UNL     1       2.201   7.654  17.597  0.00  0.00    +0.000 A 
ATOM      3  S   UNL     1       1.654   9.273  17.566  0.00  0.00    +0.000 S 
ATOM      4  C   UNL     1       1.281   9.222  19.234  0.00  0.00    +0.000 A 
ATOM      5  C   UNL     1       1.787   8.094  19.841  0.00  0.00    +0.000 A 
ATOM      6  N   UNL     1       1.776   7.994  21.219  0.00  0.00    +0.000 N 
ATOM      7  C   UNL     1       1.265   8.986  22.021  0.00  0.00    +0.000 C 
ATOM      8  O   UNL     1       1.550   9.051  23.215  0.00  0.00    +0.000 OA
ATOM      9  C   UNL     1       0.223   9.893  21.393  0.00  0.00    +0.000 C 
ATOM     10  C   UNL     1       0.534  10.322  19.950  0.00  0.00    +0.000 C 
ATOM     11  H   UNL     1       2.302   7.243  21.667  0.00  0.00    +0.000 HD
ENDROOT
BRANCH  10  12
ATOM     12  C   UNL     1      -0.781  10.706  19.268  0.00  0.00    +0.000 A 
ATOM     13  C   UNL     1      -1.611  11.688  19.814  0.00  0.00    +0.000 A 
ATOM     14  C   UNL     1      -2.812  12.032  19.183  0.00  0.00    +0.000 A 
ATOM     15  C   UNL     1      -3.208  11.415  17.983  0.00  0.00    +0.000 A 
ATOM     16  C   UNL     1      -4.491  11.841  17.326  0.00  0.00    +0.000 C 
ATOM     17  C   UNL     1      -2.387  10.426  17.423  0.00  0.00    +0.000 A 
ATOM     18  C   UNL     1      -2.665   9.753  16.107  0.00  0.00    +0.000 C 
ATOM     19  C   UNL     1      -1.207  10.062  18.092  0.00  0.00    +0.000 A 
ENDBRANCH  10  12
BRANCH   1  20
ATOM     20  S   UNL     1       2.961   5.610  19.234  0.00  0.00    +0.000 S 
ATOM     21  O   UNL     1       1.886   4.692  18.903  0.00  0.00    +0.000 OA
ATOM     22  O   UNL     1       3.520   5.716  20.564  0.00  0.00    +0.000 OA
BRANCH  20  26
ATOM     23  C   UNL     1       6.395   5.121  16.282  0.00  0.00    +0.000 A 
ATOM     24  C   UNL     1       5.253   4.323  16.161  0.00  0.00    +0.000 A 
ATOM     25  C   UNL     1       4.188   4.469  17.052  0.00  0.00    +0.000 A 
ATOM     26  C   UNL     1       4.281   5.410  18.081  0.00  0.00    +0.000 A 
ATOM     27  C   UNL     1       5.429   6.197  18.225  0.00  0.00    +0.000 A 
ATOM     28  C   UNL     1       6.482   6.052  17.320  0.00  0.00    +0.000 A 
BRANCH  23  30
ATOM     29  C   UNL     1       6.942   4.696  14.021  0.00  0.00    +0.000 C 
ATOM     30  O   UNL     1       7.381   4.876  15.363  0.00  0.00    +0.000 OA
ENDBRANCH  23  30
ENDBRANCH  20  26
ENDBRANCH   1  20
TORSDOF 4
ENDMDL
MODEL 2
REMARK VINA RESULT:      -8.0      0.349      1.587
REMARK  Name = 
REMARK  7 active torsions:
REMARK  status: ('A' for Active; 'I' for Inactive)
REMARK    1  A    between atoms: C_1  and  O_2
REMARK    2  A    between atoms: O_2  and  C_3
REMARK    3  A    between atoms: C_6  and  S_7
REMARK    4  A    between atoms: S_7  and  C_10
REMARK    5  A    between atoms: C_19  and  C_20
REMARK    6  A    between atoms: C_23  and  C_24
REMARK    7  A    between atoms: C_25  and  C_26
REMARK                            x       y       z     vdW  Elec       q    Type
REMARK                         _______ _______ _______ _____ _____    ______ ____
ROOT
ATOM      1  C   UNL     1       2.315   7.048  18.987  0.00  0.00    +0.000 A 
ATOM      2  C   UNL     1       2.246   7.498  17.686  0.00  0.00    +0.000 A 
ATOM      3  S   UNL     1       1.732   9.126  17.604  0.00  0.00    +0.000 S 
ATOM      4  C   UNL     1       1.333   9.128  19.266  0.00  0.00    +0.000 A 
ATOM      5  C   UNL     1       1.807   8.007  19.911  0.00  0.00    +0.000 A 
ATOM      6  N   UNL     1       1.773   7.944  21.291  0.00  0.00    +0.000 N 
ATOM      7  C   UNL     1       1.270   8.967  22.058  0.00  0.00    +0.000 C 
ATOM      8  O   UNL     1       1.537   9.058  23.255  0.00  0.00    +0.000 OA
ATOM      9  C   UNL     1       0.255   9.877  21.390  0.00  0.00    +0.000 C 
ATOM     10  C   UNL     1       0.596  10.260  19.941  0.00  0.00    +0.000 C 
ATOM     11  H   UNL     1       2.277   7.195  21.767  0.00  0.00    +0.000 HD
ENDROOT
BRANCH  10  12
ATOM     12  C   UNL     1      -0.700  10.652  19.228  0.00  0.00    +0.000 A 
ATOM     13  C   UNL     1      -1.009  10.132  17.968  0.00  0.00    +0.000 A 
ATOM     14  C   UNL     1      -2.197  10.498  17.324  0.00  0.00    +0.000 A 
ATOM     15  C   UNL     1      -3.112  11.378  17.926  0.00  0.00    +0.000 A 
ATOM     16  C   UNL     1      -4.389  11.716  17.208  0.00  0.00    +0.000 C 
ATOM     17  C   UNL     1      -2.815  11.910  19.189  0.00  0.00    +0.000 A 
ATOM     18  C   UNL     1      -3.749  12.799  19.965  0.00  0.00    +0.000 C 
ATOM     19  C   UNL     1      -1.599  11.568  19.803  0.00  0.00    +0.000 A 
ENDBRANCH  10  12
BRANCH   1  20
ATOM     20  S   UNL     1       2.940   5.484  19.389  0.00  0.00    +0.000 S 
ATOM     21  O   UNL     1       1.843   4.581  19.089  0.00  0.00    +0.000 OA
ATOM     22  O   UNL     1       3.502   5.622  20.715  0.00  0.00    +0.000 OA
BRANCH  20  26
ATOM     23  C   UNL     1       6.304   4.767  16.403  0.00  0.00    +0.000 A 
ATOM     24  C   UNL     1       6.499   5.643  17.475  0.00  0.00    +0.000 A 
ATOM     25  C   UNL     1       5.481   5.863  18.405  0.00  0.00    +0.000 A 
ATOM     26  C   UNL     1       4.254   5.215  18.242  0.00  0.00    +0.000 A 
ATOM     27  C   UNL     1       4.040   4.356  17.159  0.00  0.00    +0.000 A 
ATOM     28  C   UNL     1       5.070   4.131  16.244  0.00  0.00    +0.000 A 
BRANCH  23  30
ATOM     29  C   UNL     1       7.067   4.817  14.165  0.00  0.00    +0.000 C 
ATOM     30  O   UNL     1       7.366   4.643  15.547  0.00  0.00    +0.000 OA
ENDBRANCH  23  30
ENDBRANCH  20  26
ENDBRANCH   1  20
TORSDOF 4
ENDMDL
MODEL 3
REMARK VINA RESULT:      -7.6      3.454      7.996
REMARK  Name = 
REMARK  7 active torsions:
REMARK  status: ('A' for Active; 'I' for Inactive)
REMARK    1  A    between atoms: C_1  and  O_2
REMARK    2  A    between atoms: O_2  and  C_3
REMARK    3  A    between atoms: C_6  and  S_7
REMARK    4  A    between atoms: S_7  and  C_10
REMARK    5  A    between atoms: C_19  and  C_20
REMARK    6  A    between atoms: C_23  and  C_24
REMARK    7  A    between atoms: C_25  and  C_26
REMARK                            x       y       z     vdW  Elec       q    Type
REMARK                         _______ _______ _______ _____ _____    ______ ____
ROOT
ATOM      1  C   UNL     1      -0.225  10.188  20.628  0.00  0.00    +0.000 A 
ATOM      2  C   UNL     1      -0.425   9.308  21.669  0.00  0.00    +0.000 A 
ATOM      3  S   UNL     1       0.772   8.090  21.710  0.00  0.00    +0.000 S 
ATOM      4  C   UNL     1       1.374   8.572  20.184  0.00  0.00    +0.000 A 
ATOM      5  C   UNL     1       0.840   9.774  19.775  0.00  0.00    +0.000 A 
ATOM      6  N   UNL     1       1.373  10.424  18.678  0.00  0.00    +0.000 N 
ATOM      7  C   UNL     1       2.425   9.907  17.962  0.00  0.00    +0.000 C 
ATOM      8  O   UNL     1       3.100  10.617  17.219  0.00  0.00    +0.000 OA
ATOM      9  C   UNL     1       2.609   8.402  18.021  0.00  0.00    +0.000 C 
ATOM     10  C   UNL     1       2.410   7.787  19.415  0.00  0.00    +0.000 C 
ATOM     11  H   UNL     1       1.091  11.385  18.486  0.00  0.00    +0.000 HD
ENDROOT
BRANCH  10  12
ATOM     12  C   UNL     1       2.050   6.309  19.244  0.00  0.00    +0.000 A 
ATOM     13  C   UNL     1       1.855   5.763  17.973  0.00  0.00    +0.000 A 
ATOM     14  C   UNL     1       1.524   4.411  17.827  0.00  0.00    +0.000 A 
ATOM     15  C   UNL     1       1.394   3.567  18.944  0.00  0.00    +0.000 A 
ATOM     16  C   UNL     1       1.068   2.114  18.734  0.00  0.00    +0.000 C 
ATOM     17  C   UNL     1       1.584   4.101  20.226  0.00  0.00    +0.000 A 
ATOM     18  C   UNL     1       1.548   3.283  21.488  0.00  0.00    +0.000 C 
ATOM     19  C   UNL     1       1.872   5.469  20.358  0.00  0.00    +0.000 A 
ENDBRANCH  10  12
BRANCH   1  20
ATOM     20  S   UNL     1      -1.196  11.607  20.420  0.00  0.00    +0.000 S 
ATOM     21  O   UNL     1      -0.228  12.660  20.170  0.00  0.00    +0.000 OA
ATOM     22  O   UNL     1      -2.101  11.625  21.548  0.00  0.00    +0.000 OA
BRANCH  20  26
ATOM     23  C   UNL     1      -3.632  10.855  16.645  0.00  0.00    +0.000 A 
ATOM     24  C   UNL     1      -2.328  10.359  16.743  0.00  0.00    +0.000 A 
ATOM     25  C   UNL     1      -1.574  10.572  17.899  0.00  0.00    +0.000 A 
ATOM     26  C   UNL     1      -2.128  11.304  18.952  0.00  0.00    +0.000 A 
ATOM     27  C   UNL     1      -3.422  11.825  18.854  0.00  0.00    +0.000 A 
ATOM     28  C   UNL     1      -4.173  11.595  17.700  0.00  0.00    +0.000 A 
BRANCH  23  30
ATOM     29  C   UNL     1      -3.438  10.128  14.403  0.00  0.00    +0.000 C 
ATOM     30  O   UNL     1      -4.269  10.599  15.460  0.00  0.00    +0.000 OA
ENDBRANCH  23  30
ENDBRANCH  20  26
ENDBRANCH   1  20
TORSDOF 4
ENDMDL
MODEL 4
REMARK VINA RESULT:      -7.4      3.724      9.444
REMARK  Name = 
REMARK  7 active torsions:
REMARK  status: ('A' for Active; 'I' for Inactive)
REMARK    1  A    between atoms: C_1  and  O_2
REMARK    2  A    between atoms: O_2  and  C_3
REMARK    3  A    between atoms: C_6  and  S_7
REMARK    4  A    between atoms: S_7  and  C_10
REMARK    5  A    between atoms: C_19  and  C_20
REMARK    6  A    between atoms: C_23  and  C_24
REMARK    7  A    between atoms: C_25  and  C_26
REMARK                            x       y       z     vdW  Elec       q    Type
REMARK                         _______ _______ _______ _____ _____    ______ ____
ROOT
ATOM      1  C   UNL     1      -0.899  12.097  20.378  0.00  0.00    +0.000 A 
ATOM      2  C   UNL     1      -1.144  11.806  19.054  0.00  0.00    +0.000 A 
ATOM      3  S   UNL     1      -0.908  10.148  18.713  0.00  0.00    +0.000 S 
ATOM      4  C   UNL     1      -0.209   9.889  20.251  0.00  0.00    +0.000 A 
ATOM      5  C   UNL     1      -0.378  10.973  21.084  0.00  0.00    +0.000 A 
ATOM      6  N   UNL     1      -0.076  10.860  22.428  0.00  0.00    +0.000 N 
ATOM      7  C   UNL     1       0.401   9.693  22.974  0.00  0.00    +0.000 C 
ATOM      8  O   UNL     1       0.352   9.489  24.186  0.00  0.00    +0.000 OA
ATOM      9  C   UNL     1       1.122   8.749  22.029  0.00  0.00    +0.000 C 
ATOM     10  C   UNL     1       0.461   8.595  20.651  0.00  0.00    +0.000 C 
ATOM     11  H   UNL     1      -0.363  11.602  23.065  0.00  0.00    +0.000 HD
ENDROOT
BRANCH  10  12
ATOM     12  C   UNL     1       1.526   8.130  19.654  0.00  0.00    +0.000 A 
ATOM     13  C   UNL     1       1.804   8.874  18.504  0.00  0.00    +0.000 A 
ATOM     14  C   UNL     1       2.778   8.439  17.599  0.00  0.00    +0.000 A 
ATOM     15  C   UNL     1       3.511   7.261  17.826  0.00  0.00    +0.000 A 
ATOM     16  C   UNL     1       4.570   6.852  16.840  0.00  0.00    +0.000 C 
ATOM     17  C   UNL     1       3.242   6.503  18.974  0.00  0.00    +0.000 A 
ATOM     18  C   UNL     1       4.011   5.269  19.363  0.00  0.00    +0.000 C 
ATOM     19  C   UNL     1       2.231   6.929  19.850  0.00  0.00    +0.000 A 
ENDBRANCH  10  12
BRANCH   1  20
ATOM     20  S   UNL     1      -1.193  13.666  21.048  0.00  0.00    +0.000 S 
ATOM     21  O   UNL     1      -1.428  14.504  19.885  0.00  0.00    +0.000 OA
ATOM     22  O   UNL     1      -0.110  13.900  21.977  0.00  0.00    +0.000 OA
BRANCH  20  26
ATOM     23  C   UNL     1      -5.042  13.214  23.442  0.00  0.00    +0.000 A 
ATOM     24  C   UNL     1      -5.094  13.647  22.113  0.00  0.00    +0.000 A 
ATOM     25  C   UNL     1      -3.924  13.779  21.363  0.00  0.00    +0.000 A 
ATOM     26  C   UNL     1      -2.693  13.494  21.961  0.00  0.00    +0.000 A 
ATOM     27  C   UNL     1      -2.628  13.083  23.296  0.00  0.00    +0.000 A 
ATOM     28  C   UNL     1      -3.805  12.941  24.033  0.00  0.00    +0.000 A 
BRANCH  23  30
ATOM     29  C   UNL     1      -7.275  12.440  23.383  0.00  0.00    +0.000 C 
ATOM     30  O   UNL     1      -6.250  13.139  24.082  0.00  0.00    +0.000 OA
ENDBRANCH  23  30
ENDBRANCH  20  26
ENDBRANCH   1  20
TORSDOF 4
ENDMDL
MODEL 5
REMARK VINA RESULT:      -7.4      2.536      8.314
REMARK  Name = 
REMARK  7 active torsions:
REMARK  status: ('A' for Active; 'I' for Inactive)
REMARK    1  A    between atoms: C_1  and  O_2
REMARK    2  A    between atoms: O_2  and  C_3
REMARK    3  A    between atoms: C_6  and  S_7
REMARK    4  A    between atoms: S_7  and  C_10
REMARK    5  A    between atoms: C_19  and  C_20
REMARK    6  A    between atoms: C_23  and  C_24
REMARK    7  A    between atoms: C_25  and  C_26
REMARK                            x       y       z     vdW  Elec       q    Type
REMARK                         _______ _______ _______ _____ _____    ______ ____
ROOT
ATOM      1  C   UNL     1       1.596   8.283  20.145  0.00  0.00    +0.000 A 
ATOM      2  C   UNL     1       1.703   8.874  18.905  0.00  0.00    +0.000 A 
ATOM      3  S   UNL     1       2.002   7.724  17.677  0.00  0.00    +0.000 S 
ATOM      4  C   UNL     1       2.271   6.496  18.835  0.00  0.00    +0.000 A 
ATOM      5  C   UNL     1       1.902   6.891  20.102  0.00  0.00    +0.000 A 
ATOM      6  N   UNL     1       1.839   5.960  21.121  0.00  0.00    +0.000 N 
ATOM      7  C   UNL     1       2.144   4.635  20.920  0.00  0.00    +0.000 C 
ATOM      8  O   UNL     1       1.777   3.769  21.712  0.00  0.00    +0.000 OA
ATOM      9  C   UNL     1       3.077   4.323  19.764  0.00  0.00    +0.000 C 
ATOM     10  C   UNL     1       2.799   5.125  18.483  0.00  0.00    +0.000 C 
ATOM     11  H   UNL     1       1.404   6.220  22.005  0.00  0.00    +0.000 HD
ENDROOT
BRANCH  10  12
ATOM     12  C   UNL     1       4.083   5.164  17.651  0.00  0.00    +0.000 A 
ATOM     13  C   UNL     1       4.245   4.324  16.546  0.00  0.00    +0.000 A 
ATOM     14  C   UNL     1       5.423   4.367  15.792  0.00  0.00    +0.000 A 
ATOM     15  C   UNL     1       6.462   5.258  16.111  0.00  0.00    +0.000 A 
ATOM     16  C   UNL     1       7.696   5.289  15.252  0.00  0.00    +0.000 C 
ATOM     17  C   UNL     1       6.315   6.106  17.219  0.00  0.00    +0.000 A 
ATOM     18  C   UNL     1       7.322   7.152  17.613  0.00  0.00    +0.000 C 
ATOM     19  C   UNL     1       5.146   6.020  17.991  0.00  0.00    +0.000 A 
ENDBRANCH  10  12
BRANCH   1  20
ATOM     20  S   UNL     1       1.153   9.180  21.559  0.00  0.00    +0.000 S 
ATOM     21  O   UNL     1       2.419   9.424  22.228  0.00  0.00    +0.000 OA
ATOM     22  O   UNL     1       0.075   8.433  22.169  0.00  0.00    +0.000 OA
BRANCH  20  26
ATOM     23  C   UNL     1      -0.550  13.093  19.968  0.00  0.00    +0.000 A 
ATOM     24  C   UNL     1       0.752  13.055  20.476  0.00  0.00    +0.000 A 
ATOM     25  C   UNL     1       1.292  11.861  20.956  0.00  0.00    +0.000 A 
ATOM     26  C   UNL     1       0.509  10.703  20.944  0.00  0.00    +0.000 A 
ATOM     27  C   UNL     1      -0.803  10.735  20.460  0.00  0.00    +0.000 A 
ATOM     28  C   UNL     1      -1.328  11.932  19.969  0.00  0.00    +0.000 A 
BRANCH  23  30
ATOM     29  C   UNL     1      -0.030  15.080  18.795  0.00  0.00    +0.000 C 
ATOM     30  O   UNL     1      -0.978  14.322  19.541  0.00  0.00    +0.000 OA
ENDBRANCH  23  30
ENDBRANCH  20  26
ENDBRANCH   1  20
TORSDOF 4
ENDMDL
MODEL 6
REMARK VINA RESULT:      -7.2      3.282      7.910
REMARK  Name = 
REMARK  7 active torsions:
REMARK  status: ('A' for Active; 'I' for Inactive)
REMARK    1  A    between atoms: C_1  and  O_2
REMARK    2  A    between atoms: O_2  and  C_3
REMARK    3  A    between atoms: C_6  and  S_7
REMARK    4  A    between atoms: S_7  and  C_10
REMARK    5  A    between atoms: C_19  and  C_20
REMARK    6  A    between atoms: C_23  and  C_24
REMARK    7  A    between atoms: C_25  and  C_26
REMARK                            x       y       z     vdW  Elec       q    Type
REMARK                         _______ _______ _______ _____ _____    ______ ____
ROOT
ATOM      1  C   UNL     1      -0.298  10.297  20.653  0.00  0.00    +0.000 A 
ATOM      2  C   UNL     1      -0.464   9.489  21.757  0.00  0.00    +0.000 A 
ATOM      3  S   UNL     1       0.764   8.307  21.870  0.00  0.00    +0.000 S 
ATOM      4  C   UNL     1       1.337   8.694  20.306  0.00  0.00    +0.000 A 
ATOM      5  C   UNL     1       0.768   9.850  19.819  0.00  0.00    +0.000 A 
ATOM      6  N   UNL     1       1.272  10.433  18.673  0.00  0.00    +0.000 N 
ATOM      7  C   UNL     1       2.330   9.894  17.982  0.00  0.00    +0.000 C 
ATOM      8  O   UNL     1       2.979  10.565  17.182  0.00  0.00    +0.000 OA
ATOM      9  C   UNL     1       2.554   8.401  18.146  0.00  0.00    +0.000 C 
ATOM     10  C   UNL     1       2.386   7.883  19.582  0.00  0.00    +0.000 C 
ATOM     11  H   UNL     1       0.964  11.371  18.416  0.00  0.00    +0.000 HD
ENDROOT
BRANCH  10  12
ATOM     12  C   UNL     1       2.062   6.388  19.521  0.00  0.00    +0.000 A 
ATOM     13  C   UNL     1       1.411   5.752  20.581  0.00  0.00    +0.000 A 
ATOM     14  C   UNL     1       1.120   4.385  20.516  0.00  0.00    +0.000 A 
ATOM     15  C   UNL     1       1.458   3.621  19.385  0.00  0.00    +0.000 A 
ATOM     16  C   UNL     1       1.096   2.162  19.348  0.00  0.00    +0.000 C 
ATOM     17  C   UNL     1       2.114   4.244  18.314  0.00  0.00    +0.000 A 
ATOM     18  C   UNL     1       2.456   3.550  17.023  0.00  0.00    +0.000 C 
ATOM     19  C   UNL     1       2.438   5.606  18.414  0.00  0.00    +0.000 A 
ENDBRANCH  10  12
BRANCH   1  20
ATOM     20  S   UNL     1      -1.308  11.672  20.357  0.00  0.00    +0.000 S 
ATOM     21  O   UNL     1      -0.368  12.743  20.077  0.00  0.00    +0.000 OA
ATOM     22  O   UNL     1      -2.238  11.715  21.463  0.00  0.00    +0.000 OA
BRANCH  20  26
ATOM     23  C   UNL     1      -3.632  10.667  16.571  0.00  0.00    +0.000 A 
ATOM     24  C   UNL     1      -2.375  10.095  16.789  0.00  0.00    +0.000 A 
ATOM     25  C   UNL     1      -1.656  10.385  17.950  0.00  0.00    +0.000 A 
ATOM     26  C   UNL     1      -2.197  11.270  18.886  0.00  0.00    +0.000 A 
ATOM     27  C   UNL     1      -3.443  11.867  18.666  0.00  0.00    +0.000 A 
ATOM     28  C   UNL     1      -4.160  11.559  17.508  0.00  0.00    +0.000 A 
BRANCH  23  30
ATOM     29  C   UNL     1      -3.360  10.132  14.283  0.00  0.00    +0.000 C 
ATOM     30  O   UNL     1      -4.236  10.323  15.390  0.00  0.00    +0.000 OA
ENDBRANCH  23  30
ENDBRANCH  20  26
ENDBRANCH   1  20
TORSDOF 4
ENDMDL
MODEL 7
REMARK VINA RESULT:      -7.1      4.122      8.305
REMARK  Name = 
REMARK  7 active torsions:
REMARK  status: ('A' for Active; 'I' for Inactive)
REMARK    1  A    between atoms: C_1  and  O_2
REMARK    2  A    between atoms: O_2  and  C_3
REMARK    3  A    between atoms: C_6  and  S_7
REMARK    4  A    between atoms: S_7  and  C_10
REMARK    5  A    between atoms: C_19  and  C_20
REMARK    6  A    between atoms: C_23  and  C_24
REMARK    7  A    between atoms: C_25  and  C_26
REMARK                            x       y       z     vdW  Elec       q    Type
REMARK                         _______ _______ _______ _____ _____    ______ ____
ROOT
ATOM      1  C   UNL     1      -0.436  12.405  20.186  0.00  0.00    +0.000 A 
ATOM      2  C   UNL     1      -0.630  12.156  18.845  0.00  0.00    +0.000 A 
ATOM      3  S   UNL     1      -0.560  10.485  18.492  0.00  0.00    +0.000 S 
ATOM      4  C   UNL     1       0.010  10.135  20.066  0.00  0.00    +0.000 A 
ATOM      5  C   UNL     1      -0.087  11.223  20.904  0.00  0.00    +0.000 A 
ATOM      6  N   UNL     1       0.116  11.064  22.261  0.00  0.00    +0.000 N 
ATOM      7  C   UNL     1       0.426   9.846  22.817  0.00  0.00    +0.000 C 
ATOM      8  O   UNL     1       0.280   9.638  24.020  0.00  0.00    +0.000 OA
ATOM      9  C   UNL     1       1.094   8.836  21.902  0.00  0.00    +0.000 C 
ATOM     10  C   UNL     1       0.506   8.771  20.484  0.00  0.00    +0.000 C 
ATOM     11  H   UNL     1      -0.124  11.828  22.892  0.00  0.00    +0.000 HD
ENDROOT
BRANCH  10  12
ATOM     12  C   UNL     1       1.572   8.198  19.546  0.00  0.00    +0.000 A 
ATOM     13  C   UNL     1       1.930   8.870  18.374  0.00  0.00    +0.000 A 
ATOM     14  C   UNL     1       2.905   8.338  17.523  0.00  0.00    +0.000 A 
ATOM     15  C   UNL     1       3.557   7.130  17.826  0.00  0.00    +0.000 A 
ATOM     16  C   UNL     1       4.621   6.615  16.896  0.00  0.00    +0.000 C 
ATOM     17  C   UNL     1       3.207   6.443  18.997  0.00  0.00    +0.000 A 
ATOM     18  C   UNL     1       3.887   5.185  19.465  0.00  0.00    +0.000 C 
ATOM     19  C   UNL     1       2.196   6.968  19.818  0.00  0.00    +0.000 A 
ENDBRANCH  10  12
BRANCH   1  20
ATOM     20  S   UNL     1      -0.594  13.991  20.862  0.00  0.00    +0.000 S 
ATOM     21  O   UNL     1       0.005  13.872  22.179  0.00  0.00    +0.000 OA
ATOM     22  O   UNL     1      -1.978  14.362  20.660  0.00  0.00    +0.000 OA
BRANCH  20  26
ATOM     23  C   UNL     1       2.057  16.609  18.242  0.00  0.00    +0.000 A 
ATOM     24  C   UNL     1       0.702  16.920  18.394  0.00  0.00    +0.000 A 
ATOM     25  C   UNL     1      -0.120  16.134  19.203  0.00  0.00    +0.000 A 
ATOM     26  C   UNL     1       0.420  15.017  19.846  0.00  0.00    +0.000 A 
ATOM     27  C   UNL     1       1.769  14.683  19.681  0.00  0.00    +0.000 A 
ATOM     28  C   UNL     1       2.585  15.484  18.881  0.00  0.00    +0.000 A 
BRANCH  23  30
ATOM     29  C   UNL     1       2.049  17.922  16.275  0.00  0.00    +0.000 C 
ATOM     30  O   UNL     1       2.760  17.441  17.411  0.00  0.00    +0.000 OA
ENDBRANCH  23  30
ENDBRANCH  20  26
ENDBRANCH   1  20
TORSDOF 4
ENDMDL
MODEL 8
REMARK VINA RESULT:      -7.1      3.678      9.213
REMARK  Name = 
REMARK  7 active torsions:
REMARK  status: ('A' for Active; 'I' for Inactive)
REMARK    1  A    between atoms: C_1  and  O_2
REMARK    2  A    between atoms: O_2  and  C_3
REMARK    3  A    between atoms: C_6  and  S_7
REMARK    4  A    between atoms: S_7  and  C_10
REMARK    5  A    between atoms: C_19  and  C_20
REMARK    6  A    between atoms: C_23  and  C_24
REMARK    7  A    between atoms: C_25  and  C_26
REMARK                            x       y       z     vdW  Elec       q    Type
REMARK                         _______ _______ _______ _____ _____    ______ ____
ROOT
ATOM      1  C   UNL     1       0.155  12.236  20.067  0.00  0.00    +0.000 A 
ATOM      2  C   UNL     1      -0.001  12.004  18.718  0.00  0.00    +0.000 A 
ATOM      3  S   UNL     1      -0.058  10.334  18.362  0.00  0.00    +0.000 S 
ATOM      4  C   UNL     1       0.412   9.936  19.957  0.00  0.00    +0.000 A 
ATOM      5  C   UNL     1       0.371  11.029  20.795  0.00  0.00    +0.000 A 
ATOM      6  N   UNL     1       0.502  10.853  22.159  0.00  0.00    +0.000 N 
ATOM      7  C   UNL     1       0.682   9.613  22.722  0.00  0.00    +0.000 C 
ATOM      8  O   UNL     1       0.467   9.418  23.917  0.00  0.00    +0.000 OA
ATOM      9  C   UNL     1       1.301   8.550  21.833  0.00  0.00    +0.000 C 
ATOM     10  C   UNL     1       0.771   8.535  20.391  0.00  0.00    +0.000 C 
ATOM     11  H   UNL     1       0.300  11.635  22.782  0.00  0.00    +0.000 HD
ENDROOT
BRANCH  10  12
ATOM     12  C   UNL     1       1.824   7.874  19.498  0.00  0.00    +0.000 A 
ATOM     13  C   UNL     1       2.301   8.521  18.355  0.00  0.00    +0.000 A 
ATOM     14  C   UNL     1       3.263   7.907  17.544  0.00  0.00    +0.000 A 
ATOM     15  C   UNL     1       3.784   6.640  17.861  0.00  0.00    +0.000 A 
ATOM     16  C   UNL     1       4.839   6.036  16.976  0.00  0.00    +0.000 C 
ATOM     17  C   UNL     1       3.313   5.978  19.004  0.00  0.00    +0.000 A 
ATOM     18  C   UNL     1       3.849   4.657  19.486  0.00  0.00    +0.000 C 
ATOM     19  C   UNL     1       2.316   6.587  19.782  0.00  0.00    +0.000 A 
ENDBRANCH  10  12
BRANCH   1  20
ATOM     20  S   UNL     1       0.104  13.830  20.741  0.00  0.00    +0.000 S 
ATOM     21  O   UNL     1      -0.030  14.695  19.583  0.00  0.00    +0.000 OA
ATOM     22  O   UNL     1       1.227  13.902  21.650  0.00  0.00    +0.000 OA
BRANCH  20  26
ATOM     23  C   UNL     1      -3.770  13.934  23.135  0.00  0.00    +0.000 A 
ATOM     24  C   UNL     1      -2.540  13.943  23.799  0.00  0.00    +0.000 A 
ATOM     25  C   UNL     1      -1.344  13.923  23.079  0.00  0.00    +0.000 A 
ATOM     26  C   UNL     1      -1.388  13.873  21.683  0.00  0.00    +0.000 A 
ATOM     27  C   UNL     1      -2.613  13.840  21.009  0.00  0.00    +0.000 A 
ATOM     28  C   UNL     1      -3.803  13.874  21.739  0.00  0.00    +0.000 A 
BRANCH  23  30
ATOM     29  C   UNL     1      -5.274  12.667  24.449  0.00  0.00    +0.000 C 
ATOM     30  O   UNL     1      -4.874  13.938  23.945  0.00  0.00    +0.000 OA
ENDBRANCH  23  30
ENDBRANCH  20  26
ENDBRANCH   1  20
TORSDOF 4
ENDMDL
MODEL 9
REMARK VINA RESULT:      -7.0      4.692      9.720
REMARK  Name = 
REMARK  7 active torsions:
REMARK  status: ('A' for Active; 'I' for Inactive)
REMARK    1  A    between atoms: C_1  and  O_2
REMARK    2  A    between atoms: O_2  and  C_3
REMARK    3  A    between atoms: C_6  and  S_7
REMARK    4  A    between atoms: S_7  and  C_10
REMARK    5  A    between atoms: C_19  and  C_20
REMARK    6  A    between atoms: C_23  and  C_24
REMARK    7  A    between atoms: C_25  and  C_26
REMARK                            x       y       z     vdW  Elec       q    Type
REMARK                         _______ _______ _______ _____ _____    ______ ____
ROOT
ATOM      1  C   UNL     1      -0.123  13.898  21.154  0.00  0.00    +0.000 A 
ATOM      2  C   UNL     1       1.252  13.806  21.181  0.00  0.00    +0.000 A 
ATOM      3  S   UNL     1       1.841  12.742  19.981  0.00  0.00    +0.000 S 
ATOM      4  C   UNL     1       0.259  12.196  19.630  0.00  0.00    +0.000 A 
ATOM      5  C   UNL     1      -0.702  12.978  20.232  0.00  0.00    +0.000 A 
ATOM      6  N   UNL     1      -2.030  12.824  19.882  0.00  0.00    +0.000 N 
ATOM      7  C   UNL     1      -2.438  11.902  18.950  0.00  0.00    +0.000 C 
ATOM      8  O   UNL     1      -3.538  11.989  18.405  0.00  0.00    +0.000 OA
ATOM      9  C   UNL     1      -1.533  10.701  18.745  0.00  0.00    +0.000 C 
ATOM     10  C   UNL     1      -0.032  11.028  18.718  0.00  0.00    +0.000 C 
ATOM     11  H   UNL     1      -2.710  13.515  20.199  0.00  0.00    +0.000 HD
ENDROOT
BRANCH  10  12
ATOM     12  C   UNL     1       0.744   9.761  19.088  0.00  0.00    +0.000 A 
ATOM     13  C   UNL     1       0.591   9.169  20.344  0.00  0.00    +0.000 A 
ATOM     14  C   UNL     1       1.307   8.012  20.673  0.00  0.00    +0.000 A 
ATOM     15  C   UNL     1       2.180   7.408  19.752  0.00  0.00    +0.000 A 
ATOM     16  C   UNL     1       2.902   6.148  20.140  0.00  0.00    +0.000 C 
ATOM     17  C   UNL     1       2.346   7.992  18.488  0.00  0.00    +0.000 A 
ATOM     18  C   UNL     1       3.191   7.397  17.394  0.00  0.00    +0.000 C 
ATOM     19  C   UNL     1       1.655   9.177  18.189  0.00  0.00    +0.000 A 
ENDBRANCH  10  12
BRANCH   1  20
ATOM     20  S   UNL     1      -0.993  15.009  22.159  0.00  0.00    +0.000 S 
ATOM     21  O   UNL     1      -1.293  16.120  21.274  0.00  0.00    +0.000 OA
ATOM     22  O   UNL     1      -0.195  15.153  23.357  0.00  0.00    +0.000 OA
BRANCH  20  26
ATOM     23  C   UNL     1      -4.829  12.813  23.258  0.00  0.00    +0.000 A 
ATOM     24  C   UNL     1      -4.877  13.905  22.386  0.00  0.00    +0.000 A 
ATOM     25  C   UNL     1      -3.708  14.580  22.031  0.00  0.00    +0.000 A 
ATOM     26  C   UNL     1      -2.488  14.167  22.572  0.00  0.00    +0.000 A 
ATOM     27  C   UNL     1      -2.432  13.091  23.465  0.00  0.00    +0.000 A 
ATOM     28  C   UNL     1      -3.605  12.414  23.802  0.00  0.00    +0.000 A 
BRANCH  23  30
ATOM     29  C   UNL     1      -7.006  13.106  24.134  0.00  0.00    +0.000 C 
ATOM     30  O   UNL     1      -6.039  12.240  23.548  0.00  0.00    +0.000 OA
ENDBRANCH  23  30
ENDBRANCH  20  26
ENDBRANCH   1  20
TORSDOF 4
ENDMDL
