MODEL 1
REMARK VINA RESULT:      -7.2      0.000      0.000
REMARK  Name = 
REMARK  8 active torsions:
REMARK  status: ('A' for Active; 'I' for Inactive)
REMARK    1  A    between atoms: C_2  and  C_3
REMARK    2  A    between atoms: C_2  and  C_15
REMARK    3  A    between atoms: C_3  and  C_4
REMARK    4  A    between atoms: C_4  and  C_5
REMARK    5  A    between atoms: C_4  and  C_12
REMARK    6  A    between atoms: C_5  and  C_6
REMARK    7  A    between atoms: C_12  and  O_14
REMARK    8  A    between atoms: C_15  and  N_16
REMARK                            x       y       z     vdW  Elec       q    Type
REMARK                         _______ _______ _______ _____ _____    ______ ____
ROOT
ATOM      1  C   UNL     1       4.656   5.615  18.049  0.00  0.00    +0.000 C 
ENDROOT
BRANCH   1   2
ATOM      2  C   UNL     1       4.960   4.168  17.681  0.00  0.00    +0.000 C 
ATOM      3  O   UNL     1       4.770   3.684  16.574  0.00  0.00    +0.000 OA
BRANCH   2   4
ATOM      4  O   UNL     1       5.508   3.445  18.683  0.00  0.00    +0.000 OA
ATOM      5  H   UNL     1       6.153   2.769  18.406  0.00  0.00    +0.000 HD
ENDBRANCH   2   4
ENDBRANCH   1   2
BRANCH   1   6
ATOM      6  C   UNL     1       5.377   6.531  17.043  0.00  0.00    +0.000 C 
BRANCH   6   8
ATOM      7  O   UNL     1       7.476   6.030  15.968  0.00  0.00    +0.000 OA
ATOM      8  C   UNL     1       6.889   6.387  16.991  0.00  0.00    +0.000 C 
BRANCH   8   9
ATOM      9  C   UNL     1       7.642   6.712  18.252  0.00  0.00    +0.000 C 
BRANCH   9  10
ATOM     10  N   UNL     1       7.834   5.437  18.987  0.00  0.00    +0.000 N 
ATOM     11  O   UNL     1       8.291   4.478  18.352  0.00  0.00    +0.000 OA
ATOM     12  O   UNL     1       7.578   5.438  20.197  0.00  0.00    +0.000 OA
ENDBRANCH   9  10
ENDBRANCH   8   9
ENDBRANCH   6   8
ENDBRANCH   1   6
BRANCH   1  13
ATOM     13  C   UNL     1       3.141   5.860  18.187  0.00  0.00    +0.000 C 
BRANCH  13  14
ATOM     14  C   UNL     1       2.366   4.888  19.040  0.00  0.00    +0.000 A 
ATOM     15  C   UNL     1       1.497   3.957  18.452  0.00  0.00    +0.000 A 
ATOM     16  C   UNL     1       0.853   2.998  19.233  0.00  0.00    +0.000 A 
ATOM     17  C   UNL     1       1.058   2.966  20.611  0.00  0.00    +0.000 A 
ATOM     18  C   UNL     1       1.899   3.902  21.209  0.00  0.00    +0.000 A 
ATOM     19  C   UNL     1       2.552   4.857  20.429  0.00  0.00    +0.000 A 
ENDBRANCH  13  14
ENDBRANCH   1  13
TORSDOF 8
ENDMDL
MODEL 2
REMARK VINA RESULT:      -7.1      1.641      2.645
REMARK  Name = 
REMARK  8 active torsions:
REMARK  status: ('A' for Active; 'I' for Inactive)
REMARK    1  A    between atoms: C_2  and  C_3
REMARK    2  A    between atoms: C_2  and  C_15
REMARK    3  A    between atoms: C_3  and  C_4
REMARK    4  A    between atoms: C_4  and  C_5
REMARK    5  A    between atoms: C_4  and  C_12
REMARK    6  A    between atoms: C_5  and  C_6
REMARK    7  A    between atoms: C_12  and  O_14
REMARK    8  A    between atoms: C_15  and  N_16
REMARK                            x       y       z     vdW  Elec       q    Type
REMARK                         _______ _______ _______ _____ _____    ______ ____
ROOT
ATOM      1  C   UNL     1       4.662   5.779  18.258  0.00  0.00    +0.000 C 
ENDROOT
BRANCH   1   2
ATOM      2  C   UNL     1       5.711   4.921  18.956  0.00  0.00    +0.000 C 
ATOM      3  O   UNL     1       6.453   5.323  19.840  0.00  0.00    +0.000 OA
BRANCH   2   4
ATOM      4  O   UNL     1       5.736   3.634  18.545  0.00  0.00    +0.000 OA
ATOM      5  H   UNL     1       6.612   3.205  18.566  0.00  0.00    +0.000 HD
ENDBRANCH   2   4
ENDBRANCH   1   2
BRANCH   1   6
ATOM      6  C   UNL     1       4.332   5.129  16.902  0.00  0.00    +0.000 C 
BRANCH   6   8
ATOM      7  O   UNL     1       5.175   6.827  15.413  0.00  0.00    +0.000 OA
ATOM      8  C   UNL     1       5.139   5.633  15.717  0.00  0.00    +0.000 C 
BRANCH   8   9
ATOM      9  C   UNL     1       5.904   4.602  14.933  0.00  0.00    +0.000 C 
BRANCH   9  10
ATOM     10  N   UNL     1       7.346   4.847  15.179  0.00  0.00    +0.000 N 
ATOM     11  O   UNL     1       7.975   5.463  14.309  0.00  0.00    +0.000 OA
ATOM     12  O   UNL     1       7.806   4.469  16.263  0.00  0.00    +0.000 OA
ENDBRANCH   9  10
ENDBRANCH   8   9
ENDBRANCH   6   8
ENDBRANCH   1   6
BRANCH   1  13
ATOM     13  C   UNL     1       3.448   6.045  19.168  0.00  0.00    +0.000 C 
BRANCH  13  14
ATOM     14  C   UNL     1       2.643   4.846  19.603  0.00  0.00    +0.000 A 
ATOM     15  C   UNL     1       2.652   4.429  20.942  0.00  0.00    +0.000 A 
ATOM     16  C   UNL     1       1.835   3.378  21.362  0.00  0.00    +0.000 A 
ATOM     17  C   UNL     1       1.012   2.725  20.447  0.00  0.00    +0.000 A 
ATOM     18  C   UNL     1       1.015   3.113  19.109  0.00  0.00    +0.000 A 
ATOM     19  C   UNL     1       1.824   4.170  18.688  0.00  0.00    +0.000 A 
ENDBRANCH  13  14
ENDBRANCH   1  13
TORSDOF 8
ENDMDL
MODEL 3
REMARK VINA RESULT:      -7.1      0.430      1.411
REMARK  Name = 
REMARK  8 active torsions:
REMARK  status: ('A' for Active; 'I' for Inactive)
REMARK    1  A    between atoms: C_2  and  C_3
REMARK    2  A    between atoms: C_2  and  C_15
REMARK    3  A    between atoms: C_3  and  C_4
REMARK    4  A    between atoms: C_4  and  C_5
REMARK    5  A    between atoms: C_4  and  C_12
REMARK    6  A    between atoms: C_5  and  C_6
REMARK    7  A    between atoms: C_12  and  O_14
REMARK    8  A    between atoms: C_15  and  N_16
REMARK                            x       y       z     vdW  Elec       q    Type
REMARK                         _______ _______ _______ _____ _____    ______ ____
ROOT
ATOM      1  C   UNL     1       4.689   5.694  17.841  0.00  0.00    +0.000 C 
ENDROOT
BRANCH   1   2
ATOM      2  C   UNL     1       4.938   4.343  17.181  0.00  0.00    +0.000 C 
ATOM      3  O   UNL     1       4.772   4.116  15.991  0.00  0.00    +0.000 OA
BRANCH   2   4
ATOM      4  O   UNL     1       5.409   3.395  18.022  0.00  0.00    +0.000 OA
ATOM      5  H   UNL     1       4.759   3.037  18.654  0.00  0.00    +0.000 HD
ENDBRANCH   2   4
ENDBRANCH   1   2
BRANCH   1   6
ATOM      6  C   UNL     1       5.481   6.763  17.067  0.00  0.00    +0.000 C 
BRANCH   6   8
ATOM      7  O   UNL     1       7.557   6.210  15.972  0.00  0.00    +0.000 OA
ATOM      8  C   UNL     1       6.986   6.553  17.008  0.00  0.00    +0.000 C 
BRANCH   8   9
ATOM      9  C   UNL     1       7.750   6.792  18.282  0.00  0.00    +0.000 C 
BRANCH   9  10
ATOM     10  N   UNL     1       7.842   5.490  18.988  0.00  0.00    +0.000 N 
ATOM     11  O   UNL     1       7.529   5.469  20.185  0.00  0.00    +0.000 OA
ATOM     12  O   UNL     1       8.169   4.505  18.316  0.00  0.00    +0.000 OA
ENDBRANCH   9  10
ENDBRANCH   8   9
ENDBRANCH   6   8
ENDBRANCH   1   6
BRANCH   1  13
ATOM     13  C   UNL     1       3.184   5.981  17.997  0.00  0.00    +0.000 C 
BRANCH  13  14
ATOM     14  C   UNL     1       2.361   4.943  18.718  0.00  0.00    +0.000 A 
ATOM     15  C   UNL     1       2.256   4.961  20.117  0.00  0.00    +0.000 A 
ATOM     16  C   UNL     1       1.420   4.058  20.775  0.00  0.00    +0.000 A 
ATOM     17  C   UNL     1       0.692   3.121  20.046  0.00  0.00    +0.000 A 
ATOM     18  C   UNL     1       0.808   3.077  18.659  0.00  0.00    +0.000 A 
ATOM     19  C   UNL     1       1.636   3.984  17.997  0.00  0.00    +0.000 A 
ENDBRANCH  13  14
ENDBRANCH   1  13
TORSDOF 8
ENDMDL
MODEL 4
REMARK VINA RESULT:      -6.8      1.867      2.948
REMARK  Name = 
REMARK  8 active torsions:
REMARK  status: ('A' for Active; 'I' for Inactive)
REMARK    1  A    between atoms: C_2  and  C_3
REMARK    2  A    between atoms: C_2  and  C_15
REMARK    3  A    between atoms: C_3  and  C_4
REMARK    4  A    between atoms: C_4  and  C_5
REMARK    5  A    between atoms: C_4  and  C_12
REMARK    6  A    between atoms: C_5  and  C_6
REMARK    7  A    between atoms: C_12  and  O_14
REMARK    8  A    between atoms: C_15  and  N_16
REMARK                            x       y       z     vdW  Elec       q    Type
REMARK                         _______ _______ _______ _____ _____    ______ ____
ROOT
ATOM      1  C   UNL     1       4.742   5.757  18.290  0.00  0.00    +0.000 C 
ENDROOT
BRANCH   1   2
ATOM      2  C   UNL     1       5.586   4.815  19.140  0.00  0.00    +0.000 C 
ATOM      3  O   UNL     1       5.400   3.609  19.225  0.00  0.00    +0.000 OA
BRANCH   2   4
ATOM      4  O   UNL     1       6.613   5.417  19.781  0.00  0.00    +0.000 OA
ATOM      5  H   UNL     1       7.498   5.232  19.418  0.00  0.00    +0.000 HD
ENDBRANCH   2   4
ENDBRANCH   1   2
BRANCH   1   6
ATOM      6  C   UNL     1       4.640   5.167  16.872  0.00  0.00    +0.000 C 
BRANCH   6   8
ATOM      7  O   UNL     1       5.340   6.766  15.209  0.00  0.00    +0.000 OA
ATOM      8  C   UNL     1       5.603   5.746  15.849  0.00  0.00    +0.000 C 
BRANCH   8   9
ATOM      9  C   UNL     1       6.904   5.017  15.658  0.00  0.00    +0.000 C 
BRANCH   9  10
ATOM     10  N   UNL     1       7.117   4.877  14.196  0.00  0.00    +0.000 N 
ATOM     11  O   UNL     1       7.991   5.585  13.678  0.00  0.00    +0.000 OA
ATOM     12  O   UNL     1       6.446   4.022  13.606  0.00  0.00    +0.000 OA
ENDBRANCH   9  10
ENDBRANCH   8   9
ENDBRANCH   6   8
ENDBRANCH   1   6
BRANCH   1  13
ATOM     13  C   UNL     1       3.394   6.076  18.964  0.00  0.00    +0.000 C 
BRANCH  13  14
ATOM     14  C   UNL     1       2.503   4.905  19.300  0.00  0.00    +0.000 A 
ATOM     15  C   UNL     1       2.221   4.584  20.636  0.00  0.00    +0.000 A 
ATOM     16  C   UNL     1       1.323   3.561  20.943  0.00  0.00    +0.000 A 
ATOM     17  C   UNL     1       0.710   2.839  19.921  0.00  0.00    +0.000 A 
ATOM     18  C   UNL     1       1.003   3.133  18.591  0.00  0.00    +0.000 A 
ATOM     19  C   UNL     1       1.893   4.162  18.281  0.00  0.00    +0.000 A 
ENDBRANCH  13  14
ENDBRANCH   1  13
TORSDOF 8
ENDMDL
MODEL 5
REMARK VINA RESULT:      -6.8      1.669      2.344
REMARK  Name = 
REMARK  8 active torsions:
REMARK  status: ('A' for Active; 'I' for Inactive)
REMARK    1  A    between atoms: C_2  and  C_3
REMARK    2  A    between atoms: C_2  and  C_15
REMARK    3  A    between atoms: C_3  and  C_4
REMARK    4  A    between atoms: C_4  and  C_5
REMARK    5  A    between atoms: C_4  and  C_12
REMARK    6  A    between atoms: C_5  and  C_6
REMARK    7  A    between atoms: C_12  and  O_14
REMARK    8  A    between atoms: C_15  and  N_16
REMARK                            x       y       z     vdW  Elec       q    Type
REMARK                         _______ _______ _______ _____ _____    ______ ____
ROOT
ATOM      1  C   UNL     1       4.553   5.730  18.464  0.00  0.00    +0.000 C 
ENDROOT
BRANCH   1   2
ATOM      2  C   UNL     1       5.533   4.760  19.114  0.00  0.00    +0.000 C 
ATOM      3  O   UNL     1       5.302   3.576  19.314  0.00  0.00    +0.000 OA
BRANCH   2   4
ATOM      4  O   UNL     1       6.728   5.309  19.429  0.00  0.00    +0.000 OA
ATOM      5  H   UNL     1       6.771   5.749  20.297  0.00  0.00    +0.000 HD
ENDBRANCH   2   4
ENDBRANCH   1   2
BRANCH   1   6
ATOM      6  C   UNL     1       4.181   5.181  17.075  0.00  0.00    +0.000 C 
BRANCH   6   8
ATOM      7  O   UNL     1       5.175   6.780  15.570  0.00  0.00    +0.000 OA
ATOM      8  C   UNL     1       5.091   5.606  15.935  0.00  0.00    +0.000 C 
BRANCH   8   9
ATOM      9  C   UNL     1       5.896   4.522  15.272  0.00  0.00    +0.000 C 
BRANCH   9  10
ATOM     10  N   UNL     1       7.328   4.843  15.493  0.00  0.00    +0.000 N 
ATOM     11  O   UNL     1       7.827   4.503  16.573  0.00  0.00    +0.000 OA
ATOM     12  O   UNL     1       7.937   5.375  14.558  0.00  0.00    +0.000 OA
ENDBRANCH   9  10
ENDBRANCH   8   9
ENDBRANCH   6   8
ENDBRANCH   1   6
BRANCH   1  13
ATOM     13  C   UNL     1       3.359   6.035  19.388  0.00  0.00    +0.000 C 
BRANCH  13  14
ATOM     14  C   UNL     1       2.459   4.879  19.748  0.00  0.00    +0.000 A 
ATOM     15  C   UNL     1       1.733   4.205  18.755  0.00  0.00    +0.000 A 
ATOM     16  C   UNL     1       0.975   3.078  19.076  0.00  0.00    +0.000 A 
ATOM     17  C   UNL     1       0.923   2.621  20.391  0.00  0.00    +0.000 A 
ATOM     18  C   UNL     1       1.620   3.298  21.389  0.00  0.00    +0.000 A 
ATOM     19  C   UNL     1       2.387   4.420  21.070  0.00  0.00    +0.000 A 
ENDBRANCH  13  14
ENDBRANCH   1  13
TORSDOF 8
ENDMDL
MODEL 6
REMARK VINA RESULT:      -6.7      1.913      2.882
REMARK  Name = 
REMARK  8 active torsions:
REMARK  status: ('A' for Active; 'I' for Inactive)
REMARK    1  A    between atoms: C_2  and  C_3
REMARK    2  A    between atoms: C_2  and  C_15
REMARK    3  A    between atoms: C_3  and  C_4
REMARK    4  A    between atoms: C_4  and  C_5
REMARK    5  A    between atoms: C_4  and  C_12
REMARK    6  A    between atoms: C_5  and  C_6
REMARK    7  A    between atoms: C_12  and  O_14
REMARK    8  A    between atoms: C_15  and  N_16
REMARK                            x       y       z     vdW  Elec       q    Type
REMARK                         _______ _______ _______ _____ _____    ______ ____
ROOT
ATOM      1  C   UNL     1       4.832   5.741  18.319  0.00  0.00    +0.000 C 
ENDROOT
BRANCH   1   2
ATOM      2  C   UNL     1       5.732   4.788  19.097  0.00  0.00    +0.000 C 
ATOM      3  O   UNL     1       6.555   5.142  19.929  0.00  0.00    +0.000 OA
BRANCH   2   4
ATOM      4  O   UNL     1       5.523   3.481  18.824  0.00  0.00    +0.000 OA
ATOM      5  H   UNL     1       6.328   2.942  18.717  0.00  0.00    +0.000 HD
ENDBRANCH   2   4
ENDBRANCH   1   2
BRANCH   1   6
ATOM      6  C   UNL     1       4.606   5.151  16.915  0.00  0.00    +0.000 C 
BRANCH   6   8
ATOM      7  O   UNL     1       5.320   6.735  15.243  0.00  0.00    +0.000 OA
ATOM      8  C   UNL     1       5.531   5.670  15.826  0.00  0.00    +0.000 C 
BRANCH   8   9
ATOM      9  C   UNL     1       6.729   4.822  15.497  0.00  0.00    +0.000 C 
BRANCH   9  10
ATOM     10  N   UNL     1       6.752   4.650  14.024  0.00  0.00    +0.000 N 
ATOM     11  O   UNL     1       5.901   3.902  13.526  0.00  0.00    +0.000 OA
ATOM     12  O   UNL     1       7.583   5.312  13.391  0.00  0.00    +0.000 OA
ENDBRANCH   9  10
ENDBRANCH   8   9
ENDBRANCH   6   8
ENDBRANCH   1   6
BRANCH   1  13
ATOM     13  C   UNL     1       3.549   6.077  19.101  0.00  0.00    +0.000 C 
BRANCH  13  14
ATOM     14  C   UNL     1       2.581   4.946  19.347  0.00  0.00    +0.000 A 
ATOM     15  C   UNL     1       1.861   4.381  18.284  0.00  0.00    +0.000 A 
ATOM     16  C   UNL     1       1.038   3.274  18.497  0.00  0.00    +0.000 A 
ATOM     17  C   UNL     1       0.914   2.731  19.774  0.00  0.00    +0.000 A 
ATOM     18  C   UNL     1       1.604   3.300  20.841  0.00  0.00    +0.000 A 
ATOM     19  C   UNL     1       2.436   4.401  20.630  0.00  0.00    +0.000 A 
ENDBRANCH  13  14
ENDBRANCH   1  13
TORSDOF 8
ENDMDL
MODEL 7
REMARK VINA RESULT:      -6.7      1.554      2.536
REMARK  Name = 
REMARK  8 active torsions:
REMARK  status: ('A' for Active; 'I' for Inactive)
REMARK    1  A    between atoms: C_2  and  C_3
REMARK    2  A    between atoms: C_2  and  C_15
REMARK    3  A    between atoms: C_3  and  C_4
REMARK    4  A    between atoms: C_4  and  C_5
REMARK    5  A    between atoms: C_4  and  C_12
REMARK    6  A    between atoms: C_5  and  C_6
REMARK    7  A    between atoms: C_12  and  O_14
REMARK    8  A    between atoms: C_15  and  N_16
REMARK                            x       y       z     vdW  Elec       q    Type
REMARK                         _______ _______ _______ _____ _____    ______ ____
ROOT
ATOM      1  C   UNL     1       4.670   5.826  18.262  0.00  0.00    +0.000 C 
ENDROOT
BRANCH   1   2
ATOM      2  C   UNL     1       5.543   4.787  18.954  0.00  0.00    +0.000 C 
ATOM      3  O   UNL     1       5.448   3.580  18.780  0.00  0.00    +0.000 OA
BRANCH   2   4
ATOM      4  O   UNL     1       6.487   5.310  19.769  0.00  0.00    +0.000 OA
ATOM      5  H   UNL     1       6.242   5.364  20.711  0.00  0.00    +0.000 HD
ENDBRANCH   2   4
ENDBRANCH   1   2
BRANCH   1   6
ATOM      6  C   UNL     1       5.553   6.629  17.290  0.00  0.00    +0.000 C 
BRANCH   6   8
ATOM      7  O   UNL     1       4.914   7.083  15.010  0.00  0.00    +0.000 OA
ATOM      8  C   UNL     1       5.392   6.285  15.818  0.00  0.00    +0.000 C 
BRANCH   8   9
ATOM      9  C   UNL     1       5.853   4.919  15.389  0.00  0.00    +0.000 C 
BRANCH   9  10
ATOM     10  N   UNL     1       7.337   4.937  15.395  0.00  0.00    +0.000 N 
ATOM     11  O   UNL     1       7.909   4.385  16.343  0.00  0.00    +0.000 OA
ATOM     12  O   UNL     1       7.899   5.453  14.421  0.00  0.00    +0.000 OA
ENDBRANCH   9  10
ENDBRANCH   8   9
ENDBRANCH   6   8
ENDBRANCH   1   6
BRANCH   1  13
ATOM     13  C   UNL     1       3.418   5.187  17.632  0.00  0.00    +0.000 C 
BRANCH  13  14
ATOM     14  C   UNL     1       2.486   4.448  18.560  0.00  0.00    +0.000 A 
ATOM     15  C   UNL     1       2.107   5.012  19.787  0.00  0.00    +0.000 A 
ATOM     16  C   UNL     1       1.173   4.371  20.602  0.00  0.00    +0.000 A 
ATOM     17  C   UNL     1       0.619   3.155  20.207  0.00  0.00    +0.000 A 
ATOM     18  C   UNL     1       1.007   2.574  19.002  0.00  0.00    +0.000 A 
ATOM     19  C   UNL     1       1.934   3.217  18.181  0.00  0.00    +0.000 A 
ENDBRANCH  13  14
ENDBRANCH   1  13
TORSDOF 8
ENDMDL
MODEL 8
REMARK VINA RESULT:      -6.7      3.276      5.839
REMARK  Name = 
REMARK  8 active torsions:
REMARK  status: ('A' for Active; 'I' for Inactive)
REMARK    1  A    between atoms: C_2  and  C_3
REMARK    2  A    between atoms: C_2  and  C_15
REMARK    3  A    between atoms: C_3  and  C_4
REMARK    4  A    between atoms: C_4  and  C_5
REMARK    5  A    between atoms: C_4  and  C_12
REMARK    6  A    between atoms: C_5  and  C_6
REMARK    7  A    between atoms: C_12  and  O_14
REMARK    8  A    between atoms: C_15  and  N_16
REMARK                            x       y       z     vdW  Elec       q    Type
REMARK                         _______ _______ _______ _____ _____    ______ ____
ROOT
ATOM      1  C   UNL     1       3.125   5.427  18.435  0.00  0.00    +0.000 C 
ENDROOT
BRANCH   1   2
ATOM      2  C   UNL     1       2.666   6.816  18.862  0.00  0.00    +0.000 C 
ATOM      3  O   UNL     1       2.474   7.746  18.092  0.00  0.00    +0.000 OA
BRANCH   2   4
ATOM      4  O   UNL     1       2.439   6.941  20.189  0.00  0.00    +0.000 OA
ATOM      5  H   UNL     1       3.233   6.917  20.753  0.00  0.00    +0.000 HD
ENDBRANCH   2   4
ENDBRANCH   1   2
BRANCH   1   6
ATOM      6  C   UNL     1       1.879   4.590  18.095  0.00  0.00    +0.000 C 
BRANCH   6   8
ATOM      7  O   UNL     1       2.196   2.278  18.701  0.00  0.00    +0.000 OA
ATOM      8  C   UNL     1       1.659   3.357  18.957  0.00  0.00    +0.000 C 
BRANCH   8   9
ATOM      9  C   UNL     1       0.757   3.520  20.150  0.00  0.00    +0.000 C 
BRANCH   9  10
ATOM     10  N   UNL     1       1.612   3.431  21.360  0.00  0.00    +0.000 N 
ATOM     11  O   UNL     1       2.378   4.377  21.585  0.00  0.00    +0.000 OA
ATOM     12  O   UNL     1       1.457   2.445  22.090  0.00  0.00    +0.000 OA
ENDBRANCH   9  10
ENDBRANCH   8   9
ENDBRANCH   6   8
ENDBRANCH   1   6
BRANCH   1  13
ATOM     13  C   UNL     1       4.189   5.497  17.324  0.00  0.00    +0.000 C 
BRANCH  13  14
ATOM     14  C   UNL     1       5.579   5.920  17.733  0.00  0.00    +0.000 A 
ATOM     15  C   UNL     1       6.227   6.974  17.072  0.00  0.00    +0.000 A 
ATOM     16  C   UNL     1       7.472   7.425  17.512  0.00  0.00    +0.000 A 
ATOM     17  C   UNL     1       8.088   6.820  18.605  0.00  0.00    +0.000 A 
ATOM     18  C   UNL     1       7.465   5.755  19.252  0.00  0.00    +0.000 A 
ATOM     19  C   UNL     1       6.215   5.308  18.821  0.00  0.00    +0.000 A 
ENDBRANCH  13  14
ENDBRANCH   1  13
TORSDOF 8
ENDMDL
MODEL 9
REMARK VINA RESULT:      -6.7      1.550      2.295
REMARK  Name = 
REMARK  8 active torsions:
REMARK  status: ('A' for Active; 'I' for Inactive)
REMARK    1  A    between atoms: C_2  and  C_3
REMARK    2  A    between atoms: C_2  and  C_15
REMARK    3  A    between atoms: C_3  and  C_4
REMARK    4  A    between atoms: C_4  and  C_5
REMARK    5  A    between atoms: C_4  and  C_12
REMARK    6  A    between atoms: C_5  and  C_6
REMARK    7  A    between atoms: C_12  and  O_14
REMARK    8  A    between atoms: C_15  and  N_16
REMARK                            x       y       z     vdW  Elec       q    Type
REMARK                         _______ _______ _______ _____ _____    ______ ____
ROOT
ATOM      1  C   UNL     1       4.435   5.530  17.929  0.00  0.00    +0.000 C 
ENDROOT
BRANCH   1   2
ATOM      2  C   UNL     1       4.974   4.124  18.161  0.00  0.00    +0.000 C 
ATOM      3  O   UNL     1       5.572   3.771  19.167  0.00  0.00    +0.000 OA
BRANCH   2   4
ATOM      4  O   UNL     1       4.702   3.255  17.161  0.00  0.00    +0.000 OA
ATOM      5  H   UNL     1       4.333   3.652  16.351  0.00  0.00    +0.000 HD
ENDBRANCH   2   4
ENDBRANCH   1   2
BRANCH   1   6
ATOM      6  C   UNL     1       5.075   6.087  16.646  0.00  0.00    +0.000 C 
BRANCH   6   8
ATOM      7  O   UNL     1       7.138   7.293  16.974  0.00  0.00    +0.000 OA
ATOM      8  C   UNL     1       6.588   6.231  16.675  0.00  0.00    +0.000 C 
BRANCH   8   9
ATOM      9  C   UNL     1       7.389   5.006  16.326  0.00  0.00    +0.000 C 
BRANCH   9  10
ATOM     10  N   UNL     1       7.141   4.715  14.892  0.00  0.00    +0.000 N 
ATOM     11  O   UNL     1       6.378   3.777  14.627  0.00  0.00    +0.000 OA
ATOM     12  O   UNL     1       7.668   5.466  14.064  0.00  0.00    +0.000 OA
ENDBRANCH   9  10
ENDBRANCH   8   9
ENDBRANCH   6   8
ENDBRANCH   1   6
BRANCH   1  13
ATOM     13  C   UNL     1       2.895   5.560  17.958  0.00  0.00    +0.000 C 
BRANCH  13  14
ATOM     14  C   UNL     1       2.213   4.695  18.989  0.00  0.00    +0.000 A 
ATOM     15  C   UNL     1       1.371   3.645  18.595  0.00  0.00    +0.000 A 
ATOM     16  C   UNL     1       0.816   2.788  19.547  0.00  0.00    +0.000 A 
ATOM     17  C   UNL     1       1.085   2.979  20.900  0.00  0.00    +0.000 A 
ATOM     18  C   UNL     1       1.898   4.035  21.305  0.00  0.00    +0.000 A 
ATOM     19  C   UNL     1       2.463   4.888  20.355  0.00  0.00    +0.000 A 
ENDBRANCH  13  14
ENDBRANCH   1  13
TORSDOF 8
ENDMDL
