MODEL 1
REMARK VINA RESULT:      -6.8      0.000      0.000
REMARK  Name = 
REMARK  5 active torsions:
REMARK  status: ('A' for Active; 'I' for Inactive)
REMARK    1  A    between atoms: C_2  and  O_3
REMARK    2  A    between atoms: C_2  and  C_4
REMARK    3  A    between atoms: C_4  and  C_5
REMARK    4  A    between atoms: C_5  and  N_6
REMARK    5  A    between atoms: C_9  and  C_10
REMARK                            x       y       z     vdW  Elec       q    Type
REMARK                         _______ _______ _______ _____ _____    ______ ____
ROOT
ATOM      1  N   UNL     1       6.428   4.504  16.189  0.00  0.00    +0.000 N 
ATOM      2  C   UNL     1       7.149   4.547  17.336  0.00  0.00    +0.000 A 
ATOM      3  N   UNL     1       6.333   4.526  18.365  0.00  0.00    +0.000 NA
ATOM      4  C   UNL     1       5.084   4.452  17.790  0.00  0.00    +0.000 A 
ATOM      5  N   UNL     1       5.110   4.442  16.447  0.00  0.00    +0.000 NA
ENDROOT
BRANCH   4   6
ATOM      6  C   UNL     1       3.860   4.403  18.583  0.00  0.00    +0.000 A 
ATOM      7  C   UNL     1       3.654   5.315  19.630  0.00  0.00    +0.000 A 
ATOM      8  C   UNL     1       2.486   5.271  20.396  0.00  0.00    +0.000 A 
ATOM      9  C   UNL     1       1.514   4.309  20.126  0.00  0.00    +0.000 A 
ATOM     10  C   UNL     1       1.713   3.399  19.089  0.00  0.00    +0.000 A 
ATOM     11 CL   UNL     1       0.515   2.205  18.762  0.00  0.00    +0.000 Cl
ATOM     12  C   UNL     1       2.873   3.443  18.318  0.00  0.00    +0.000 A 
ENDBRANCH   4   6
BRANCH   1  13
ATOM     13  C   UNL     1       6.909   4.550  14.822  0.00  0.00    +0.000 C 
BRANCH  13  14
ATOM     14  C   UNL     1       5.876   3.994  13.842  0.00  0.00    +0.000 C 
BRANCH  14  16
ATOM     15  O   UNL     1       7.278   4.325  11.904  0.00  0.00    +0.000 OA
ATOM     16  C   UNL     1       6.510   3.613  12.531  0.00  0.00    +0.000 C 
BRANCH  16  17
ATOM     17  O   UNL     1       6.133   2.393  12.093  0.00  0.00    +0.000 OA
ATOM     18  H   UNL     1       5.718   2.373  11.210  0.00  0.00    +0.000 HD
ENDBRANCH  16  17
ENDBRANCH  14  16
ENDBRANCH  13  14
ENDBRANCH   1  13
TORSDOF 5
ENDMDL
MODEL 2
REMARK VINA RESULT:      -6.7      4.627      6.806
REMARK  Name = 
REMARK  5 active torsions:
REMARK  status: ('A' for Active; 'I' for Inactive)
REMARK    1  A    between atoms: C_2  and  O_3
REMARK    2  A    between atoms: C_2  and  C_4
REMARK    3  A    between atoms: C_4  and  C_5
REMARK    4  A    between atoms: C_5  and  N_6
REMARK    5  A    between atoms: C_9  and  C_10
REMARK                            x       y       z     vdW  Elec       q    Type
REMARK                         _______ _______ _______ _____ _____    ______ ____
ROOT
ATOM      1  N   UNL     1       2.114   3.215  18.688  0.00  0.00    +0.000 N 
ATOM      2  C   UNL     1       2.616   2.010  18.321  0.00  0.00    +0.000 A 
ATOM      3  N   UNL     1       3.748   2.188  17.679  0.00  0.00    +0.000 NA
ATOM      4  C   UNL     1       3.917   3.555  17.687  0.00  0.00    +0.000 A 
ATOM      5  N   UNL     1       2.922   4.217  18.299  0.00  0.00    +0.000 NA
ENDROOT
BRANCH   4   6
ATOM      6  C   UNL     1       5.071   4.203  17.072  0.00  0.00    +0.000 A 
ATOM      7  C   UNL     1       5.501   3.824  15.790  0.00  0.00    +0.000 A 
ATOM      8  C   UNL     1       6.608   4.438  15.198  0.00  0.00    +0.000 A 
ATOM      9  C   UNL     1       7.301   5.434  15.884  0.00  0.00    +0.000 A 
ATOM     10  C   UNL     1       6.880   5.814  17.157  0.00  0.00    +0.000 A 
ATOM     11 CL   UNL     1       7.742   7.039  18.008  0.00  0.00    +0.000 Cl
ATOM     12  C   UNL     1       5.774   5.210  17.751  0.00  0.00    +0.000 A 
ENDBRANCH   4   6
BRANCH   1  13
ATOM     13  C   UNL     1       0.869   3.498  19.376  0.00  0.00    +0.000 C 
BRANCH  13  14
ATOM     14  C   UNL     1       0.896   2.996  20.819  0.00  0.00    +0.000 C 
BRANCH  14  16
ATOM     15  O   UNL     1       2.935   2.555  22.035  0.00  0.00    +0.000 OA
ATOM     16  C   UNL     1       2.186   3.360  21.505  0.00  0.00    +0.000 C 
BRANCH  16  17
ATOM     17  O   UNL     1       2.439   4.686  21.493  0.00  0.00    +0.000 OA
ATOM     18  H   UNL     1       3.012   5.011  22.214  0.00  0.00    +0.000 HD
ENDBRANCH  16  17
ENDBRANCH  14  16
ENDBRANCH  13  14
ENDBRANCH   1  13
TORSDOF 5
ENDMDL
MODEL 3
REMARK VINA RESULT:      -6.6      1.463      1.933
REMARK  Name = 
REMARK  5 active torsions:
REMARK  status: ('A' for Active; 'I' for Inactive)
REMARK    1  A    between atoms: C_2  and  O_3
REMARK    2  A    between atoms: C_2  and  C_4
REMARK    3  A    between atoms: C_4  and  C_5
REMARK    4  A    between atoms: C_5  and  N_6
REMARK    5  A    between atoms: C_9  and  C_10
REMARK                            x       y       z     vdW  Elec       q    Type
REMARK                         _______ _______ _______ _____ _____    ______ ____
ROOT
ATOM      1  N   UNL     1       6.449   4.645  17.116  0.00  0.00    +0.000 N 
ATOM      2  C   UNL     1       6.770   4.917  18.405  0.00  0.00    +0.000 A 
ATOM      3  N   UNL     1       5.731   4.681  19.172  0.00  0.00    +0.000 NA
ATOM      4  C   UNL     1       4.769   4.237  18.292  0.00  0.00    +0.000 A 
ATOM      5  N   UNL     1       5.181   4.209  17.014  0.00  0.00    +0.000 NA
ENDROOT
BRANCH   4   6
ATOM      6  C   UNL     1       3.430   3.851  18.728  0.00  0.00    +0.000 A 
ATOM      7  C   UNL     1       2.343   3.937  17.844  0.00  0.00    +0.000 A 
ATOM      8  C   UNL     1       1.058   3.572  18.256  0.00  0.00    +0.000 A 
ATOM      9  C   UNL     1       0.847   3.123  19.559  0.00  0.00    +0.000 A 
ATOM     10  C   UNL     1       1.922   3.037  20.441  0.00  0.00    +0.000 A 
ATOM     11 CL   UNL     1       1.659   2.490  22.053  0.00  0.00    +0.000 Cl
ATOM     12  C   UNL     1       3.206   3.393  20.034  0.00  0.00    +0.000 A 
ENDBRANCH   4   6
BRANCH   1  13
ATOM     13  C   UNL     1       7.270   4.801  15.931  0.00  0.00    +0.000 C 
BRANCH  13  14
ATOM     14  C   UNL     1       6.561   4.282  14.681  0.00  0.00    +0.000 C 
BRANCH  14  16
ATOM     15  O   UNL     1       7.029   4.296  12.312  0.00  0.00    +0.000 OA
ATOM     16  C   UNL     1       7.250   4.746  13.425  0.00  0.00    +0.000 C 
BRANCH  16  17
ATOM     17  O   UNL     1       8.163   5.715  13.646  0.00  0.00    +0.000 OA
ATOM     18  H   UNL     1       8.094   6.168  14.509  0.00  0.00    +0.000 HD
ENDBRANCH  16  17
ENDBRANCH  14  16
ENDBRANCH  13  14
ENDBRANCH   1  13
TORSDOF 5
ENDMDL
MODEL 4
REMARK VINA RESULT:      -6.5      4.535      6.804
REMARK  Name = 
REMARK  5 active torsions:
REMARK  status: ('A' for Active; 'I' for Inactive)
REMARK    1  A    between atoms: C_2  and  O_3
REMARK    2  A    between atoms: C_2  and  C_4
REMARK    3  A    between atoms: C_4  and  C_5
REMARK    4  A    between atoms: C_5  and  N_6
REMARK    5  A    between atoms: C_9  and  C_10
REMARK                            x       y       z     vdW  Elec       q    Type
REMARK                         _______ _______ _______ _____ _____    ______ ____
ROOT
ATOM      1  N   UNL     1       2.185   4.461  18.798  0.00  0.00    +0.000 N 
ATOM      2  C   UNL     1       1.764   3.506  17.933  0.00  0.00    +0.000 A 
ATOM      3  N   UNL     1       2.659   3.355  16.983  0.00  0.00    +0.000 NA
ATOM      4  C   UNL     1       3.649   4.250  17.321  0.00  0.00    +0.000 A 
ATOM      5  N   UNL     1       3.383   4.952  18.435  0.00  0.00    +0.000 NA
ENDROOT
BRANCH   4   6
ATOM      6  C   UNL     1       4.861   4.413  16.524  0.00  0.00    +0.000 A 
ATOM      7  C   UNL     1       6.002   5.013  17.078  0.00  0.00    +0.000 A 
ATOM      8  C   UNL     1       7.163   5.176  16.318  0.00  0.00    +0.000 A 
ATOM      9  C   UNL     1       7.194   4.745  14.993  0.00  0.00    +0.000 A 
ATOM     10  C   UNL     1       6.063   4.149  14.436  0.00  0.00    +0.000 A 
ATOM     11 CL   UNL     1       6.099   3.624  12.796  0.00  0.00    +0.000 Cl
ATOM     12  C   UNL     1       4.904   3.978  15.191  0.00  0.00    +0.000 A 
ENDBRANCH   4   6
BRANCH   1  13
ATOM     13  C   UNL     1       1.500   4.982  19.966  0.00  0.00    +0.000 C 
BRANCH  13  14
ATOM     14  C   UNL     1       2.224   4.606  21.258  0.00  0.00    +0.000 C 
BRANCH  14  16
ATOM     15  O   UNL     1       2.931   2.409  21.965  0.00  0.00    +0.000 OA
ATOM     16  C   UNL     1       2.037   3.150  21.591  0.00  0.00    +0.000 C 
BRANCH  16  17
ATOM     17  O   UNL     1       0.767   2.724  21.420  0.00  0.00    +0.000 OA
ATOM     18  H   UNL     1       0.406   2.178  22.144  0.00  0.00    +0.000 HD
ENDBRANCH  16  17
ENDBRANCH  14  16
ENDBRANCH  13  14
ENDBRANCH   1  13
TORSDOF 5
ENDMDL
MODEL 5
REMARK VINA RESULT:      -6.5      1.401      1.747
REMARK  Name = 
REMARK  5 active torsions:
REMARK  status: ('A' for Active; 'I' for Inactive)
REMARK    1  A    between atoms: C_2  and  O_3
REMARK    2  A    between atoms: C_2  and  C_4
REMARK    3  A    between atoms: C_4  and  C_5
REMARK    4  A    between atoms: C_5  and  N_6
REMARK    5  A    between atoms: C_9  and  C_10
REMARK                            x       y       z     vdW  Elec       q    Type
REMARK                         _______ _______ _______ _____ _____    ______ ____
ROOT
ATOM      1  N   UNL     1       6.514   4.608  16.218  0.00  0.00    +0.000 N 
ATOM      2  C   UNL     1       7.303   4.622  17.320  0.00  0.00    +0.000 A 
ATOM      3  N   UNL     1       6.550   4.617  18.396  0.00  0.00    +0.000 NA
ATOM      4  C   UNL     1       5.268   4.583  17.897  0.00  0.00    +0.000 A 
ATOM      5  N   UNL     1       5.212   4.581  16.555  0.00  0.00    +0.000 NA
ENDROOT
BRANCH   4   6
ATOM      6  C   UNL     1       4.093   4.563  18.763  0.00  0.00    +0.000 A 
ATOM      7  C   UNL     1       3.509   3.344  19.142  0.00  0.00    +0.000 A 
ATOM      8  C   UNL     1       2.382   3.319  19.967  0.00  0.00    +0.000 A 
ATOM      9  C   UNL     1       1.823   4.513  20.418  0.00  0.00    +0.000 A 
ATOM     10  C   UNL     1       2.397   5.727  20.044  0.00  0.00    +0.000 A 
ATOM     11 CL   UNL     1       1.700   7.203  20.595  0.00  0.00    +0.000 Cl
ATOM     12  C   UNL     1       3.524   5.759  19.226  0.00  0.00    +0.000 A 
ENDBRANCH   4   6
BRANCH   1  13
ATOM     13  C   UNL     1       6.912   4.649  14.825  0.00  0.00    +0.000 C 
BRANCH  13  14
ATOM     14  C   UNL     1       5.893   3.950  13.926  0.00  0.00    +0.000 C 
BRANCH  14  16
ATOM     15  O   UNL     1       7.231   4.322  11.951  0.00  0.00    +0.000 OA
ATOM     16  C   UNL     1       6.489   3.594  12.590  0.00  0.00    +0.000 C 
BRANCH  16  17
ATOM     17  O   UNL     1       6.110   2.376  12.146  0.00  0.00    +0.000 OA
ATOM     18  H   UNL     1       6.835   1.738  12.001  0.00  0.00    +0.000 HD
ENDBRANCH  16  17
ENDBRANCH  14  16
ENDBRANCH  13  14
ENDBRANCH   1  13
TORSDOF 5
ENDMDL
MODEL 6
REMARK VINA RESULT:      -6.5      4.553      6.923
REMARK  Name = 
REMARK  5 active torsions:
REMARK  status: ('A' for Active; 'I' for Inactive)
REMARK    1  A    between atoms: C_2  and  O_3
REMARK    2  A    between atoms: C_2  and  C_4
REMARK    3  A    between atoms: C_4  and  C_5
REMARK    4  A    between atoms: C_5  and  N_6
REMARK    5  A    between atoms: C_9  and  C_10
REMARK                            x       y       z     vdW  Elec       q    Type
REMARK                         _______ _______ _______ _____ _____    ______ ____
ROOT
ATOM      1  N   UNL     1       1.865   4.154  18.952  0.00  0.00    +0.000 N 
ATOM      2  C   UNL     1       1.511   3.423  17.866  0.00  0.00    +0.000 A 
ATOM      3  N   UNL     1       2.468   3.487  16.968  0.00  0.00    +0.000 NA
ATOM      4  C   UNL     1       3.424   4.277  17.565  0.00  0.00    +0.000 A 
ATOM      5  N   UNL     1       3.079   4.708  18.790  0.00  0.00    +0.000 NA
ENDROOT
BRANCH   4   6
ATOM      6  C   UNL     1       4.683   4.611  16.907  0.00  0.00    +0.000 A 
ATOM      7  C   UNL     1       5.113   3.888  15.783  0.00  0.00    +0.000 A 
ATOM      8  C   UNL     1       6.319   4.200  15.150  0.00  0.00    +0.000 A 
ATOM      9  C   UNL     1       7.112   5.237  15.639  0.00  0.00    +0.000 A 
ATOM     10  C   UNL     1       6.693   5.959  16.756  0.00  0.00    +0.000 A 
ATOM     11 CL   UNL     1       7.678   7.234  17.365  0.00  0.00    +0.000 Cl
ATOM     12  C   UNL     1       5.488   5.655  17.387  0.00  0.00    +0.000 A 
ENDBRANCH   4   6
BRANCH   1  13
ATOM     13  C   UNL     1       1.100   4.398  20.159  0.00  0.00    +0.000 C 
BRANCH  13  14
ATOM     14  C   UNL     1       1.970   4.281  21.410  0.00  0.00    +0.000 C 
BRANCH  14  16
ATOM     15  O   UNL     1       1.526   2.083  22.307  0.00  0.00    +0.000 OA
ATOM     16  C   UNL     1       2.285   2.843  21.729  0.00  0.00    +0.000 C 
BRANCH  16  17
ATOM     17  O   UNL     1       3.516   2.467  21.321  0.00  0.00    +0.000 OA
ATOM     18  H   UNL     1       4.097   2.106  22.017  0.00  0.00    +0.000 HD
ENDBRANCH  16  17
ENDBRANCH  14  16
ENDBRANCH  13  14
ENDBRANCH   1  13
TORSDOF 5
ENDMDL
MODEL 7
REMARK VINA RESULT:      -6.5      4.585      6.752
REMARK  Name = 
REMARK  5 active torsions:
REMARK  status: ('A' for Active; 'I' for Inactive)
REMARK    1  A    between atoms: C_2  and  O_3
REMARK    2  A    between atoms: C_2  and  C_4
REMARK    3  A    between atoms: C_4  and  C_5
REMARK    4  A    between atoms: C_5  and  N_6
REMARK    5  A    between atoms: C_9  and  C_10
REMARK                            x       y       z     vdW  Elec       q    Type
REMARK                         _______ _______ _______ _____ _____    ______ ____
ROOT
ATOM      1  N   UNL     1       2.115   3.456  18.535  0.00  0.00    +0.000 N 
ATOM      2  C   UNL     1       1.799   4.754  18.303  0.00  0.00    +0.000 A 
ATOM      3  N   UNL     1       2.759   5.317  17.606  0.00  0.00    +0.000 NA
ATOM      4  C   UNL     1       3.664   4.298  17.413  0.00  0.00    +0.000 A 
ATOM      5  N   UNL     1       3.297   3.137  17.979  0.00  0.00    +0.000 NA
ENDROOT
BRANCH   4   6
ATOM      6  C   UNL     1       4.906   4.487  16.670  0.00  0.00    +0.000 A 
ATOM      7  C   UNL     1       6.006   5.119  17.271  0.00  0.00    +0.000 A 
ATOM      8  C   UNL     1       7.196   5.306  16.563  0.00  0.00    +0.000 A 
ATOM      9  C   UNL     1       7.298   4.868  15.244  0.00  0.00    +0.000 A 
ATOM     10  C   UNL     1       6.209   4.240  14.641  0.00  0.00    +0.000 A 
ATOM     11 CL   UNL     1       6.332   3.706  13.008  0.00  0.00    +0.000 Cl
ATOM     12  C   UNL     1       5.021   4.045  15.343  0.00  0.00    +0.000 A 
ENDBRANCH   4   6
BRANCH   1  13
ATOM     13  C   UNL     1       1.370   2.471  19.295  0.00  0.00    +0.000 C 
BRANCH  13  14
ATOM     14  C   UNL     1       0.982   3.000  20.675  0.00  0.00    +0.000 C 
BRANCH  14  16
ATOM     15  O   UNL     1       2.872   2.387  22.047  0.00  0.00    +0.000 OA
ATOM     16  C   UNL     1       2.196   3.260  21.527  0.00  0.00    +0.000 C 
BRANCH  16  17
ATOM     17  O   UNL     1       2.466   4.574  21.680  0.00  0.00    +0.000 OA
ATOM     18  H   UNL     1       1.696   5.171  21.619  0.00  0.00    +0.000 HD
ENDBRANCH  16  17
ENDBRANCH  14  16
ENDBRANCH  13  14
ENDBRANCH   1  13
TORSDOF 5
ENDMDL
MODEL 8
REMARK VINA RESULT:      -6.5      2.830      3.879
REMARK  Name = 
REMARK  5 active torsions:
REMARK  status: ('A' for Active; 'I' for Inactive)
REMARK    1  A    between atoms: C_2  and  O_3
REMARK    2  A    between atoms: C_2  and  C_4
REMARK    3  A    between atoms: C_4  and  C_5
REMARK    4  A    between atoms: C_5  and  N_6
REMARK    5  A    between atoms: C_9  and  C_10
REMARK                            x       y       z     vdW  Elec       q    Type
REMARK                         _______ _______ _______ _____ _____    ______ ____
ROOT
ATOM      1  N   UNL     1       6.528   4.500  17.723  0.00  0.00    +0.000 N 
ATOM      2  C   UNL     1       6.052   4.169  16.498  0.00  0.00    +0.000 A 
ATOM      3  N   UNL     1       4.806   3.768  16.608  0.00  0.00    +0.000 NA
ATOM      4  C   UNL     1       4.542   3.886  17.954  0.00  0.00    +0.000 A 
ATOM      5  N   UNL     1       5.588   4.331  18.670  0.00  0.00    +0.000 NA
ENDROOT
BRANCH   4   6
ATOM      6  C   UNL     1       3.246   3.542  18.529  0.00  0.00    +0.000 A 
ATOM      7  C   UNL     1       2.087   3.566  17.736  0.00  0.00    +0.000 A 
ATOM      8  C   UNL     1       0.842   3.242  18.281  0.00  0.00    +0.000 A 
ATOM      9  C   UNL     1       0.741   2.897  19.628  0.00  0.00    +0.000 A 
ATOM     10  C   UNL     1       1.887   2.872  20.421  0.00  0.00    +0.000 A 
ATOM     11 CL   UNL     1       1.761   2.453  22.087  0.00  0.00    +0.000 Cl
ATOM     12  C   UNL     1       3.133   3.188  19.881  0.00  0.00    +0.000 A 
ENDBRANCH   4   6
BRANCH   1  13
ATOM     13  C   UNL     1       7.859   4.950  18.081  0.00  0.00    +0.000 C 
BRANCH  13  14
ATOM     14  C   UNL     1       7.819   6.267  18.855  0.00  0.00    +0.000 C 
BRANCH  14  16
ATOM     15  O   UNL     1       8.286   8.572  18.309  0.00  0.00    +0.000 OA
ATOM     16  C   UNL     1       7.983   7.450  17.938  0.00  0.00    +0.000 C 
BRANCH  16  17
ATOM     17  O   UNL     1       7.744   7.155  16.642  0.00  0.00    +0.000 OA
ATOM     18  H   UNL     1       7.667   7.923  16.044  0.00  0.00    +0.000 HD
ENDBRANCH  16  17
ENDBRANCH  14  16
ENDBRANCH  13  14
ENDBRANCH   1  13
TORSDOF 5
ENDMDL
MODEL 9
REMARK VINA RESULT:      -6.5      4.706      6.870
REMARK  Name = 
REMARK  5 active torsions:
REMARK  status: ('A' for Active; 'I' for Inactive)
REMARK    1  A    between atoms: C_2  and  O_3
REMARK    2  A    between atoms: C_2  and  C_4
REMARK    3  A    between atoms: C_4  and  C_5
REMARK    4  A    between atoms: C_5  and  N_6
REMARK    5  A    between atoms: C_9  and  C_10
REMARK                            x       y       z     vdW  Elec       q    Type
REMARK                         _______ _______ _______ _____ _____    ______ ____
ROOT
ATOM      1  N   UNL     1       2.051   3.386  18.576  0.00  0.00    +0.000 N 
ATOM      2  C   UNL     1       1.560   4.585  18.178  0.00  0.00    +0.000 A 
ATOM      3  N   UNL     1       2.498   5.252  17.546  0.00  0.00    +0.000 NA
ATOM      4  C   UNL     1       3.576   4.396  17.564  0.00  0.00    +0.000 A 
ATOM      5  N   UNL     1       3.333   3.236  18.197  0.00  0.00    +0.000 NA
ENDROOT
BRANCH   4   6
ATOM      6  C   UNL     1       4.858   4.741  16.956  0.00  0.00    +0.000 A 
ATOM      7  C   UNL     1       5.356   3.996  15.876  0.00  0.00    +0.000 A 
ATOM      8  C   UNL     1       6.584   4.318  15.293  0.00  0.00    +0.000 A 
ATOM      9  C   UNL     1       7.330   5.387  15.787  0.00  0.00    +0.000 A 
ATOM     10  C   UNL     1       6.841   6.131  16.860  0.00  0.00    +0.000 A 
ATOM     11 CL   UNL     1       7.767   7.446  17.476  0.00  0.00    +0.000 Cl
ATOM     12  C   UNL     1       5.615   5.817  17.442  0.00  0.00    +0.000 A 
ENDBRANCH   4   6
BRANCH   1  13
ATOM     13  C   UNL     1       1.384   2.348  19.338  0.00  0.00    +0.000 C 
BRANCH  13  14
ATOM     14  C   UNL     1       0.991   2.838  20.732  0.00  0.00    +0.000 C 
BRANCH  14  16
ATOM     15  O   UNL     1       2.953   2.432  22.080  0.00  0.00    +0.000 OA
ATOM     16  C   UNL     1       2.201   3.226  21.540  0.00  0.00    +0.000 C 
BRANCH  16  17
ATOM     17  O   UNL     1       2.374   4.562  21.628  0.00  0.00    +0.000 OA
ATOM     18  H   UNL     1       2.236   5.059  20.798  0.00  0.00    +0.000 HD
ENDBRANCH  16  17
ENDBRANCH  14  16
ENDBRANCH  13  14
ENDBRANCH   1  13
TORSDOF 5
ENDMDL
