MODEL 1
REMARK VINA RESULT:      -7.1      0.000      0.000
REMARK  Name = 
REMARK  10 active torsions:
REMARK  status: ('A' for Active; 'I' for Inactive)
REMARK    1  A    between atoms: C_1  and  O_2
REMARK    2  A    between atoms: O_2  and  C_3
REMARK    3  A    between atoms: C_6  and  C_7
REMARK    4  A    between atoms: C_13  and  O_14
REMARK    5  A    between atoms: O_14  and  C_15
REMARK    6  A    between atoms: C_16  and  O_17
REMARK    7  A    between atoms: O_17  and  C_18
REMARK    8  A    between atoms: C_21  and  C_22
REMARK    9  A    between atoms: C_27  and  O_28
REMARK   10  A    between atoms: O_28  and  C_29
REMARK                            x       y       z     vdW  Elec       q    Type
REMARK                         _______ _______ _______ _____ _____    ______ ____
ROOT
ATOM      1  C   UNL     1      -0.201  12.438  18.715  0.00  0.00    +0.000 A 
ATOM      2  O   UNL     1      -1.252  13.243  19.357  0.00  0.00    +0.000 OA
ATOM      3  C   UNL     1      -2.355  12.568  19.862  0.00  0.00    +0.000 A 
ATOM      4  O   UNL     1      -2.961  12.889  20.872  0.00  0.00    +0.000 OA
ATOM      5  C   UNL     1      -2.865  11.581  18.899  0.00  0.00    +0.000 A 
ATOM      6  C   UNL     1      -4.222  11.677  18.554  0.00  0.00    +0.000 A 
ATOM      7  C   UNL     1      -4.631  11.504  17.233  0.00  0.00    +0.000 A 
ATOM      8  C   UNL     1      -3.637  11.240  16.273  0.00  0.00    +0.000 A 
ATOM      9  C   UNL     1      -2.281  10.966  16.714  0.00  0.00    +0.000 A 
ATOM     10  C   UNL     1      -1.887  11.041  18.082  0.00  0.00    +0.000 A 
ATOM     11  C   UNL     1      -0.477  11.113  18.690  0.00  0.00    +0.000 A 
ENDROOT
BRANCH  11  12
ATOM     12  C   UNL     1       0.050  10.440  20.019  0.00  0.00    +0.000 A 
ATOM     13  C   UNL     1      -0.464  10.803  21.266  0.00  0.00    +0.000 A 
ATOM     14  C   UNL     1      -0.174  10.023  22.400  0.00  0.00    +0.000 A 
ATOM     15  F   UNL     1      -0.698  10.366  23.588  0.00  0.00    +0.000 F 
ATOM     16  C   UNL     1       0.602   8.871  22.341  0.00  0.00    +0.000 A 
ATOM     17  C   UNL     1       1.166   8.485  21.136  0.00  0.00    +0.000 A 
ATOM     18  C   UNL     1       0.947   9.286  20.013  0.00  0.00    +0.000 A 
BRANCH  17  19
ATOM     19  O   UNL     1       1.848   7.301  21.204  0.00  0.00    +0.000 OA
ATOM     20  C   UNL     1       2.271   6.632  20.019  0.00  0.00    +0.000 C 
ENDBRANCH  17  19
ENDBRANCH  11  12
BRANCH   1  24
ATOM     21  C   UNL     1       3.647  14.392  18.963  0.00  0.00    +0.000 A 
ATOM     22  C   UNL     1       2.660  14.712  19.891  0.00  0.00    +0.000 A 
ATOM     23  C   UNL     1       1.445  14.015  19.904  0.00  0.00    +0.000 A 
ATOM     24  C   UNL     1       1.155  13.048  18.921  0.00  0.00    +0.000 A 
ATOM     25  C   UNL     1       2.183  12.704  18.033  0.00  0.00    +0.000 A 
ATOM     26  C   UNL     1       3.414  13.368  18.050  0.00  0.00    +0.000 A 
BRANCH  21  28
ATOM     27  C   UNL     1       5.745  14.898  18.007  0.00  0.00    +0.000 C 
ATOM     28  O   UNL     1       4.771  15.168  19.009  0.00  0.00    +0.000 OA
ENDBRANCH  21  28
ENDBRANCH   1  24
BRANCH   7  29
ATOM     29  O   UNL     1      -5.937  11.649  16.846  0.00  0.00    +0.000 OA
ATOM     30  C   UNL     1      -6.601  12.872  17.166  0.00  0.00    +0.000 C 
ENDBRANCH   7  29
BRANCH   8  31
ATOM     31  O   UNL     1      -3.799  11.298  14.901  0.00  0.00    +0.000 OA
ATOM     32  C   UNL     1      -3.507  10.167  14.061  0.00  0.00    +0.000 C 
ENDBRANCH   8  31
TORSDOF 6
ENDMDL
MODEL 2
REMARK VINA RESULT:      -7.0      2.439      7.115
REMARK  Name = 
REMARK  10 active torsions:
REMARK  status: ('A' for Active; 'I' for Inactive)
REMARK    1  A    between atoms: C_1  and  O_2
REMARK    2  A    between atoms: O_2  and  C_3
REMARK    3  A    between atoms: C_6  and  C_7
REMARK    4  A    between atoms: C_13  and  O_14
REMARK    5  A    between atoms: O_14  and  C_15
REMARK    6  A    between atoms: C_16  and  O_17
REMARK    7  A    between atoms: O_17  and  C_18
REMARK    8  A    between atoms: C_21  and  C_22
REMARK    9  A    between atoms: C_27  and  O_28
REMARK   10  A    between atoms: O_28  and  C_29
REMARK                            x       y       z     vdW  Elec       q    Type
REMARK                         _______ _______ _______ _____ _____    ______ ____
ROOT
ATOM      1  C   UNL     1      -0.287   9.652  18.795  0.00  0.00    +0.000 A 
ATOM      2  O   UNL     1      -0.574   9.046  20.105  0.00  0.00    +0.000 OA
ATOM      3  C   UNL     1       0.492   8.877  20.978  0.00  0.00    +0.000 A 
ATOM      4  O   UNL     1       0.418   8.987  22.191  0.00  0.00    +0.000 OA
ATOM      5  C   UNL     1       1.656   8.295  20.294  0.00  0.00    +0.000 A 
ATOM      6  C   UNL     1       2.195   7.123  20.850  0.00  0.00    +0.000 A 
ATOM      7  C   UNL     1       2.608   6.076  20.029  0.00  0.00    +0.000 A 
ATOM      8  C   UNL     1       2.456   6.237  18.640  0.00  0.00    +0.000 A 
ATOM      9  C   UNL     1       2.071   7.536  18.116  0.00  0.00    +0.000 A 
ATOM     10  C   UNL     1       1.749   8.640  18.958  0.00  0.00    +0.000 A 
ATOM     11  C   UNL     1       1.022   9.950  18.615  0.00  0.00    +0.000 A 
ENDROOT
BRANCH  11  12
ATOM     12  C   UNL     1       1.312  11.402  19.166  0.00  0.00    +0.000 A 
ATOM     13  C   UNL     1       1.740  12.426  18.317  0.00  0.00    +0.000 A 
ATOM     14  C   UNL     1       1.744  13.758  18.768  0.00  0.00    +0.000 A 
ATOM     15  F   UNL     1       2.130  14.736  17.933  0.00  0.00    +0.000 F 
ATOM     16  C   UNL     1       1.319  14.122  20.041  0.00  0.00    +0.000 A 
ATOM     17  C   UNL     1       0.918  13.143  20.935  0.00  0.00    +0.000 A 
ATOM     18  C   UNL     1       0.973  11.808  20.529  0.00  0.00    +0.000 A 
BRANCH  17  19
ATOM     19  O   UNL     1       0.461  13.642  22.125  0.00  0.00    +0.000 OA
ATOM     20  C   UNL     1      -0.879  13.405  22.550  0.00  0.00    +0.000 C 
ENDBRANCH  17  19
ENDBRANCH  11  12
BRANCH   1  24
ATOM     21  C   UNL     1      -3.838  11.656  17.364  0.00  0.00    +0.000 A 
ATOM     22  C   UNL     1      -3.402  11.891  18.665  0.00  0.00    +0.000 A 
ATOM     23  C   UNL     1      -2.195  11.344  19.118  0.00  0.00    +0.000 A 
ATOM     24  C   UNL     1      -1.448  10.468  18.307  0.00  0.00    +0.000 A 
ATOM     25  C   UNL     1      -1.877  10.291  16.984  0.00  0.00    +0.000 A 
ATOM     26  C   UNL     1      -3.059  10.875  16.516  0.00  0.00    +0.000 A 
BRANCH  21  28
ATOM     27  C   UNL     1      -6.165  11.674  17.761  0.00  0.00    +0.000 C 
ATOM     28  O   UNL     1      -5.052  12.197  17.044  0.00  0.00    +0.000 OA
ENDBRANCH  21  28
ENDBRANCH   1  24
BRANCH   7  29
ATOM     29  O   UNL     1       3.083   4.894  20.534  0.00  0.00    +0.000 OA
ATOM     30  C   UNL     1       2.169   4.042  21.224  0.00  0.00    +0.000 C 
ENDBRANCH   7  29
BRANCH   8  31
ATOM     31  O   UNL     1       2.555   5.236  17.691  0.00  0.00    +0.000 OA
ATOM     32  C   UNL     1       1.525   4.244  17.535  0.00  0.00    +0.000 C 
ENDBRANCH   8  31
TORSDOF 6
ENDMDL
MODEL 3
REMARK VINA RESULT:      -7.0      1.902      7.085
REMARK  Name = 
REMARK  10 active torsions:
REMARK  status: ('A' for Active; 'I' for Inactive)
REMARK    1  A    between atoms: C_1  and  O_2
REMARK    2  A    between atoms: O_2  and  C_3
REMARK    3  A    between atoms: C_6  and  C_7
REMARK    4  A    between atoms: C_13  and  O_14
REMARK    5  A    between atoms: O_14  and  C_15
REMARK    6  A    between atoms: C_16  and  O_17
REMARK    7  A    between atoms: O_17  and  C_18
REMARK    8  A    between atoms: C_21  and  C_22
REMARK    9  A    between atoms: C_27  and  O_28
REMARK   10  A    between atoms: O_28  and  C_29
REMARK                            x       y       z     vdW  Elec       q    Type
REMARK                         _______ _______ _______ _____ _____    ______ ____
ROOT
ATOM      1  C   UNL     1      -0.305   9.678  18.599  0.00  0.00    +0.000 A 
ATOM      2  O   UNL     1      -0.552   9.148  19.949  0.00  0.00    +0.000 OA
ATOM      3  C   UNL     1       0.540   9.022  20.797  0.00  0.00    +0.000 A 
ATOM      4  O   UNL     1       0.505   9.200  22.003  0.00  0.00    +0.000 OA
ATOM      5  C   UNL     1       1.680   8.397  20.110  0.00  0.00    +0.000 A 
ATOM      6  C   UNL     1       2.233   7.256  20.713  0.00  0.00    +0.000 A 
ATOM      7  C   UNL     1       2.617   6.162  19.940  0.00  0.00    +0.000 A 
ATOM      8  C   UNL     1       2.421   6.247  18.550  0.00  0.00    +0.000 A 
ATOM      9  C   UNL     1       2.023   7.515  17.966  0.00  0.00    +0.000 A 
ATOM     10  C   UNL     1       1.732   8.667  18.754  0.00  0.00    +0.000 A 
ATOM     11  C   UNL     1       0.998   9.959  18.361  0.00  0.00    +0.000 A 
ENDROOT
BRANCH  11  12
ATOM     12  C   UNL     1       1.309  11.438  18.821  0.00  0.00    +0.000 A 
ATOM     13  C   UNL     1       0.845  11.929  20.043  0.00  0.00    +0.000 A 
ATOM     14  C   UNL     1       1.342  13.145  20.547  0.00  0.00    +0.000 A 
ATOM     15  F   UNL     1       0.909  13.591  21.738  0.00  0.00    +0.000 F 
ATOM     16  C   UNL     1       2.306  13.895  19.885  0.00  0.00    +0.000 A 
ATOM     17  C   UNL     1       2.776  13.472  18.651  0.00  0.00    +0.000 A 
ATOM     18  C   UNL     1       2.243  12.304  18.103  0.00  0.00    +0.000 A 
BRANCH  17  19
ATOM     19  O   UNL     1       3.769  14.264  18.143  0.00  0.00    +0.000 OA
ATOM     20  C   UNL     1       3.468  15.530  17.561  0.00  0.00    +0.000 C 
ENDBRANCH  17  19
ENDBRANCH  11  12
BRANCH   1  24
ATOM     21  C   UNL     1      -3.879  11.609  17.123  0.00  0.00    +0.000 A 
ATOM     22  C   UNL     1      -3.495  11.807  18.447  0.00  0.00    +0.000 A 
ATOM     23  C   UNL     1      -2.285  11.287  18.920  0.00  0.00    +0.000 A 
ATOM     24  C   UNL     1      -1.479  10.470  18.102  0.00  0.00    +0.000 A 
ATOM     25  C   UNL     1      -1.856  10.331  16.759  0.00  0.00    +0.000 A 
ATOM     26  C   UNL     1      -3.043  10.891  16.274  0.00  0.00    +0.000 A 
BRANCH  21  28
ATOM     27  C   UNL     1      -6.075  12.124  17.820  0.00  0.00    +0.000 C 
ATOM     28  O   UNL     1      -5.100  12.119  16.782  0.00  0.00    +0.000 OA
ENDBRANCH  21  28
ENDBRANCH   1  24
BRANCH   7  29
ATOM     29  O   UNL     1       3.104   5.008  20.495  0.00  0.00    +0.000 OA
ATOM     30  C   UNL     1       2.197   4.174  21.217  0.00  0.00    +0.000 C 
ENDBRANCH   7  29
BRANCH   8  31
ATOM     31  O   UNL     1       2.487   5.194  17.656  0.00  0.00    +0.000 OA
ATOM     32  C   UNL     1       1.489   4.158  17.639  0.00  0.00    +0.000 C 
ENDBRANCH   8  31
TORSDOF 6
ENDMDL
MODEL 4
REMARK VINA RESULT:      -7.0      2.243      6.367
REMARK  Name = 
REMARK  10 active torsions:
REMARK  status: ('A' for Active; 'I' for Inactive)
REMARK    1  A    between atoms: C_1  and  O_2
REMARK    2  A    between atoms: O_2  and  C_3
REMARK    3  A    between atoms: C_6  and  C_7
REMARK    4  A    between atoms: C_13  and  O_14
REMARK    5  A    between atoms: O_14  and  C_15
REMARK    6  A    between atoms: C_16  and  O_17
REMARK    7  A    between atoms: O_17  and  C_18
REMARK    8  A    between atoms: C_21  and  C_22
REMARK    9  A    between atoms: C_27  and  O_28
REMARK   10  A    between atoms: O_28  and  C_29
REMARK                            x       y       z     vdW  Elec       q    Type
REMARK                         _______ _______ _______ _____ _____    ______ ____
ROOT
ATOM      1  C   UNL     1       0.942  11.426  19.579  0.00  0.00    +0.000 A 
ATOM      2  O   UNL     1       0.726  11.740  21.001  0.00  0.00    +0.000 OA
ATOM      3  C   UNL     1      -0.185  12.743  21.303  0.00  0.00    +0.000 A 
ATOM      4  O   UNL     1      -0.919  12.742  22.278  0.00  0.00    +0.000 OA
ATOM      5  C   UNL     1       0.024  13.927  20.456  0.00  0.00    +0.000 A 
ATOM      6  C   UNL     1       0.210  15.152  21.116  0.00  0.00    +0.000 A 
ATOM      7  C   UNL     1       1.168  16.059  20.668  0.00  0.00    +0.000 A 
ATOM      8  C   UNL     1       1.936  15.695  19.547  0.00  0.00    +0.000 A 
ATOM      9  C   UNL     1       1.573  14.507  18.796  0.00  0.00    +0.000 A 
ATOM     10  C   UNL     1       0.520  13.634  19.198  0.00  0.00    +0.000 A 
ATOM     11  C   UNL     1       0.213  12.199  18.741  0.00  0.00    +0.000 A 
ENDROOT
BRANCH  11  12
ATOM     12  C   UNL     1      -1.199  11.530  18.504  0.00  0.00    +0.000 A 
ATOM     13  C   UNL     1      -2.326  11.945  19.219  0.00  0.00    +0.000 A 
ATOM     14  C   UNL     1      -3.607  11.525  18.818  0.00  0.00    +0.000 A 
ATOM     15  F   UNL     1      -4.684  11.955  19.496  0.00  0.00    +0.000 F 
ATOM     16  C   UNL     1      -3.819  10.712  17.711  0.00  0.00    +0.000 A 
ATOM     17  C   UNL     1      -2.735  10.243  16.987  0.00  0.00    +0.000 A 
ATOM     18  C   UNL     1      -1.451  10.592  17.412  0.00  0.00    +0.000 A 
BRANCH  17  19
ATOM     19  O   UNL     1      -3.087   9.511  15.886  0.00  0.00    +0.000 OA
ATOM     20  C   UNL     1      -3.127  10.111  14.593  0.00  0.00    +0.000 C 
ENDBRANCH  17  19
ENDBRANCH  11  12
BRANCH   1  24
ATOM     21  C   UNL     1       2.231   7.341  19.006  0.00  0.00    +0.000 A 
ATOM     22  C   UNL     1       1.647   7.707  20.216  0.00  0.00    +0.000 A 
ATOM     23  C   UNL     1       1.119   8.992  20.389  0.00  0.00    +0.000 A 
ATOM     24  C   UNL     1       1.255   9.972  19.384  0.00  0.00    +0.000 A 
ATOM     25  C   UNL     1       1.795   9.565  18.157  0.00  0.00    +0.000 A 
ATOM     26  C   UNL     1       2.280   8.266  17.968  0.00  0.00    +0.000 A 
BRANCH  21  28
ATOM     27  C   UNL     1       3.809   5.883  18.027  0.00  0.00    +0.000 C 
ATOM     28  O   UNL     1       2.757   6.080  18.965  0.00  0.00    +0.000 OA
ENDBRANCH  21  28
ENDBRANCH   1  24
BRANCH   7  29
ATOM     29  O   UNL     1       1.422  17.237  21.320  0.00  0.00    +0.000 OA
ATOM     30  C   UNL     1       0.892  18.441  20.765  0.00  0.00    +0.000 C 
ENDBRANCH   7  29
BRANCH   8  31
ATOM     31  O   UNL     1       3.090  16.322  19.117  0.00  0.00    +0.000 OA
ATOM     32  C   UNL     1       3.263  16.719  17.745  0.00  0.00    +0.000 C 
ENDBRANCH   8  31
TORSDOF 6
ENDMDL
MODEL 5
REMARK VINA RESULT:      -6.8      2.544      6.610
REMARK  Name = 
REMARK  10 active torsions:
REMARK  status: ('A' for Active; 'I' for Inactive)
REMARK    1  A    between atoms: C_1  and  O_2
REMARK    2  A    between atoms: O_2  and  C_3
REMARK    3  A    between atoms: C_6  and  C_7
REMARK    4  A    between atoms: C_13  and  O_14
REMARK    5  A    between atoms: O_14  and  C_15
REMARK    6  A    between atoms: C_16  and  O_17
REMARK    7  A    between atoms: O_17  and  C_18
REMARK    8  A    between atoms: C_21  and  C_22
REMARK    9  A    between atoms: C_27  and  O_28
REMARK   10  A    between atoms: O_28  and  C_29
REMARK                            x       y       z     vdW  Elec       q    Type
REMARK                         _______ _______ _______ _____ _____    ______ ____
ROOT
ATOM      1  C   UNL     1       0.875  11.176  20.128  0.00  0.00    +0.000 A 
ATOM      2  O   UNL     1       0.521  11.094  21.554  0.00  0.00    +0.000 OA
ATOM      3  C   UNL     1      -0.462  11.956  22.019  0.00  0.00    +0.000 A 
ATOM      4  O   UNL     1      -1.277  11.676  22.884  0.00  0.00    +0.000 OA
ATOM      5  C   UNL     1      -0.242  13.328  21.538  0.00  0.00    +0.000 A 
ATOM      6  C   UNL     1      -0.176  14.337  22.513  0.00  0.00    +0.000 A 
ATOM      7  C   UNL     1       0.772  15.355  22.414  0.00  0.00    +0.000 A 
ATOM      8  C   UNL     1       1.650  15.323  21.317  0.00  0.00    +0.000 A 
ATOM      9  C   UNL     1       1.414  14.369  20.247  0.00  0.00    +0.000 A 
ATOM     10  C   UNL     1       0.376  13.394  20.302  0.00  0.00    +0.000 A 
ATOM     11  C   UNL     1       0.182  12.126  19.455  0.00  0.00    +0.000 A 
ENDROOT
BRANCH  11  12
ATOM     12  C   UNL     1      -1.169  11.508  18.915  0.00  0.00    +0.000 A 
ATOM     13  C   UNL     1      -2.406  11.951  19.388  0.00  0.00    +0.000 A 
ATOM     14  C   UNL     1      -3.587  11.580  18.720  0.00  0.00    +0.000 A 
ATOM     15  F   UNL     1      -4.769  12.036  19.168  0.00  0.00    +0.000 F 
ATOM     16  C   UNL     1      -3.588  10.790  17.577  0.00  0.00    +0.000 A 
ATOM     17  C   UNL     1      -2.391  10.295  17.085  0.00  0.00    +0.000 A 
ATOM     18  C   UNL     1      -1.215  10.595  17.775  0.00  0.00    +0.000 A 
BRANCH  17  19
ATOM     19  O   UNL     1      -2.527   9.592  15.919  0.00  0.00    +0.000 OA
ATOM     20  C   UNL     1      -3.153  10.179  14.781  0.00  0.00    +0.000 C 
ENDBRANCH  17  19
ENDBRANCH  11  12
BRANCH   1  24
ATOM     21  C   UNL     1       2.408   7.450  18.565  0.00  0.00    +0.000 A 
ATOM     22  C   UNL     1       1.887   7.483  19.856  0.00  0.00    +0.000 A 
ATOM     23  C   UNL     1       1.282   8.647  20.346  0.00  0.00    +0.000 A 
ATOM     24  C   UNL     1       1.276   9.835  19.588  0.00  0.00    +0.000 A 
ATOM     25  C   UNL     1       1.756   9.762  18.273  0.00  0.00    +0.000 A 
ATOM     26  C   UNL     1       2.318   8.585  17.766  0.00  0.00    +0.000 A 
BRANCH  21  28
ATOM     27  C   UNL     1       3.130   5.305  19.240  0.00  0.00    +0.000 C 
ATOM     28  O   UNL     1       3.019   6.280  18.208  0.00  0.00    +0.000 OA
ENDBRANCH  21  28
ENDBRANCH   1  24
BRANCH   7  29
ATOM     29  O   UNL     1       0.908  16.322  23.374  0.00  0.00    +0.000 OA
ATOM     30  C   UNL     1      -0.161  17.254  23.548  0.00  0.00    +0.000 C 
ENDBRANCH   7  29
BRANCH   8  31
ATOM     31  O   UNL     1       2.805  16.071  21.180  0.00  0.00    +0.000 OA
ATOM     32  C   UNL     1       4.056  15.632  21.736  0.00  0.00    +0.000 C 
ENDBRANCH   8  31
TORSDOF 6
ENDMDL
MODEL 6
REMARK VINA RESULT:      -6.7      2.266      7.204
REMARK  Name = 
REMARK  10 active torsions:
REMARK  status: ('A' for Active; 'I' for Inactive)
REMARK    1  A    between atoms: C_1  and  O_2
REMARK    2  A    between atoms: O_2  and  C_3
REMARK    3  A    between atoms: C_6  and  C_7
REMARK    4  A    between atoms: C_13  and  O_14
REMARK    5  A    between atoms: O_14  and  C_15
REMARK    6  A    between atoms: C_16  and  O_17
REMARK    7  A    between atoms: O_17  and  C_18
REMARK    8  A    between atoms: C_21  and  C_22
REMARK    9  A    between atoms: C_27  and  O_28
REMARK   10  A    between atoms: O_28  and  C_29
REMARK                            x       y       z     vdW  Elec       q    Type
REMARK                         _______ _______ _______ _____ _____    ______ ____
ROOT
ATOM      1  C   UNL     1      -0.811  10.153  18.679  0.00  0.00    +0.000 A 
ATOM      2  O   UNL     1      -1.090   9.449  19.940  0.00  0.00    +0.000 OA
ATOM      3  C   UNL     1      -0.062   9.368  20.869  0.00  0.00    +0.000 A 
ATOM      4  O   UNL     1      -0.216   9.405  22.079  0.00  0.00    +0.000 OA
ATOM      5  C   UNL     1       1.204   8.973  20.233  0.00  0.00    +0.000 A 
ATOM      6  C   UNL     1       1.857   7.851  20.768  0.00  0.00    +0.000 A 
ATOM      7  C   UNL     1       2.446   6.908  19.928  0.00  0.00    +0.000 A 
ATOM      8  C   UNL     1       2.351   7.121  18.541  0.00  0.00    +0.000 A 
ATOM      9  C   UNL     1       1.832   8.386  18.053  0.00  0.00    +0.000 A 
ATOM     10  C   UNL     1       1.326   9.397  18.922  0.00  0.00    +0.000 A 
ATOM     11  C   UNL     1       0.457  10.621  18.593  0.00  0.00    +0.000 A 
ENDROOT
BRANCH  11  12
ATOM     12  C   UNL     1       0.527  12.068  19.225  0.00  0.00    +0.000 A 
ATOM     13  C   UNL     1       1.404  12.357  20.273  0.00  0.00    +0.000 A 
ATOM     14  C   UNL     1       1.637  13.693  20.645  0.00  0.00    +0.000 A 
ATOM     15  F   UNL     1       2.506  13.960  21.635  0.00  0.00    +0.000 F 
ATOM     16  C   UNL     1       1.039  14.769  20.000  0.00  0.00    +0.000 A 
ATOM     17  C   UNL     1       0.134  14.537  18.977  0.00  0.00    +0.000 A 
ATOM     18  C   UNL     1      -0.163  13.215  18.640  0.00  0.00    +0.000 A 
BRANCH  17  19
ATOM     19  O   UNL     1      -0.327  15.681  18.384  0.00  0.00    +0.000 OA
ATOM     20  C   UNL     1       0.452  16.875  18.396  0.00  0.00    +0.000 C 
ENDBRANCH  17  19
ENDBRANCH  11  12
BRANCH   1  24
ATOM     21  C   UNL     1      -4.494  11.768  17.097  0.00  0.00    +0.000 A 
ATOM     22  C   UNL     1      -4.211  11.921  18.451  0.00  0.00    +0.000 A 
ATOM     23  C   UNL     1      -2.977  11.508  18.968  0.00  0.00    +0.000 A 
ATOM     24  C   UNL     1      -2.038  10.841  18.156  0.00  0.00    +0.000 A 
ATOM     25  C   UNL     1      -2.322  10.748  16.787  0.00  0.00    +0.000 A 
ATOM     26  C   UNL     1      -3.536  11.203  16.261  0.00  0.00    +0.000 A 
BRANCH  21  28
ATOM     27  C   UNL     1      -6.728  12.182  17.741  0.00  0.00    +0.000 C 
ATOM     28  O   UNL     1      -5.746  12.160  16.710  0.00  0.00    +0.000 OA
ENDBRANCH  21  28
ENDBRANCH   1  24
BRANCH   7  29
ATOM     29  O   UNL     1       3.039   5.770  20.409  0.00  0.00    +0.000 OA
ATOM     30  C   UNL     1       2.196   4.688  20.806  0.00  0.00    +0.000 C 
ENDBRANCH   7  29
BRANCH   8  31
ATOM     31  O   UNL     1       2.630   6.191  17.557  0.00  0.00    +0.000 OA
ATOM     32  C   UNL     1       3.973   5.742  17.306  0.00  0.00    +0.000 C 
ENDBRANCH   8  31
TORSDOF 6
ENDMDL
MODEL 7
REMARK VINA RESULT:      -6.6      2.419      3.329
REMARK  Name = 
REMARK  10 active torsions:
REMARK  status: ('A' for Active; 'I' for Inactive)
REMARK    1  A    between atoms: C_1  and  O_2
REMARK    2  A    between atoms: O_2  and  C_3
REMARK    3  A    between atoms: C_6  and  C_7
REMARK    4  A    between atoms: C_13  and  O_14
REMARK    5  A    between atoms: O_14  and  C_15
REMARK    6  A    between atoms: C_16  and  O_17
REMARK    7  A    between atoms: O_17  and  C_18
REMARK    8  A    between atoms: C_21  and  C_22
REMARK    9  A    between atoms: C_27  and  O_28
REMARK   10  A    between atoms: O_28  and  C_29
REMARK                            x       y       z     vdW  Elec       q    Type
REMARK                         _______ _______ _______ _____ _____    ______ ____
ROOT
ATOM      1  C   UNL     1      -1.015  13.350  20.419  0.00  0.00    +0.000 A 
ATOM      2  O   UNL     1      -1.224  14.074  21.683  0.00  0.00    +0.000 OA
ATOM      3  C   UNL     1      -1.926  13.420  22.686  0.00  0.00    +0.000 A 
ATOM      4  O   UNL     1      -1.699  13.535  23.880  0.00  0.00    +0.000 OA
ATOM      5  C   UNL     1      -3.140  12.779  22.158  0.00  0.00    +0.000 A 
ATOM      6  C   UNL     1      -4.353  13.113  22.782  0.00  0.00    +0.000 A 
ATOM      7  C   UNL     1      -5.501  13.333  22.023  0.00  0.00    +0.000 A 
ATOM      8  C   UNL     1      -5.391  13.216  20.626  0.00  0.00    +0.000 A 
ATOM      9  C   UNL     1      -4.166  12.687  20.054  0.00  0.00    +0.000 A 
ATOM     10  C   UNL     1      -3.025  12.362  20.845  0.00  0.00    +0.000 A 
ATOM     11  C   UNL     1      -1.572  12.116  20.408  0.00  0.00    +0.000 A 
ENDROOT
BRANCH  11  12
ATOM     12  C   UNL     1      -0.541  11.068  20.988  0.00  0.00    +0.000 A 
ATOM     13  C   UNL     1      -0.556  10.711  22.339  0.00  0.00    +0.000 A 
ATOM     14  C   UNL     1       0.187   9.602  22.780  0.00  0.00    +0.000 A 
ATOM     15  F   UNL     1       0.142   9.251  24.076  0.00  0.00    +0.000 F 
ATOM     16  C   UNL     1       0.941   8.811  21.921  0.00  0.00    +0.000 A 
ATOM     17  C   UNL     1       1.018   9.141  20.577  0.00  0.00    +0.000 A 
ATOM     18  C   UNL     1       0.344  10.280  20.133  0.00  0.00    +0.000 A 
BRANCH  17  19
ATOM     19  O   UNL     1       1.735   8.243  19.833  0.00  0.00    +0.000 OA
ATOM     20  C   UNL     1       2.001   8.485  18.453  0.00  0.00    +0.000 C 
ENDBRANCH  17  19
ENDBRANCH  11  12
BRANCH   1  24
ATOM     21  C   UNL     1       2.918  14.170  18.826  0.00  0.00    +0.000 A 
ATOM     22  C   UNL     1       1.958  13.588  18.003  0.00  0.00    +0.000 A 
ATOM     23  C   UNL     1       0.645  13.414  18.457  0.00  0.00    +0.000 A 
ATOM     24  C   UNL     1       0.290  13.730  19.784  0.00  0.00    +0.000 A 
ATOM     25  C   UNL     1       1.257  14.365  20.575  0.00  0.00    +0.000 A 
ATOM     26  C   UNL     1       2.557  14.581  20.105  0.00  0.00    +0.000 A 
BRANCH  21  28
ATOM     27  C   UNL     1       5.099  15.051  19.024  0.00  0.00    +0.000 C 
ATOM     28  O   UNL     1       4.177  14.245  18.299  0.00  0.00    +0.000 OA
ENDBRANCH  21  28
ENDBRANCH   1  24
BRANCH   7  29
ATOM     29  O   UNL     1      -6.688  13.719  22.588  0.00  0.00    +0.000 OA
ATOM     30  C   UNL     1      -7.241  12.899  23.618  0.00  0.00    +0.000 C 
ENDBRANCH   7  29
BRANCH   8  31
ATOM     31  O   UNL     1      -6.325  13.644  19.700  0.00  0.00    +0.000 OA
ATOM     32  C   UNL     1      -7.126  12.711  18.954  0.00  0.00    +0.000 C 
ENDBRANCH   8  31
TORSDOF 6
ENDMDL
MODEL 8
REMARK VINA RESULT:      -6.5      2.513      6.276
REMARK  Name = 
REMARK  10 active torsions:
REMARK  status: ('A' for Active; 'I' for Inactive)
REMARK    1  A    between atoms: C_1  and  O_2
REMARK    2  A    between atoms: O_2  and  C_3
REMARK    3  A    between atoms: C_6  and  C_7
REMARK    4  A    between atoms: C_13  and  O_14
REMARK    5  A    between atoms: O_14  and  C_15
REMARK    6  A    between atoms: C_16  and  O_17
REMARK    7  A    between atoms: O_17  and  C_18
REMARK    8  A    between atoms: C_21  and  C_22
REMARK    9  A    between atoms: C_27  and  O_28
REMARK   10  A    between atoms: O_28  and  C_29
REMARK                            x       y       z     vdW  Elec       q    Type
REMARK                         _______ _______ _______ _____ _____    ______ ____
ROOT
ATOM      1  C   UNL     1       0.515  12.115  19.509  0.00  0.00    +0.000 A 
ATOM      2  O   UNL     1       0.189  12.325  20.929  0.00  0.00    +0.000 OA
ATOM      3  C   UNL     1      -0.920  13.106  21.222  0.00  0.00    +0.000 A 
ATOM      4  O   UNL     1      -1.671  12.917  22.165  0.00  0.00    +0.000 OA
ATOM      5  C   UNL     1      -0.933  14.338  20.418  0.00  0.00    +0.000 A 
ATOM      6  C   UNL     1      -1.029  15.550  21.122  0.00  0.00    +0.000 A 
ATOM      7  C   UNL     1      -0.264  16.651  20.740  0.00  0.00    +0.000 A 
ATOM      8  C   UNL     1       0.600  16.495  19.642  0.00  0.00    +0.000 A 
ATOM      9  C   UNL     1       0.518  15.286  18.842  0.00  0.00    +0.000 A 
ATOM     10  C   UNL     1      -0.344  14.200  19.175  0.00  0.00    +0.000 A 
ATOM     11  C   UNL     1      -0.330  12.751  18.664  0.00  0.00    +0.000 A 
ENDROOT
BRANCH  11  12
ATOM     12  C   UNL     1      -1.563  11.814  18.349  0.00  0.00    +0.000 A 
ATOM     13  C   UNL     1      -2.786  11.985  19.002  0.00  0.00    +0.000 A 
ATOM     14  C   UNL     1      -3.933  11.320  18.531  0.00  0.00    +0.000 A 
ATOM     15  F   UNL     1      -5.109  11.516  19.149  0.00  0.00    +0.000 F 
ATOM     16  C   UNL     1      -3.918  10.494  17.413  0.00  0.00    +0.000 A 
ATOM     17  C   UNL     1      -2.723  10.262  16.749  0.00  0.00    +0.000 A 
ATOM     18  C   UNL     1      -1.562  10.857  17.244  0.00  0.00    +0.000 A 
BRANCH  17  19
ATOM     19  O   UNL     1      -2.861   9.488  15.629  0.00  0.00    +0.000 OA
ATOM     20  C   UNL     1      -3.143  10.079  14.363  0.00  0.00    +0.000 C 
ENDBRANCH  17  19
ENDBRANCH  11  12
BRANCH   1  24
ATOM     21  C   UNL     1       1.910   8.080  18.833  0.00  0.00    +0.000 A 
ATOM     22  C   UNL     1       2.156   9.056  17.870  0.00  0.00    +0.000 A 
ATOM     23  C   UNL     1       1.815  10.393  18.112  0.00  0.00    +0.000 A 
ATOM     24  C   UNL     1       1.129  10.764  19.285  0.00  0.00    +0.000 A 
ATOM     25  C   UNL     1       0.942   9.777  20.262  0.00  0.00    +0.000 A 
ATOM     26  C   UNL     1       1.325   8.450  20.041  0.00  0.00    +0.000 A 
BRANCH  21  28
ATOM     27  C   UNL     1       3.172   6.146  19.321  0.00  0.00    +0.000 C 
ATOM     28  O   UNL     1       2.237   6.803  18.473  0.00  0.00    +0.000 OA
ENDBRANCH  21  28
ENDBRANCH   1  24
BRANCH   7  29
ATOM     29  O   UNL     1      -0.284  17.831  21.436  0.00  0.00    +0.000 OA
ATOM     30  C   UNL     1       0.383  17.879  22.698  0.00  0.00    +0.000 C 
ENDBRANCH   7  29
BRANCH   8  31
ATOM     31  O   UNL     1       1.614  17.362  19.278  0.00  0.00    +0.000 OA
ATOM     32  C   UNL     1       2.942  17.234  19.814  0.00  0.00    +0.000 C 
ENDBRANCH   8  31
TORSDOF 6
ENDMDL
MODEL 9
REMARK VINA RESULT:      -6.5      2.905      7.022
REMARK  Name = 
REMARK  10 active torsions:
REMARK  status: ('A' for Active; 'I' for Inactive)
REMARK    1  A    between atoms: C_1  and  O_2
REMARK    2  A    between atoms: O_2  and  C_3
REMARK    3  A    between atoms: C_6  and  C_7
REMARK    4  A    between atoms: C_13  and  O_14
REMARK    5  A    between atoms: O_14  and  C_15
REMARK    6  A    between atoms: C_16  and  O_17
REMARK    7  A    between atoms: O_17  and  C_18
REMARK    8  A    between atoms: C_21  and  C_22
REMARK    9  A    between atoms: C_27  and  O_28
REMARK   10  A    between atoms: O_28  and  C_29
REMARK                            x       y       z     vdW  Elec       q    Type
REMARK                         _______ _______ _______ _____ _____    ______ ____
ROOT
ATOM      1  C   UNL     1       0.698  10.638  20.357  0.00  0.00    +0.000 A 
ATOM      2  O   UNL     1       1.854  11.095  19.570  0.00  0.00    +0.000 OA
ATOM      3  C   UNL     1       2.002  10.575  18.291  0.00  0.00    +0.000 A 
ATOM      4  O   UNL     1       2.443  11.196  17.337  0.00  0.00    +0.000 OA
ATOM      5  C   UNL     1       1.813   9.117  18.282  0.00  0.00    +0.000 A 
ATOM      6  C   UNL     1       2.850   8.348  17.730  0.00  0.00    +0.000 A 
ATOM      7  C   UNL     1       3.250   7.159  18.337  0.00  0.00    +0.000 A 
ATOM      8  C   UNL     1       2.583   6.773  19.514  0.00  0.00    +0.000 A 
ATOM      9  C   UNL     1       1.400   7.504  19.931  0.00  0.00    +0.000 A 
ATOM     10  C   UNL     1       0.930   8.662  19.245  0.00  0.00    +0.000 A 
ATOM     11  C   UNL     1      -0.071   9.732  19.709  0.00  0.00    +0.000 A 
ENDROOT
BRANCH  11  12
ATOM     12  C   UNL     1      -1.162  10.486  18.850  0.00  0.00    +0.000 A 
ATOM     13  C   UNL     1      -1.329  10.213  17.490  0.00  0.00    +0.000 A 
ATOM     14  C   UNL     1      -2.460  10.698  16.810  0.00  0.00    +0.000 A 
ATOM     15  F   UNL     1      -2.624  10.403  15.509  0.00  0.00    +0.000 F 
ATOM     16  C   UNL     1      -3.455  11.439  17.437  0.00  0.00    +0.000 A 
ATOM     17  C   UNL     1      -3.322  11.769  18.776  0.00  0.00    +0.000 A 
ATOM     18  C   UNL     1      -2.172  11.356  19.451  0.00  0.00    +0.000 A 
BRANCH  17  19
ATOM     19  O   UNL     1      -4.401  12.440  19.284  0.00  0.00    +0.000 OA
ATOM     20  C   UNL     1      -4.357  13.012  20.590  0.00  0.00    +0.000 C 
ENDBRANCH  17  19
ENDBRANCH  11  12
BRANCH   1  24
ATOM     21  C   UNL     1      -0.967  13.882  22.678  0.00  0.00    +0.000 A 
ATOM     22  C   UNL     1      -1.276  12.569  23.024  0.00  0.00    +0.000 A 
ATOM     23  C   UNL     1      -0.663  11.498  22.362  0.00  0.00    +0.000 A 
ATOM     24  C   UNL     1       0.199  11.720  21.269  0.00  0.00    +0.000 A 
ATOM     25  C   UNL     1       0.537  13.048  20.975  0.00  0.00    +0.000 A 
ATOM     26  C   UNL     1      -0.040  14.118  21.668  0.00  0.00    +0.000 A 
BRANCH  21  28
ATOM     27  C   UNL     1      -2.899  14.431  23.919  0.00  0.00    +0.000 C 
ATOM     28  O   UNL     1      -1.660  14.846  23.354  0.00  0.00    +0.000 OA
ENDBRANCH  21  28
ENDBRANCH   1  24
BRANCH   7  29
ATOM     29  O   UNL     1       4.296   6.412  17.864  0.00  0.00    +0.000 OA
ATOM     30  C   UNL     1       4.000   5.191  17.186  0.00  0.00    +0.000 C 
ENDBRANCH   7  29
BRANCH   8  31
ATOM     31  O   UNL     1       2.996   5.789  20.394  0.00  0.00    +0.000 OA
ATOM     32  C   UNL     1       2.104   4.749  20.831  0.00  0.00    +0.000 C 
ENDBRANCH   8  31
TORSDOF 6
ENDMDL
