MODEL 1
REMARK VINA RESULT:      -5.8      0.000      0.000
REMARK  Name = 
REMARK  4 active torsions:
REMARK  status: ('A' for Active; 'I' for Inactive)
REMARK    1  A    between atoms: C_3  and  S_4
REMARK    2  A    between atoms: S_4  and  C_5
REMARK    3  A    between atoms: C_11  and  S_12
REMARK    4  A    between atoms: S_12  and  C_13
REMARK                            x       y       z     vdW  Elec       q    Type
REMARK                         _______ _______ _______ _____ _____    ______ ____
ROOT
ATOM      1  O   UNL     1      -4.013  12.738  20.138  0.00  0.00    +0.000 OA
ATOM      2  C   UNL     1      -2.971  12.236  19.733  0.00  0.00    +0.000 C 
ATOM      3  C   UNL     1      -1.665  12.350  20.460  0.00  0.00    +0.000 C 
ATOM      4  C   UNL     1      -0.677  11.460  20.226  0.00  0.00    +0.000 C 
ATOM      5  C   UNL     1      -0.788  10.496  19.083  0.00  0.00    +0.000 C 
ATOM      6  O   UNL     1       0.017   9.592  18.881  0.00  0.00    +0.000 OA
ATOM      7  C   UNL     1      -1.900  10.684  18.129  0.00  0.00    +0.000 A 
ATOM      8  C   UNL     1      -1.878  10.036  16.884  0.00  0.00    +0.000 A 
ATOM      9  C   UNL     1      -2.943  10.193  15.992  0.00  0.00    +0.000 A 
ATOM     10  C   UNL     1      -4.041  10.973  16.347  0.00  0.00    +0.000 A 
ATOM     11  C   UNL     1      -4.063  11.622  17.583  0.00  0.00    +0.000 A 
ATOM     12  C   UNL     1      -2.977  11.495  18.467  0.00  0.00    +0.000 A 
ENDROOT
BRANCH   3  13
ATOM     13  S   UNL     1      -1.572  13.623  21.649  0.00  0.00    +0.000 S 
BRANCH  13  14
ATOM     14  C   UNL     1      -0.834  14.966  20.717  0.00  0.00    +0.000 A 
ATOM     15  C   UNL     1      -0.133  15.951  21.424  0.00  0.00    +0.000 A 
ATOM     16  C   UNL     1       0.596  16.936  20.750  0.00  0.00    +0.000 A 
ATOM     17  C   UNL     1       0.633  16.946  19.358  0.00  0.00    +0.000 A 
ATOM     18  C   UNL     1      -0.075  15.982  18.641  0.00  0.00    +0.000 A 
ATOM     19  C   UNL     1      -0.809  14.992  19.317  0.00  0.00    +0.000 A 
ENDBRANCH  13  14
ENDBRANCH   3  13
BRANCH   4  20
ATOM     20  S   UNL     1       0.881  11.480  21.023  0.00  0.00    +0.000 S 
BRANCH  20  21
ATOM     21  C   UNL     1       1.785  12.731  20.113  0.00  0.00    +0.000 A 
ATOM     22  C   UNL     1       2.588  13.667  20.780  0.00  0.00    +0.000 A 
ATOM     23  C   UNL     1       3.456  14.503  20.066  0.00  0.00    +0.000 A 
ATOM     24  C   UNL     1       3.538  14.409  18.677  0.00  0.00    +0.000 A 
ATOM     25  C   UNL     1       2.736  13.492  18.002  0.00  0.00    +0.000 A 
ATOM     26  C   UNL     1       1.866  12.657  18.715  0.00  0.00    +0.000 A 
ENDBRANCH  20  21
ENDBRANCH   4  20
TORSDOF 4
ENDMDL
MODEL 2
REMARK VINA RESULT:      -5.7      0.209      1.349
REMARK  Name = 
REMARK  4 active torsions:
REMARK  status: ('A' for Active; 'I' for Inactive)
REMARK    1  A    between atoms: C_3  and  S_4
REMARK    2  A    between atoms: S_4  and  C_5
REMARK    3  A    between atoms: C_11  and  S_12
REMARK    4  A    between atoms: S_12  and  C_13
REMARK                            x       y       z     vdW  Elec       q    Type
REMARK                         _______ _______ _______ _____ _____    ______ ____
ROOT
ATOM      1  O   UNL     1      -4.054  12.882  20.021  0.00  0.00    +0.000 OA
ATOM      2  C   UNL     1      -3.000  12.341  19.704  0.00  0.00    +0.000 C 
ATOM      3  C   UNL     1      -1.733  12.476  20.494  0.00  0.00    +0.000 C 
ATOM      4  C   UNL     1      -0.751  11.559  20.366  0.00  0.00    +0.000 C 
ATOM      5  C   UNL     1      -0.818  10.532  19.276  0.00  0.00    +0.000 C 
ATOM      6  O   UNL     1      -0.021   9.606  19.170  0.00  0.00    +0.000 OA
ATOM      7  C   UNL     1      -1.873  10.682  18.252  0.00  0.00    +0.000 A 
ATOM      8  C   UNL     1      -1.796   9.963  17.049  0.00  0.00    +0.000 A 
ATOM      9  C   UNL     1      -2.807  10.084  16.092  0.00  0.00    +0.000 A 
ATOM     10  C   UNL     1      -3.909  10.900  16.341  0.00  0.00    +0.000 A 
ATOM     11  C   UNL     1      -3.985  11.620  17.535  0.00  0.00    +0.000 A 
ATOM     12  C   UNL     1      -2.952  11.528  18.483  0.00  0.00    +0.000 A 
ENDROOT
BRANCH   3  13
ATOM     13  S   UNL     1      -1.682  13.814  21.611  0.00  0.00    +0.000 S 
BRANCH  13  14
ATOM     14  C   UNL     1      -0.711  15.026  20.716  0.00  0.00    +0.000 A 
ATOM     15  C   UNL     1      -0.852  15.086  19.323  0.00  0.00    +0.000 A 
ATOM     16  C   UNL     1      -0.247  16.108  18.584  0.00  0.00    +0.000 A 
ATOM     17  C   UNL     1       0.508  17.084  19.230  0.00  0.00    +0.000 A 
ATOM     18  C   UNL     1       0.672  17.026  20.614  0.00  0.00    +0.000 A 
ATOM     19  C   UNL     1       0.065  16.000  21.358  0.00  0.00    +0.000 A 
ENDBRANCH  13  14
ENDBRANCH   3  13
BRANCH   4  20
ATOM     20  S   UNL     1       0.761  11.601  21.246  0.00  0.00    +0.000 S 
BRANCH  20  21
ATOM     21  C   UNL     1       1.814  12.598  20.193  0.00  0.00    +0.000 A 
ATOM     22  C   UNL     1       1.669  12.571  18.798  0.00  0.00    +0.000 A 
ATOM     23  C   UNL     1       2.340  13.500  17.991  0.00  0.00    +0.000 A 
ATOM     24  C   UNL     1       3.156  14.471  18.568  0.00  0.00    +0.000 A 
ATOM     25  C   UNL     1       3.317  14.500  19.952  0.00  0.00    +0.000 A 
ATOM     26  C   UNL     1       2.650  13.571  20.760  0.00  0.00    +0.000 A 
ENDBRANCH  20  21
ENDBRANCH   4  20
TORSDOF 4
ENDMDL
MODEL 3
REMARK VINA RESULT:      -5.6      2.366      3.658
REMARK  Name = 
REMARK  4 active torsions:
REMARK  status: ('A' for Active; 'I' for Inactive)
REMARK    1  A    between atoms: C_3  and  S_4
REMARK    2  A    between atoms: S_4  and  C_5
REMARK    3  A    between atoms: C_11  and  S_12
REMARK    4  A    between atoms: S_12  and  C_13
REMARK                            x       y       z     vdW  Elec       q    Type
REMARK                         _______ _______ _______ _____ _____    ______ ____
ROOT
ATOM      1  O   UNL     1      -5.191  12.545  19.091  0.00  0.00    +0.000 OA
ATOM      2  C   UNL     1      -4.010  12.219  19.043  0.00  0.00    +0.000 C 
ATOM      3  C   UNL     1      -2.996  12.638  20.064  0.00  0.00    +0.000 C 
ATOM      4  C   UNL     1      -1.854  11.936  20.216  0.00  0.00    +0.000 C 
ATOM      5  C   UNL     1      -1.483  10.877  19.222  0.00  0.00    +0.000 C 
ATOM      6  O   UNL     1      -0.520  10.129  19.358  0.00  0.00    +0.000 OA
ATOM      7  C   UNL     1      -2.297  10.771  17.993  0.00  0.00    +0.000 A 
ATOM      8  C   UNL     1      -1.823  10.038  16.894  0.00  0.00    +0.000 A 
ATOM      9  C   UNL     1      -2.605   9.915  15.742  0.00  0.00    +0.000 A 
ATOM     10  C   UNL     1      -3.869  10.499  15.691  0.00  0.00    +0.000 A 
ATOM     11  C   UNL     1      -4.341  11.231  16.782  0.00  0.00    +0.000 A 
ATOM     12  C   UNL     1      -3.542  11.387  17.927  0.00  0.00    +0.000 A 
ENDROOT
BRANCH   3  13
ATOM     13  S   UNL     1      -3.446  14.000  21.057  0.00  0.00    +0.000 S 
BRANCH  13  14
ATOM     14  C   UNL     1      -4.353  13.219  22.392  0.00  0.00    +0.000 A 
ATOM     15  C   UNL     1      -3.635  12.794  23.517  0.00  0.00    +0.000 A 
ATOM     16  C   UNL     1      -4.297  12.324  24.656  0.00  0.00    +0.000 A 
ATOM     17  C   UNL     1      -5.689  12.273  24.682  0.00  0.00    +0.000 A 
ATOM     18  C   UNL     1      -6.416  12.676  23.562  0.00  0.00    +0.000 A 
ATOM     19  C   UNL     1      -5.752  13.148  22.417  0.00  0.00    +0.000 A 
ENDBRANCH  13  14
ENDBRANCH   3  13
BRANCH   4  20
ATOM     20  S   UNL     1      -0.607  12.318  21.383  0.00  0.00    +0.000 S 
BRANCH  20  21
ATOM     21  C   UNL     1       0.566  13.275  20.424  0.00  0.00    +0.000 A 
ATOM     22  C   UNL     1       1.859  12.792  20.178  0.00  0.00    +0.000 A 
ATOM     23  C   UNL     1       2.700  13.433  19.260  0.00  0.00    +0.000 A 
ATOM     24  C   UNL     1       2.257  14.560  18.570  0.00  0.00    +0.000 A 
ATOM     25  C   UNL     1       0.979  15.057  18.815  0.00  0.00    +0.000 A 
ATOM     26  C   UNL     1       0.138  14.419  19.735  0.00  0.00    +0.000 A 
ENDBRANCH  20  21
ENDBRANCH   4  20
TORSDOF 4
ENDMDL
MODEL 4
REMARK VINA RESULT:      -5.6      3.300      5.859
REMARK  Name = 
REMARK  4 active torsions:
REMARK  status: ('A' for Active; 'I' for Inactive)
REMARK    1  A    between atoms: C_3  and  S_4
REMARK    2  A    between atoms: S_4  and  C_5
REMARK    3  A    between atoms: C_11  and  S_12
REMARK    4  A    between atoms: S_12  and  C_13
REMARK                            x       y       z     vdW  Elec       q    Type
REMARK                         _______ _______ _______ _____ _____    ______ ____
ROOT
ATOM      1  O   UNL     1      -0.400  10.836  23.425  0.00  0.00    +0.000 OA
ATOM      2  C   UNL     1      -0.821  11.087  22.301  0.00  0.00    +0.000 C 
ATOM      3  C   UNL     1      -2.018  11.951  22.043  0.00  0.00    +0.000 C 
ATOM      4  C   UNL     1      -2.188  12.536  20.839  0.00  0.00    +0.000 C 
ATOM      5  C   UNL     1      -1.312  12.150  19.685  0.00  0.00    +0.000 C 
ATOM      6  O   UNL     1      -1.337  12.718  18.598  0.00  0.00    +0.000 OA
ATOM      7  C   UNL     1      -0.411  10.992  19.861  0.00  0.00    +0.000 A 
ATOM      8  C   UNL     1       0.185  10.386  18.744  0.00  0.00    +0.000 A 
ATOM      9  C   UNL     1       1.058   9.307  18.913  0.00  0.00    +0.000 A 
ATOM     10  C   UNL     1       1.359   8.848  20.193  0.00  0.00    +0.000 A 
ATOM     11  C   UNL     1       0.764   9.446  21.305  0.00  0.00    +0.000 A 
ATOM     12  C   UNL     1      -0.142  10.507  21.136  0.00  0.00    +0.000 A 
ENDROOT
BRANCH   3  13
ATOM     13  S   UNL     1      -3.079  12.196  23.406  0.00  0.00    +0.000 S 
BRANCH  13  14
ATOM     14  C   UNL     1      -2.668  13.864  23.918  0.00  0.00    +0.000 A 
ATOM     15  C   UNL     1      -3.692  14.665  24.438  0.00  0.00    +0.000 A 
ATOM     16  C   UNL     1      -3.411  15.915  25.000  0.00  0.00    +0.000 A 
ATOM     17  C   UNL     1      -2.099  16.379  25.048  0.00  0.00    +0.000 A 
ATOM     18  C   UNL     1      -1.071  15.599  24.518  0.00  0.00    +0.000 A 
ATOM     19  C   UNL     1      -1.352  14.344  23.952  0.00  0.00    +0.000 A 
ENDBRANCH  13  14
ENDBRANCH   3  13
BRANCH   4  20
ATOM     20  S   UNL     1      -3.532  13.577  20.426  0.00  0.00    +0.000 S 
BRANCH  20  21
ATOM     21  C   UNL     1      -4.791  12.419  19.892  0.00  0.00    +0.000 A 
ATOM     22  C   UNL     1      -5.920  12.167  20.685  0.00  0.00    +0.000 A 
ATOM     23  C   UNL     1      -7.000  11.432  20.180  0.00  0.00    +0.000 A 
ATOM     24  C   UNL     1      -6.969  10.946  18.874  0.00  0.00    +0.000 A 
ATOM     25  C   UNL     1      -5.848  11.179  18.080  0.00  0.00    +0.000 A 
ATOM     26  C   UNL     1      -4.766  11.912  18.585  0.00  0.00    +0.000 A 
ENDBRANCH  20  21
ENDBRANCH   4  20
TORSDOF 4
ENDMDL
MODEL 5
REMARK VINA RESULT:      -5.5      6.203      8.900
REMARK  Name = 
REMARK  4 active torsions:
REMARK  status: ('A' for Active; 'I' for Inactive)
REMARK    1  A    between atoms: C_3  and  S_4
REMARK    2  A    between atoms: S_4  and  C_5
REMARK    3  A    between atoms: C_11  and  S_12
REMARK    4  A    between atoms: S_12  and  C_13
REMARK                            x       y       z     vdW  Elec       q    Type
REMARK                         _______ _______ _______ _____ _____    ______ ____
ROOT
ATOM      1  O   UNL     1       2.810   8.589  16.985  0.00  0.00    +0.000 OA
ATOM      2  C   UNL     1       2.275   8.242  18.031  0.00  0.00    +0.000 C 
ATOM      3  C   UNL     1       2.610   6.968  18.746  0.00  0.00    +0.000 C 
ATOM      4  C   UNL     1       2.333   6.832  20.060  0.00  0.00    +0.000 C 
ATOM      5  C   UNL     1       1.487   7.853  20.760  0.00  0.00    +0.000 C 
ATOM      6  O   UNL     1       1.288   7.850  21.970  0.00  0.00    +0.000 OA
ATOM      7  C   UNL     1       0.822   8.882  19.932  0.00  0.00    +0.000 A 
ATOM      8  C   UNL     1      -0.220   9.652  20.468  0.00  0.00    +0.000 A 
ATOM      9  C   UNL     1      -0.831  10.643  19.694  0.00  0.00    +0.000 A 
ATOM     10  C   UNL     1      -0.387  10.886  18.396  0.00  0.00    +0.000 A 
ATOM     11  C   UNL     1       0.647  10.118  17.859  0.00  0.00    +0.000 A 
ATOM     12  C   UNL     1       1.238   9.096  18.623  0.00  0.00    +0.000 A 
ENDROOT
BRANCH   3  13
ATOM     13  S   UNL     1       3.438   5.765  17.793  0.00  0.00    +0.000 S 
BRANCH  13  14
ATOM     14  C   UNL     1       5.163   6.151  18.100  0.00  0.00    +0.000 A 
ATOM     15  C   UNL     1       5.820   5.461  19.126  0.00  0.00    +0.000 A 
ATOM     16  C   UNL     1       7.199   5.598  19.314  0.00  0.00    +0.000 A 
ATOM     17  C   UNL     1       7.938   6.428  18.476  0.00  0.00    +0.000 A 
ATOM     18  C   UNL     1       7.293   7.135  17.461  0.00  0.00    +0.000 A 
ATOM     19  C   UNL     1       5.908   6.999  17.271  0.00  0.00    +0.000 A 
ENDBRANCH  13  14
ENDBRANCH   3  13
BRANCH   4  20
ATOM     20  S   UNL     1       2.692   5.403  21.003  0.00  0.00    +0.000 S 
BRANCH  20  21
ATOM     21  C   UNL     1       2.199   4.066  19.917  0.00  0.00    +0.000 A 
ATOM     22  C   UNL     1       3.128   3.103  19.494  0.00  0.00    +0.000 A 
ATOM     23  C   UNL     1       2.705   1.948  18.824  0.00  0.00    +0.000 A 
ATOM     24  C   UNL     1       1.350   1.736  18.576  0.00  0.00    +0.000 A 
ATOM     25  C   UNL     1       0.419   2.691  18.980  0.00  0.00    +0.000 A 
ATOM     26  C   UNL     1       0.841   3.848  19.648  0.00  0.00    +0.000 A 
ENDBRANCH  20  21
ENDBRANCH   4  20
TORSDOF 4
ENDMDL
MODEL 6
REMARK VINA RESULT:      -5.5      6.368      8.914
REMARK  Name = 
REMARK  4 active torsions:
REMARK  status: ('A' for Active; 'I' for Inactive)
REMARK    1  A    between atoms: C_3  and  S_4
REMARK    2  A    between atoms: S_4  and  C_5
REMARK    3  A    between atoms: C_11  and  S_12
REMARK    4  A    between atoms: S_12  and  C_13
REMARK                            x       y       z     vdW  Elec       q    Type
REMARK                         _______ _______ _______ _____ _____    ______ ____
ROOT
ATOM      1  O   UNL     1       0.771   7.410  21.475  0.00  0.00    +0.000 OA
ATOM      2  C   UNL     1       1.455   7.634  20.482  0.00  0.00    +0.000 C 
ATOM      3  C   UNL     1       2.352   6.612  19.852  0.00  0.00    +0.000 C 
ATOM      4  C   UNL     1       2.739   6.747  18.566  0.00  0.00    +0.000 C 
ATOM      5  C   UNL     1       2.467   8.025  17.829  0.00  0.00    +0.000 C 
ATOM      6  O   UNL     1       2.691   8.175  16.632  0.00  0.00    +0.000 OA
ATOM      7  C   UNL     1       1.949   9.171  18.605  0.00  0.00    +0.000 A 
ATOM      8  C   UNL     1       1.980  10.463  18.059  0.00  0.00    +0.000 A 
ATOM      9  C   UNL     1       1.466  11.543  18.782  0.00  0.00    +0.000 A 
ATOM     10  C   UNL     1       0.898  11.335  20.038  0.00  0.00    +0.000 A 
ATOM     11  C   UNL     1       0.870  10.051  20.584  0.00  0.00    +0.000 A 
ATOM     12  C   UNL     1       1.420   8.969  19.874  0.00  0.00    +0.000 A 
ENDROOT
BRANCH   3  13
ATOM     13  S   UNL     1       2.760   5.245  20.855  0.00  0.00    +0.000 S 
BRANCH  13  14
ATOM     14  C   UNL     1       2.288   3.856  19.824  0.00  0.00    +0.000 A 
ATOM     15  C   UNL     1       3.270   2.911  19.502  0.00  0.00    +0.000 A 
ATOM     16  C   UNL     1       2.935   1.726  18.836  0.00  0.00    +0.000 A 
ATOM     17  C   UNL     1       1.611   1.474  18.486  0.00  0.00    +0.000 A 
ATOM     18  C   UNL     1       0.626   2.415  18.785  0.00  0.00    +0.000 A 
ATOM     19  C   UNL     1       0.961   3.605  19.453  0.00  0.00    +0.000 A 
ENDBRANCH  13  14
ENDBRANCH   3  13
BRANCH   4  20
ATOM     20  S   UNL     1       3.768   5.614  17.718  0.00  0.00    +0.000 S 
BRANCH  20  21
ATOM     21  C   UNL     1       5.417   6.146  18.173  0.00  0.00    +0.000 A 
ATOM     22  C   UNL     1       6.127   5.496  19.192  0.00  0.00    +0.000 A 
ATOM     23  C   UNL     1       7.485   5.769  19.405  0.00  0.00    +0.000 A 
ATOM     24  C   UNL     1       8.152   6.688  18.596  0.00  0.00    +0.000 A 
ATOM     25  C   UNL     1       7.453   7.349  17.588  0.00  0.00    +0.000 A 
ATOM     26  C   UNL     1       6.095   7.080  17.376  0.00  0.00    +0.000 A 
ENDBRANCH  20  21
ENDBRANCH   4  20
TORSDOF 4
ENDMDL
MODEL 7
REMARK VINA RESULT:      -5.5      3.357      6.248
REMARK  Name = 
REMARK  4 active torsions:
REMARK  status: ('A' for Active; 'I' for Inactive)
REMARK    1  A    between atoms: C_3  and  S_4
REMARK    2  A    between atoms: S_4  and  C_5
REMARK    3  A    between atoms: C_11  and  S_12
REMARK    4  A    between atoms: S_12  and  C_13
REMARK                            x       y       z     vdW  Elec       q    Type
REMARK                         _______ _______ _______ _____ _____    ______ ____
ROOT
ATOM      1  O   UNL     1      -1.994  13.060  19.377  0.00  0.00    +0.000 OA
ATOM      2  C   UNL     1      -2.938  12.748  20.095  0.00  0.00    +0.000 C 
ATOM      3  C   UNL     1      -2.919  12.885  21.587  0.00  0.00    +0.000 C 
ATOM      4  C   UNL     1      -4.076  12.942  22.279  0.00  0.00    +0.000 C 
ATOM      5  C   UNL     1      -5.377  12.642  21.596  0.00  0.00    +0.000 C 
ATOM      6  O   UNL     1      -6.470  12.782  22.134  0.00  0.00    +0.000 OA
ATOM      7  C   UNL     1      -5.325  12.103  20.222  0.00  0.00    +0.000 A 
ATOM      8  C   UNL     1      -6.462  11.506  19.655  0.00  0.00    +0.000 A 
ATOM      9  C   UNL     1      -6.420  11.020  18.345  0.00  0.00    +0.000 A 
ATOM     10  C   UNL     1      -5.257  11.150  17.589  0.00  0.00    +0.000 A 
ATOM     11  C   UNL     1      -4.124  11.739  18.153  0.00  0.00    +0.000 A 
ATOM     12  C   UNL     1      -4.152  12.196  19.482  0.00  0.00    +0.000 A 
ENDROOT
BRANCH   3  13
ATOM     13  S   UNL     1      -1.340  13.049  22.309  0.00  0.00    +0.000 S 
BRANCH  13  14
ATOM     14  C   UNL     1      -0.675  11.390  22.162  0.00  0.00    +0.000 A 
ATOM     15  C   UNL     1       0.200  11.123  21.101  0.00  0.00    +0.000 A 
ATOM     16  C   UNL     1       0.875   9.900  21.018  0.00  0.00    +0.000 A 
ATOM     17  C   UNL     1       0.682   8.929  21.998  0.00  0.00    +0.000 A 
ATOM     18  C   UNL     1      -0.200   9.176  23.050  0.00  0.00    +0.000 A 
ATOM     19  C   UNL     1      -0.880  10.403  23.134  0.00  0.00    +0.000 A 
ENDBRANCH  13  14
ENDBRANCH   3  13
BRANCH   4  20
ATOM     20  S   UNL     1      -4.181  13.118  24.017  0.00  0.00    +0.000 S 
BRANCH  20  21
ATOM     21  C   UNL     1      -4.196  14.895  24.244  0.00  0.00    +0.000 A 
ATOM     22  C   UNL     1      -5.354  15.644  23.986  0.00  0.00    +0.000 A 
ATOM     23  C   UNL     1      -5.433  16.991  24.362  0.00  0.00    +0.000 A 
ATOM     24  C   UNL     1      -4.361  17.605  25.007  0.00  0.00    +0.000 A 
ATOM     25  C   UNL     1      -3.201  16.875  25.257  0.00  0.00    +0.000 A 
ATOM     26  C   UNL     1      -3.119  15.529  24.879  0.00  0.00    +0.000 A 
ENDBRANCH  20  21
ENDBRANCH   4  20
TORSDOF 4
ENDMDL
MODEL 8
REMARK VINA RESULT:      -5.5      3.317      6.147
REMARK  Name = 
REMARK  4 active torsions:
REMARK  status: ('A' for Active; 'I' for Inactive)
REMARK    1  A    between atoms: C_3  and  S_4
REMARK    2  A    between atoms: S_4  and  C_5
REMARK    3  A    between atoms: C_11  and  S_12
REMARK    4  A    between atoms: S_12  and  C_13
REMARK                            x       y       z     vdW  Elec       q    Type
REMARK                         _______ _______ _______ _____ _____    ______ ____
ROOT
ATOM      1  O   UNL     1      -2.004  13.089  19.418  0.00  0.00    +0.000 OA
ATOM      2  C   UNL     1      -2.900  12.775  20.192  0.00  0.00    +0.000 C 
ATOM      3  C   UNL     1      -2.789  12.914  21.681  0.00  0.00    +0.000 C 
ATOM      4  C   UNL     1      -3.901  12.968  22.444  0.00  0.00    +0.000 C 
ATOM      5  C   UNL     1      -5.241  12.662  21.843  0.00  0.00    +0.000 C 
ATOM      6  O   UNL     1      -6.300  12.799  22.447  0.00  0.00    +0.000 OA
ATOM      7  C   UNL     1      -5.272  12.121  20.468  0.00  0.00    +0.000 A 
ATOM      8  C   UNL     1      -6.439  11.520  19.974  0.00  0.00    +0.000 A 
ATOM      9  C   UNL     1      -6.478  11.031  18.664  0.00  0.00    +0.000 A 
ATOM     10  C   UNL     1      -5.364  11.165  17.838  0.00  0.00    +0.000 A 
ATOM     11  C   UNL     1      -4.200  11.759  18.329  0.00  0.00    +0.000 A 
ATOM     12  C   UNL     1      -4.147  12.217  19.657  0.00  0.00    +0.000 A 
ENDROOT
BRANCH   3  13
ATOM     13  S   UNL     1      -1.169  13.085  22.304  0.00  0.00    +0.000 S 
BRANCH  13  14
ATOM     14  C   UNL     1      -0.500  11.435  22.093  0.00  0.00    +0.000 A 
ATOM     15  C   UNL     1      -0.903  10.440  22.994  0.00  0.00    +0.000 A 
ATOM     16  C   UNL     1      -0.545   9.103  22.793  0.00  0.00    +0.000 A 
ATOM     17  C   UNL     1       0.222   8.745  21.687  0.00  0.00    +0.000 A 
ATOM     18  C   UNL     1       0.645   9.727  20.793  0.00  0.00    +0.000 A 
ATOM     19  C   UNL     1       0.287  11.071  20.993  0.00  0.00    +0.000 A 
ENDBRANCH  13  14
ENDBRANCH   3  13
BRANCH   4  20
ATOM     20  S   UNL     1      -3.899  13.146  24.184  0.00  0.00    +0.000 S 
BRANCH  20  21
ATOM     21  C   UNL     1      -3.813  14.921  24.410  0.00  0.00    +0.000 A 
ATOM     22  C   UNL     1      -4.944  15.727  24.215  0.00  0.00    +0.000 A 
ATOM     23  C   UNL     1      -4.935  17.076  24.594  0.00  0.00    +0.000 A 
ATOM     24  C   UNL     1      -3.799  17.634  25.178  0.00  0.00    +0.000 A 
ATOM     25  C   UNL     1      -2.665  16.847  25.365  0.00  0.00    +0.000 A 
ATOM     26  C   UNL     1      -2.672  15.498  24.984  0.00  0.00    +0.000 A 
ENDBRANCH  20  21
ENDBRANCH   4  20
TORSDOF 4
ENDMDL
MODEL 9
REMARK VINA RESULT:      -5.4      2.479      3.759
REMARK  Name = 
REMARK  4 active torsions:
REMARK  status: ('A' for Active; 'I' for Inactive)
REMARK    1  A    between atoms: C_3  and  S_4
REMARK    2  A    between atoms: S_4  and  C_5
REMARK    3  A    between atoms: C_11  and  S_12
REMARK    4  A    between atoms: S_12  and  C_13
REMARK                            x       y       z     vdW  Elec       q    Type
REMARK                         _______ _______ _______ _____ _____    ______ ____
ROOT
ATOM      1  O   UNL     1      -1.846  12.378  21.194  0.00  0.00    +0.000 OA
ATOM      2  C   UNL     1      -1.558  11.888  20.108  0.00  0.00    +0.000 C 
ATOM      3  C   UNL     1      -0.153  11.571  19.693  0.00  0.00    +0.000 C 
ATOM      4  C   UNL     1       0.080  10.671  18.715  0.00  0.00    +0.000 C 
ATOM      5  C   UNL     1      -1.054  10.153  17.883  0.00  0.00    +0.000 C 
ATOM      6  O   UNL     1      -0.931   9.256  17.055  0.00  0.00    +0.000 OA
ATOM      7  C   UNL     1      -2.375  10.798  18.040  0.00  0.00    +0.000 A 
ATOM      8  C   UNL     1      -3.379  10.590  17.083  0.00  0.00    +0.000 A 
ATOM      9  C   UNL     1      -4.637  11.179  17.246  0.00  0.00    +0.000 A 
ATOM     10  C   UNL     1      -4.904  11.953  18.373  0.00  0.00    +0.000 A 
ATOM     11  C   UNL     1      -3.904  12.165  19.324  0.00  0.00    +0.000 A 
ATOM     12  C   UNL     1      -2.628  11.604  19.144  0.00  0.00    +0.000 A 
ENDROOT
BRANCH   3  13
ATOM     13  S   UNL     1       1.101  12.364  20.609  0.00  0.00    +0.000 S 
BRANCH  13  14
ATOM     14  C   UNL     1       1.527  13.752  19.557  0.00  0.00    +0.000 A 
ATOM     15  C   UNL     1       0.661  14.853  19.534  0.00  0.00    +0.000 A 
ATOM     16  C   UNL     1       1.012  16.028  18.861  0.00  0.00    +0.000 A 
ATOM     17  C   UNL     1       2.235  16.115  18.201  0.00  0.00    +0.000 A 
ATOM     18  C   UNL     1       3.098  15.020  18.200  0.00  0.00    +0.000 A 
ATOM     19  C   UNL     1       2.748  13.839  18.875  0.00  0.00    +0.000 A 
ENDBRANCH  13  14
ENDBRANCH   3  13
BRANCH   4  20
ATOM     20  S   UNL     1       1.673  10.206  18.158  0.00  0.00    +0.000 S 
BRANCH  20  21
ATOM     21  C   UNL     1       1.954   8.644  18.989  0.00  0.00    +0.000 A 
ATOM     22  C   UNL     1       1.424   8.403  20.265  0.00  0.00    +0.000 A 
ATOM     23  C   UNL     1       1.461   7.118  20.824  0.00  0.00    +0.000 A 
ATOM     24  C   UNL     1       2.019   6.058  20.111  0.00  0.00    +0.000 A 
ATOM     25  C   UNL     1       2.560   6.289  18.848  0.00  0.00    +0.000 A 
ATOM     26  C   UNL     1       2.526   7.573  18.290  0.00  0.00    +0.000 A 
ENDBRANCH  20  21
ENDBRANCH   4  20
TORSDOF 4
ENDMDL
