MODEL 1
REMARK VINA RESULT:      -6.0      0.000      0.000
REMARK  Name = 
REMARK  22 active torsions:
REMARK  status: ('A' for Active; 'I' for Inactive)
REMARK    1  A    between atoms: C_1  and  C_2
REMARK    2  A    between atoms: C_2  and  C_3
REMARK    3  A    between atoms: C_3  and  C_4
REMARK    4  A    between atoms: C_4  and  C_5
REMARK    5  A    between atoms: C_5  and  C_6
REMARK    6  A    between atoms: C_6  and  C_7
REMARK    7  A    between atoms: C_7  and  C_8
REMARK    8  A    between atoms: C_8  and  C_9
REMARK    9  A    between atoms: C_10  and  C_11
REMARK   10  A    between atoms: C_11  and  C_12
REMARK   11  A    between atoms: C_12  and  C_13
REMARK   12  A    between atoms: C_13  and  C_14
REMARK   13  A    between atoms: C_14  and  C_15
REMARK   14  A    between atoms: C_15  and  C_16
REMARK   15  A    between atoms: C_16  and  C_17
REMARK   16  A    between atoms: C_17  and  C_18
REMARK   17  A    between atoms: C_18  and  C_19
REMARK   18  A    between atoms: C_19  and  C_20
REMARK   19  A    between atoms: C_20  and  C_21
REMARK   20  A    between atoms: C_21  and  C_22
REMARK   21  A    between atoms: N_24  and  C_25
REMARK   22  A    between atoms: C_25  and  C_26
REMARK                            x       y       z     vdW  Elec       q    Type
REMARK                         _______ _______ _______ _____ _____    ______ ____
ROOT
ATOM      1  C   UNL     1       3.800   3.695  17.222  0.00  0.00    +0.000 C 
ENDROOT
BRANCH   1   2
ATOM      2  C   UNL     1       2.404   3.164  17.480  0.00  0.00    +0.000 C 
BRANCH   2   3
ATOM      3  C   UNL     1       2.467   2.095  18.559  0.00  0.00    +0.000 C 
BRANCH   3   4
ATOM      4  C   UNL     1       3.427   2.511  19.660  0.00  0.00    +0.000 C 
BRANCH   4   5
ATOM      5  C   UNL     1       2.654   2.959  20.893  0.00  0.00    +0.000 C 
BRANCH   5   6
ATOM      6  C   UNL     1       1.191   3.191  20.541  0.00  0.00    +0.000 C 
BRANCH   6   7
ATOM      7  C   UNL     1       0.885   4.682  20.480  0.00  0.00    +0.000 C 
BRANCH   7   8
ATOM      8  C   UNL     1       2.162   5.498  20.553  0.00  0.00    +0.000 C 
BRANCH   8   9
ATOM      9  C   UNL     1       1.868   6.975  20.402  0.00  0.00    +0.000 C 
ATOM     10  O   UNL     1       2.034   7.573  19.343  0.00  0.00    +0.000 OA
ATOM     11  N   UNL     1       1.396   7.581  21.543  0.00  0.00    +0.000 N 
ATOM     12  H   UNL     1       1.156   7.011  22.344  0.00  0.00    +0.000 HD
BRANCH  11  13
ATOM     13  C   UNL     1       0.984   8.972  21.543  0.00  0.00    +0.000 C 
BRANCH  13  14
ATOM     14  C   UNL     1       0.417   9.437  22.881  0.00  0.00    +0.000 C 
ATOM     15 CL   UNL     1      -0.765  10.762  22.681  0.00  0.00    +0.000 Cl
ENDBRANCH  13  14
ENDBRANCH  11  13
ENDBRANCH   8   9
ENDBRANCH   7   8
ENDBRANCH   6   7
ENDBRANCH   5   6
ENDBRANCH   4   5
ENDBRANCH   3   4
ENDBRANCH   2   3
ENDBRANCH   1   2
BRANCH   1  16
ATOM     16  C   UNL     1       3.862   5.208  17.376  0.00  0.00    +0.000 C 
BRANCH  16  17
ATOM     17  C   UNL     1       4.879   5.615  18.438  0.00  0.00    +0.000 C 
BRANCH  17  18
ATOM     18  C   UNL     1       6.151   6.246  17.868  0.00  0.00    +0.000 C 
BRANCH  18  20
ATOM     19  C   UNL     1       7.664   4.649  16.650  0.00  0.00    +0.000 C 
ATOM     20  C   UNL     1       7.284   5.257  17.781  0.00  0.00    +0.000 C 
BRANCH  19  21
ATOM     21  C   UNL     1       7.008   4.942  15.342  0.00  0.00    +0.000 C 
BRANCH  21  22
ATOM     22  C   UNL     1       6.243   3.759  14.786  0.00  0.00    +0.000 C 
BRANCH  22  23
ATOM     23  C   UNL     1       5.679   4.144  13.426  0.00  0.00    +0.000 C 
BRANCH  23  24
ATOM     24  C   UNL     1       6.434   3.431  12.323  0.00  0.00    +0.000 C 
BRANCH  24  25
ATOM     25  C   UNL     1       5.503   3.108  11.163  0.00  0.00    +0.000 C 
BRANCH  25  26
ATOM     26  C   UNL     1       4.068   3.028  11.660  0.00  0.00    +0.000 C 
BRANCH  26  28
ATOM     27  C   UNL     1       3.154   4.398   9.779  0.00  0.00    +0.000 C 
ATOM     28  C   UNL     1       3.084   3.064  10.498  0.00  0.00    +0.000 C 
ENDBRANCH  26  28
ENDBRANCH  25  26
ENDBRANCH  24  25
ENDBRANCH  23  24
ENDBRANCH  22  23
ENDBRANCH  21  22
ENDBRANCH  19  21
ENDBRANCH  18  20
ENDBRANCH  17  18
ENDBRANCH  16  17
ENDBRANCH   1  16
TORSDOF 21
ENDMDL
MODEL 2
REMARK VINA RESULT:      -5.5      2.986      5.517
REMARK  Name = 
REMARK  22 active torsions:
REMARK  status: ('A' for Active; 'I' for Inactive)
REMARK    1  A    between atoms: C_1  and  C_2
REMARK    2  A    between atoms: C_2  and  C_3
REMARK    3  A    between atoms: C_3  and  C_4
REMARK    4  A    between atoms: C_4  and  C_5
REMARK    5  A    between atoms: C_5  and  C_6
REMARK    6  A    between atoms: C_6  and  C_7
REMARK    7  A    between atoms: C_7  and  C_8
REMARK    8  A    between atoms: C_8  and  C_9
REMARK    9  A    between atoms: C_10  and  C_11
REMARK   10  A    between atoms: C_11  and  C_12
REMARK   11  A    between atoms: C_12  and  C_13
REMARK   12  A    between atoms: C_13  and  C_14
REMARK   13  A    between atoms: C_14  and  C_15
REMARK   14  A    between atoms: C_15  and  C_16
REMARK   15  A    between atoms: C_16  and  C_17
REMARK   16  A    between atoms: C_17  and  C_18
REMARK   17  A    between atoms: C_18  and  C_19
REMARK   18  A    between atoms: C_19  and  C_20
REMARK   19  A    between atoms: C_20  and  C_21
REMARK   20  A    between atoms: C_21  and  C_22
REMARK   21  A    between atoms: N_24  and  C_25
REMARK   22  A    between atoms: C_25  and  C_26
REMARK                            x       y       z     vdW  Elec       q    Type
REMARK                         _______ _______ _______ _____ _____    ______ ____
ROOT
ATOM      1  C   UNL     1       5.261   5.461  15.521  0.00  0.00    +0.000 C 
ENDROOT
BRANCH   1   2
ATOM      2  C   UNL     1       4.967   6.821  16.121  0.00  0.00    +0.000 C 
BRANCH   2   3
ATOM      3  C   UNL     1       3.757   6.712  17.035  0.00  0.00    +0.000 C 
BRANCH   3   4
ATOM      4  C   UNL     1       3.529   8.022  17.769  0.00  0.00    +0.000 C 
BRANCH   4   5
ATOM      5  C   UNL     1       2.038   8.273  17.953  0.00  0.00    +0.000 C 
BRANCH   5   6
ATOM      6  C   UNL     1       1.717   8.476  19.427  0.00  0.00    +0.000 C 
BRANCH   6   7
ATOM      7  C   UNL     1       0.679   9.578  19.603  0.00  0.00    +0.000 C 
BRANCH   7   8
ATOM      8  C   UNL     1       1.133  10.858  18.926  0.00  0.00    +0.000 C 
BRANCH   8   9
ATOM      9  C   UNL     1       1.186  12.001  19.915  0.00  0.00    +0.000 C 
ATOM     10  O   UNL     1       2.088  12.834  19.910  0.00  0.00    +0.000 OA
ATOM     11  N   UNL     1       0.140  12.030  20.808  0.00  0.00    +0.000 N 
ATOM     12  H   UNL     1      -0.639  11.397  20.680  0.00  0.00    +0.000 HD
BRANCH  11  13
ATOM     13  C   UNL     1      -0.004  13.111  21.765  0.00  0.00    +0.000 C 
BRANCH  13  14
ATOM     14  C   UNL     1      -1.128  12.883  22.773  0.00  0.00    +0.000 C 
ATOM     15 CL   UNL     1      -2.653  12.403  21.976  0.00  0.00    +0.000 Cl
ENDBRANCH  13  14
ENDBRANCH  11  13
ENDBRANCH   8   9
ENDBRANCH   7   8
ENDBRANCH   6   7
ENDBRANCH   5   6
ENDBRANCH   4   5
ENDBRANCH   3   4
ENDBRANCH   2   3
ENDBRANCH   1   2
BRANCH   1  16
ATOM     16  C   UNL     1       6.689   5.018  15.809  0.00  0.00    +0.000 C 
BRANCH  16  17
ATOM     17  C   UNL     1       7.330   5.884  16.889  0.00  0.00    +0.000 C 
BRANCH  17  18
ATOM     18  C   UNL     1       7.583   5.147  18.206  0.00  0.00    +0.000 C 
BRANCH  18  20
ATOM     19  C   UNL     1       5.449   4.818  19.495  0.00  0.00    +0.000 C 
ATOM     20  C   UNL     1       6.571   5.510  19.260  0.00  0.00    +0.000 C 
BRANCH  19  21
ATOM     21  C   UNL     1       5.122   3.573  18.739  0.00  0.00    +0.000 C 
BRANCH  21  22
ATOM     22  C   UNL     1       4.413   2.536  19.586  0.00  0.00    +0.000 C 
BRANCH  22  23
ATOM     23  C   UNL     1       3.648   1.598  18.663  0.00  0.00    +0.000 C 
BRANCH  23  24
ATOM     24  C   UNL     1       2.848   2.394  17.652  0.00  0.00    +0.000 C 
BRANCH  24  25
ATOM     25  C   UNL     1       1.504   2.801  18.238  0.00  0.00    +0.000 C 
BRANCH  25  26
ATOM     26  C   UNL     1       1.380   4.317  18.243  0.00  0.00    +0.000 C 
BRANCH  26  28
ATOM     27  C   UNL     1       1.196   3.958  20.711  0.00  0.00    +0.000 C 
ATOM     28  C   UNL     1       1.694   4.888  19.620  0.00  0.00    +0.000 C 
ENDBRANCH  26  28
ENDBRANCH  25  26
ENDBRANCH  24  25
ENDBRANCH  23  24
ENDBRANCH  22  23
ENDBRANCH  21  22
ENDBRANCH  19  21
ENDBRANCH  18  20
ENDBRANCH  17  18
ENDBRANCH  16  17
ENDBRANCH   1  16
TORSDOF 21
ENDMDL
MODEL 3
REMARK VINA RESULT:      -5.4      1.815      2.397
REMARK  Name = 
REMARK  22 active torsions:
REMARK  status: ('A' for Active; 'I' for Inactive)
REMARK    1  A    between atoms: C_1  and  C_2
REMARK    2  A    between atoms: C_2  and  C_3
REMARK    3  A    between atoms: C_3  and  C_4
REMARK    4  A    between atoms: C_4  and  C_5
REMARK    5  A    between atoms: C_5  and  C_6
REMARK    6  A    between atoms: C_6  and  C_7
REMARK    7  A    between atoms: C_7  and  C_8
REMARK    8  A    between atoms: C_8  and  C_9
REMARK    9  A    between atoms: C_10  and  C_11
REMARK   10  A    between atoms: C_11  and  C_12
REMARK   11  A    between atoms: C_12  and  C_13
REMARK   12  A    between atoms: C_13  and  C_14
REMARK   13  A    between atoms: C_14  and  C_15
REMARK   14  A    between atoms: C_15  and  C_16
REMARK   15  A    between atoms: C_16  and  C_17
REMARK   16  A    between atoms: C_17  and  C_18
REMARK   17  A    between atoms: C_18  and  C_19
REMARK   18  A    between atoms: C_19  and  C_20
REMARK   19  A    between atoms: C_20  and  C_21
REMARK   20  A    between atoms: C_21  and  C_22
REMARK   21  A    between atoms: N_24  and  C_25
REMARK   22  A    between atoms: C_25  and  C_26
REMARK                            x       y       z     vdW  Elec       q    Type
REMARK                         _______ _______ _______ _____ _____    ______ ____
ROOT
ATOM      1  C   UNL     1       1.890   2.485  18.024  0.00  0.00    +0.000 C 
ENDROOT
BRANCH   1   2
ATOM      2  C   UNL     1       0.828   1.945  18.959  0.00  0.00    +0.000 C 
BRANCH   2   3
ATOM      3  C   UNL     1       0.656   2.904  20.127  0.00  0.00    +0.000 C 
BRANCH   3   4
ATOM      4  C   UNL     1       1.871   2.851  21.038  0.00  0.00    +0.000 C 
BRANCH   4   5
ATOM      5  C   UNL     1       2.315   4.259  21.410  0.00  0.00    +0.000 C 
BRANCH   5   6
ATOM      6  C   UNL     1       1.417   5.288  20.738  0.00  0.00    +0.000 C 
BRANCH   6   7
ATOM      7  C   UNL     1       2.211   6.537  20.375  0.00  0.00    +0.000 C 
BRANCH   7   8
ATOM      8  C   UNL     1       3.023   6.311  19.113  0.00  0.00    +0.000 C 
BRANCH   8   9
ATOM      9  C   UNL     1       2.932   7.508  18.193  0.00  0.00    +0.000 C 
ATOM     10  O   UNL     1       3.628   7.619  17.188  0.00  0.00    +0.000 OA
ATOM     11  N   UNL     1       2.005   8.451  18.573  0.00  0.00    +0.000 N 
ATOM     12  H   UNL     1       1.372   8.243  19.334  0.00  0.00    +0.000 HD
BRANCH  11  13
ATOM     13  C   UNL     1       1.733   9.615  17.752  0.00  0.00    +0.000 C 
BRANCH  13  14
ATOM     14  C   UNL     1       1.782  10.929  18.527  0.00  0.00    +0.000 C 
ATOM     15 CL   UNL     1       0.820  10.853  20.031  0.00  0.00    +0.000 Cl
ENDBRANCH  13  14
ENDBRANCH  11  13
ENDBRANCH   8   9
ENDBRANCH   7   8
ENDBRANCH   6   7
ENDBRANCH   5   6
ENDBRANCH   4   5
ENDBRANCH   3   4
ENDBRANCH   2   3
ENDBRANCH   1   2
BRANCH   1  16
ATOM     16  C   UNL     1       3.238   1.817  18.259  0.00  0.00    +0.000 C 
BRANCH  16  17
ATOM     17  C   UNL     1       4.351   2.851  18.404  0.00  0.00    +0.000 C 
BRANCH  17  18
ATOM     18  C   UNL     1       4.783   3.485  17.081  0.00  0.00    +0.000 C 
BRANCH  18  20
ATOM     19  C   UNL     1       6.262   5.392  16.372  0.00  0.00    +0.000 C 
ATOM     20  C   UNL     1       5.925   4.451  17.262  0.00  0.00    +0.000 C 
BRANCH  19  21
ATOM     21  C   UNL     1       5.488   5.595  15.112  0.00  0.00    +0.000 C 
BRANCH  21  22
ATOM     22  C   UNL     1       6.266   5.213  13.871  0.00  0.00    +0.000 C 
BRANCH  22  23
ATOM     23  C   UNL     1       5.974   3.756  13.545  0.00  0.00    +0.000 C 
BRANCH  23  24
ATOM     24  C   UNL     1       6.198   3.492  12.070  0.00  0.00    +0.000 C 
BRANCH  24  25
ATOM     25  C   UNL     1       5.523   2.194  11.653  0.00  0.00    +0.000 C 
BRANCH  25  26
ATOM     26  C   UNL     1       4.161   2.492  11.044  0.00  0.00    +0.000 C 
BRANCH  26  28
ATOM     27  C   UNL     1       2.965   4.254   9.734  0.00  0.00    +0.000 C 
ATOM     28  C   UNL     1       3.967   3.988  10.843  0.00  0.00    +0.000 C 
ENDBRANCH  26  28
ENDBRANCH  25  26
ENDBRANCH  24  25
ENDBRANCH  23  24
ENDBRANCH  22  23
ENDBRANCH  21  22
ENDBRANCH  19  21
ENDBRANCH  18  20
ENDBRANCH  17  18
ENDBRANCH  16  17
ENDBRANCH   1  16
TORSDOF 21
ENDMDL
MODEL 4
REMARK VINA RESULT:      -5.4      5.493      8.883
REMARK  Name = 
REMARK  22 active torsions:
REMARK  status: ('A' for Active; 'I' for Inactive)
REMARK    1  A    between atoms: C_1  and  C_2
REMARK    2  A    between atoms: C_2  and  C_3
REMARK    3  A    between atoms: C_3  and  C_4
REMARK    4  A    between atoms: C_4  and  C_5
REMARK    5  A    between atoms: C_5  and  C_6
REMARK    6  A    between atoms: C_6  and  C_7
REMARK    7  A    between atoms: C_7  and  C_8
REMARK    8  A    between atoms: C_8  and  C_9
REMARK    9  A    between atoms: C_10  and  C_11
REMARK   10  A    between atoms: C_11  and  C_12
REMARK   11  A    between atoms: C_12  and  C_13
REMARK   12  A    between atoms: C_13  and  C_14
REMARK   13  A    between atoms: C_14  and  C_15
REMARK   14  A    between atoms: C_15  and  C_16
REMARK   15  A    between atoms: C_16  and  C_17
REMARK   16  A    between atoms: C_17  and  C_18
REMARK   17  A    between atoms: C_18  and  C_19
REMARK   18  A    between atoms: C_19  and  C_20
REMARK   19  A    between atoms: C_20  and  C_21
REMARK   20  A    between atoms: C_21  and  C_22
REMARK   21  A    between atoms: N_24  and  C_25
REMARK   22  A    between atoms: C_25  and  C_26
REMARK                            x       y       z     vdW  Elec       q    Type
REMARK                         _______ _______ _______ _____ _____    ______ ____
ROOT
ATOM      1  C   UNL     1       5.133   5.823  18.898  0.00  0.00    +0.000 C 
ENDROOT
BRANCH   1   2
ATOM      2  C   UNL     1       4.197   5.094  19.840  0.00  0.00    +0.000 C 
BRANCH   2   3
ATOM      3  C   UNL     1       2.838   5.776  19.823  0.00  0.00    +0.000 C 
BRANCH   3   4
ATOM      4  C   UNL     1       1.932   5.178  20.885  0.00  0.00    +0.000 C 
BRANCH   4   5
ATOM      5  C   UNL     1       0.890   4.273  20.242  0.00  0.00    +0.000 C 
BRANCH   5   6
ATOM      6  C   UNL     1       1.287   2.813  20.409  0.00  0.00    +0.000 C 
BRANCH   6   7
ATOM      7  C   UNL     1       1.154   2.067  19.086  0.00  0.00    +0.000 C 
BRANCH   7   8
ATOM      8  C   UNL     1       1.599   2.942  17.928  0.00  0.00    +0.000 C 
BRANCH   8   9
ATOM      9  C   UNL     1       3.042   2.666  17.568  0.00  0.00    +0.000 C 
ATOM     10  O   UNL     1       3.634   1.660  17.949  0.00  0.00    +0.000 OA
ATOM     11  N   UNL     1       3.626   3.629  16.777  0.00  0.00    +0.000 N 
ATOM     12  H   UNL     1       3.052   4.365  16.388  0.00  0.00    +0.000 HD
BRANCH  11  13
ATOM     13  C   UNL     1       4.977   3.472  16.273  0.00  0.00    +0.000 C 
BRANCH  13  14
ATOM     14  C   UNL     1       5.377   4.546  15.265  0.00  0.00    +0.000 C 
ATOM     15 CL   UNL     1       6.229   3.854  13.855  0.00  0.00    +0.000 Cl
ENDBRANCH  13  14
ENDBRANCH  11  13
ENDBRANCH   8   9
ENDBRANCH   7   8
ENDBRANCH   6   7
ENDBRANCH   5   6
ENDBRANCH   4   5
ENDBRANCH   3   4
ENDBRANCH   2   3
ENDBRANCH   1   2
BRANCH   1  16
ATOM     16  C   UNL     1       6.562   5.311  19.019  0.00  0.00    +0.000 C 
BRANCH  16  17
ATOM     17  C   UNL     1       7.478   5.981  17.999  0.00  0.00    +0.000 C 
BRANCH  17  18
ATOM     18  C   UNL     1       8.193   7.225  18.530  0.00  0.00    +0.000 C 
BRANCH  18  20
ATOM     19  C   UNL     1       8.338   9.676  17.986  0.00  0.00    +0.000 C 
ATOM     20  C   UNL     1       7.906   8.443  17.692  0.00  0.00    +0.000 C 
BRANCH  19  21
ATOM     21  C   UNL     1       9.198   9.944  19.176  0.00  0.00    +0.000 C 
BRANCH  21  22
ATOM     22  C   UNL     1      10.154  11.099  18.968  0.00  0.00    +0.000 C 
BRANCH  22  23
ATOM     23  C   UNL     1       9.579  12.332  19.650  0.00  0.00    +0.000 C 
BRANCH  23  24
ATOM     24  C   UNL     1      10.143  12.469  21.050  0.00  0.00    +0.000 C 
BRANCH  24  25
ATOM     25  C   UNL     1       9.051  12.256  22.087  0.00  0.00    +0.000 C 
BRANCH  25  26
ATOM     26  C   UNL     1       8.095  13.440  22.081  0.00  0.00    +0.000 C 
BRANCH  26  28
ATOM     27  C   UNL     1       8.830  14.926  23.952  0.00  0.00    +0.000 C 
ATOM     28  C   UNL     1       8.817  14.729  22.448  0.00  0.00    +0.000 C 
ENDBRANCH  26  28
ENDBRANCH  25  26
ENDBRANCH  24  25
ENDBRANCH  23  24
ENDBRANCH  22  23
ENDBRANCH  21  22
ENDBRANCH  19  21
ENDBRANCH  18  20
ENDBRANCH  17  18
ENDBRANCH  16  17
ENDBRANCH   1  16
TORSDOF 21
ENDMDL
MODEL 5
REMARK VINA RESULT:      -5.4      2.660      4.076
REMARK  Name = 
REMARK  22 active torsions:
REMARK  status: ('A' for Active; 'I' for Inactive)
REMARK    1  A    between atoms: C_1  and  C_2
REMARK    2  A    between atoms: C_2  and  C_3
REMARK    3  A    between atoms: C_3  and  C_4
REMARK    4  A    between atoms: C_4  and  C_5
REMARK    5  A    between atoms: C_5  and  C_6
REMARK    6  A    between atoms: C_6  and  C_7
REMARK    7  A    between atoms: C_7  and  C_8
REMARK    8  A    between atoms: C_8  and  C_9
REMARK    9  A    between atoms: C_10  and  C_11
REMARK   10  A    between atoms: C_11  and  C_12
REMARK   11  A    between atoms: C_12  and  C_13
REMARK   12  A    between atoms: C_13  and  C_14
REMARK   13  A    between atoms: C_14  and  C_15
REMARK   14  A    between atoms: C_15  and  C_16
REMARK   15  A    between atoms: C_16  and  C_17
REMARK   16  A    between atoms: C_17  and  C_18
REMARK   17  A    between atoms: C_18  and  C_19
REMARK   18  A    between atoms: C_19  and  C_20
REMARK   19  A    between atoms: C_20  and  C_21
REMARK   20  A    between atoms: C_21  and  C_22
REMARK   21  A    between atoms: N_24  and  C_25
REMARK   22  A    between atoms: C_25  and  C_26
REMARK                            x       y       z     vdW  Elec       q    Type
REMARK                         _______ _______ _______ _____ _____    ______ ____
ROOT
ATOM      1  C   UNL     1       1.408   3.127  19.229  0.00  0.00    +0.000 C 
ENDROOT
BRANCH   1   2
ATOM      2  C   UNL     1       1.444   3.956  20.497  0.00  0.00    +0.000 C 
BRANCH   2   3
ATOM      3  C   UNL     1       1.051   5.388  20.169  0.00  0.00    +0.000 C 
BRANCH   3   4
ATOM      4  C   UNL     1       1.789   6.359  21.074  0.00  0.00    +0.000 C 
BRANCH   4   5
ATOM      5  C   UNL     1       1.840   7.741  20.436  0.00  0.00    +0.000 C 
BRANCH   5   6
ATOM      6  C   UNL     1       0.810   8.657  21.083  0.00  0.00    +0.000 C 
BRANCH   6   7
ATOM      7  C   UNL     1       0.249   9.639  20.061  0.00  0.00    +0.000 C 
BRANCH   7   8
ATOM      8  C   UNL     1      -0.739  10.589  20.713  0.00  0.00    +0.000 C 
BRANCH   8   9
ATOM      9  C   UNL     1      -0.055  11.870  21.136  0.00  0.00    +0.000 C 
ATOM     10  O   UNL     1      -0.050  12.258  22.301  0.00  0.00    +0.000 OA
ATOM     11  N   UNL     1       0.562  12.552  20.113  0.00  0.00    +0.000 N 
ATOM     12  H   UNL     1       0.636  12.117  19.203  0.00  0.00    +0.000 HD
BRANCH  11  13
ATOM     13  C   UNL     1       1.336  13.752  20.366  0.00  0.00    +0.000 C 
BRANCH  13  14
ATOM     14  C   UNL     1       2.735  13.712  19.757  0.00  0.00    +0.000 C 
ATOM     15 CL   UNL     1       2.724  13.032  18.105  0.00  0.00    +0.000 Cl
ENDBRANCH  13  14
ENDBRANCH  11  13
ENDBRANCH   8   9
ENDBRANCH   7   8
ENDBRANCH   6   7
ENDBRANCH   5   6
ENDBRANCH   4   5
ENDBRANCH   3   4
ENDBRANCH   2   3
ENDBRANCH   1   2
BRANCH   1  16
ATOM     16  C   UNL     1       1.856   3.934  18.018  0.00  0.00    +0.000 C 
BRANCH  16  17
ATOM     17  C   UNL     1       3.174   3.406  17.458  0.00  0.00    +0.000 C 
BRANCH  17  18
ATOM     18  C   UNL     1       4.413   4.068  18.063  0.00  0.00    +0.000 C 
BRANCH  18  20
ATOM     19  C   UNL     1       4.596   6.510  17.491  0.00  0.00    +0.000 C 
ATOM     20  C   UNL     1       4.202   5.537  18.321  0.00  0.00    +0.000 C 
BRANCH  19  21
ATOM     21  C   UNL     1       5.256   6.210  16.186  0.00  0.00    +0.000 C 
BRANCH  21  22
ATOM     22  C   UNL     1       6.733   5.907  16.326  0.00  0.00    +0.000 C 
BRANCH  22  23
ATOM     23  C   UNL     1       7.072   4.727  15.427  0.00  0.00    +0.000 C 
BRANCH  23  24
ATOM     24  C   UNL     1       6.531   4.957  14.031  0.00  0.00    +0.000 C 
BRANCH  24  25
ATOM     25  C   UNL     1       5.766   3.734  13.548  0.00  0.00    +0.000 C 
BRANCH  25  26
ATOM     26  C   UNL     1       6.337   3.258  12.220  0.00  0.00    +0.000 C 
BRANCH  26  28
ATOM     27  C   UNL     1       4.053   3.187  11.206  0.00  0.00    +0.000 C 
ATOM     28  C   UNL     1       5.327   2.405  11.464  0.00  0.00    +0.000 C 
ENDBRANCH  26  28
ENDBRANCH  25  26
ENDBRANCH  24  25
ENDBRANCH  23  24
ENDBRANCH  22  23
ENDBRANCH  21  22
ENDBRANCH  19  21
ENDBRANCH  18  20
ENDBRANCH  17  18
ENDBRANCH  16  17
ENDBRANCH   1  16
TORSDOF 21
ENDMDL
MODEL 6
REMARK VINA RESULT:      -5.3      2.560      4.072
REMARK  Name = 
REMARK  22 active torsions:
REMARK  status: ('A' for Active; 'I' for Inactive)
REMARK    1  A    between atoms: C_1  and  C_2
REMARK    2  A    between atoms: C_2  and  C_3
REMARK    3  A    between atoms: C_3  and  C_4
REMARK    4  A    between atoms: C_4  and  C_5
REMARK    5  A    between atoms: C_5  and  C_6
REMARK    6  A    between atoms: C_6  and  C_7
REMARK    7  A    between atoms: C_7  and  C_8
REMARK    8  A    between atoms: C_8  and  C_9
REMARK    9  A    between atoms: C_10  and  C_11
REMARK   10  A    between atoms: C_11  and  C_12
REMARK   11  A    between atoms: C_12  and  C_13
REMARK   12  A    between atoms: C_13  and  C_14
REMARK   13  A    between atoms: C_14  and  C_15
REMARK   14  A    between atoms: C_15  and  C_16
REMARK   15  A    between atoms: C_16  and  C_17
REMARK   16  A    between atoms: C_17  and  C_18
REMARK   17  A    between atoms: C_18  and  C_19
REMARK   18  A    between atoms: C_19  and  C_20
REMARK   19  A    between atoms: C_20  and  C_21
REMARK   20  A    between atoms: C_21  and  C_22
REMARK   21  A    between atoms: N_24  and  C_25
REMARK   22  A    between atoms: C_25  and  C_26
REMARK                            x       y       z     vdW  Elec       q    Type
REMARK                         _______ _______ _______ _____ _____    ______ ____
ROOT
ATOM      1  C   UNL     1       1.821   4.914  17.890  0.00  0.00    +0.000 C 
ENDROOT
BRANCH   1   2
ATOM      2  C   UNL     1       2.044   5.668  19.185  0.00  0.00    +0.000 C 
BRANCH   2   3
ATOM      3  C   UNL     1       2.618   7.041  18.872  0.00  0.00    +0.000 C 
BRANCH   3   4
ATOM      4  C   UNL     1       1.827   8.120  19.591  0.00  0.00    +0.000 C 
BRANCH   4   5
ATOM      5  C   UNL     1       1.427   7.646  20.981  0.00  0.00    +0.000 C 
BRANCH   5   6
ATOM      6  C   UNL     1       1.351   8.827  21.938  0.00  0.00    +0.000 C 
BRANCH   6   7
ATOM      7  C   UNL     1      -0.101   9.172  22.249  0.00  0.00    +0.000 C 
BRANCH   7   8
ATOM      8  C   UNL     1      -0.320  10.673  22.205  0.00  0.00    +0.000 C 
BRANCH   8   9
ATOM      9  C   UNL     1      -0.765  11.112  20.827  0.00  0.00    +0.000 C 
ATOM     10  O   UNL     1      -0.897  10.322  19.897  0.00  0.00    +0.000 OA
ATOM     11  N   UNL     1      -1.015  12.460  20.711  0.00  0.00    +0.000 N 
ATOM     12  H   UNL     1      -1.016  13.036  21.542  0.00  0.00    +0.000 HD
BRANCH  11  13
ATOM     13  C   UNL     1      -1.533  13.027  19.480  0.00  0.00    +0.000 C 
BRANCH  13  14
ATOM     14  C   UNL     1      -0.445  13.378  18.469  0.00  0.00    +0.000 C 
ATOM     15 CL   UNL     1       0.244  14.999  18.765  0.00  0.00    +0.000 Cl
ENDBRANCH  13  14
ENDBRANCH  11  13
ENDBRANCH   8   9
ENDBRANCH   7   8
ENDBRANCH   6   7
ENDBRANCH   5   6
ENDBRANCH   4   5
ENDBRANCH   3   4
ENDBRANCH   2   3
ENDBRANCH   1   2
BRANCH   1  16
ATOM     16  C   UNL     1       3.057   4.125  17.479  0.00  0.00    +0.000 C 
BRANCH  16  17
ATOM     17  C   UNL     1       3.552   3.240  18.619  0.00  0.00    +0.000 C 
BRANCH  17  18
ATOM     18  C   UNL     1       5.021   3.463  18.984  0.00  0.00    +0.000 C 
BRANCH  18  20
ATOM     19  C   UNL     1       6.296   5.630  19.022  0.00  0.00    +0.000 C 
ATOM     20  C   UNL     1       5.280   4.871  19.452  0.00  0.00    +0.000 C 
BRANCH  19  21
ATOM     21  C   UNL     1       7.254   5.147  17.985  0.00  0.00    +0.000 C 
BRANCH  21  22
ATOM     22  C   UNL     1       7.159   5.919  16.686  0.00  0.00    +0.000 C 
BRANCH  22  23
ATOM     23  C   UNL     1       6.057   5.303  15.836  0.00  0.00    +0.000 C 
BRANCH  23  24
ATOM     24  C   UNL     1       6.657   4.516  14.688  0.00  0.00    +0.000 C 
BRANCH  24  25
ATOM     25  C   UNL     1       5.559   3.967  13.789  0.00  0.00    +0.000 C 
BRANCH  25  26
ATOM     26  C   UNL     1       6.143   3.580  12.439  0.00  0.00    +0.000 C 
BRANCH  26  28
ATOM     27  C   UNL     1       4.088   3.210  11.064  0.00  0.00    +0.000 C 
ATOM     28  C   UNL     1       5.271   2.545  11.742  0.00  0.00    +0.000 C 
ENDBRANCH  26  28
ENDBRANCH  25  26
ENDBRANCH  24  25
ENDBRANCH  23  24
ENDBRANCH  22  23
ENDBRANCH  21  22
ENDBRANCH  19  21
ENDBRANCH  18  20
ENDBRANCH  17  18
ENDBRANCH  16  17
ENDBRANCH   1  16
TORSDOF 21
ENDMDL
MODEL 7
REMARK VINA RESULT:      -5.3      5.333      8.307
REMARK  Name = 
REMARK  22 active torsions:
REMARK  status: ('A' for Active; 'I' for Inactive)
REMARK    1  A    between atoms: C_1  and  C_2
REMARK    2  A    between atoms: C_2  and  C_3
REMARK    3  A    between atoms: C_3  and  C_4
REMARK    4  A    between atoms: C_4  and  C_5
REMARK    5  A    between atoms: C_5  and  C_6
REMARK    6  A    between atoms: C_6  and  C_7
REMARK    7  A    between atoms: C_7  and  C_8
REMARK    8  A    between atoms: C_8  and  C_9
REMARK    9  A    between atoms: C_10  and  C_11
REMARK   10  A    between atoms: C_11  and  C_12
REMARK   11  A    between atoms: C_12  and  C_13
REMARK   12  A    between atoms: C_13  and  C_14
REMARK   13  A    between atoms: C_14  and  C_15
REMARK   14  A    between atoms: C_15  and  C_16
REMARK   15  A    between atoms: C_16  and  C_17
REMARK   16  A    between atoms: C_17  and  C_18
REMARK   17  A    between atoms: C_18  and  C_19
REMARK   18  A    between atoms: C_19  and  C_20
REMARK   19  A    between atoms: C_20  and  C_21
REMARK   20  A    between atoms: C_21  and  C_22
REMARK   21  A    between atoms: N_24  and  C_25
REMARK   22  A    between atoms: C_25  and  C_26
REMARK                            x       y       z     vdW  Elec       q    Type
REMARK                         _______ _______ _______ _____ _____    ______ ____
ROOT
ATOM      1  C   UNL     1       5.327   6.346  15.980  0.00  0.00    +0.000 C 
ENDROOT
BRANCH   1   2
ATOM      2  C   UNL     1       6.096   6.169  17.274  0.00  0.00    +0.000 C 
BRANCH   2   3
ATOM      3  C   UNL     1       6.468   7.537  17.825  0.00  0.00    +0.000 C 
BRANCH   3   4
ATOM      4  C   UNL     1       7.902   7.881  17.461  0.00  0.00    +0.000 C 
BRANCH   4   5
ATOM      5  C   UNL     1       8.150   9.373  17.641  0.00  0.00    +0.000 C 
BRANCH   5   6
ATOM      6  C   UNL     1       8.939   9.624  18.917  0.00  0.00    +0.000 C 
BRANCH   6   7
ATOM      7  C   UNL     1       9.710  10.936  18.821  0.00  0.00    +0.000 C 
BRANCH   7   8
ATOM      8  C   UNL     1       9.749  11.637  20.167  0.00  0.00    +0.000 C 
BRANCH   8   9
ATOM      9  C   UNL     1       9.708  13.139  19.993  0.00  0.00    +0.000 C 
ATOM     10  O   UNL     1      10.726  13.825  19.959  0.00  0.00    +0.000 OA
ATOM     11  N   UNL     1       8.442  13.664  19.871  0.00  0.00    +0.000 N 
ATOM     12  H   UNL     1       7.654  13.038  19.775  0.00  0.00    +0.000 HD
BRANCH  11  13
ATOM     13  C   UNL     1       8.234  15.076  19.611  0.00  0.00    +0.000 C 
BRANCH  13  14
ATOM     14  C   UNL     1       8.139  15.412  18.125  0.00  0.00    +0.000 C 
ATOM     15 CL   UNL     1       9.486  16.456  17.589  0.00  0.00    +0.000 Cl
ENDBRANCH  13  14
ENDBRANCH  11  13
ENDBRANCH   8   9
ENDBRANCH   7   8
ENDBRANCH   6   7
ENDBRANCH   5   6
ENDBRANCH   4   5
ENDBRANCH   3   4
ENDBRANCH   2   3
ENDBRANCH   1   2
BRANCH   1  16
ATOM     16  C   UNL     1       5.225   5.040  15.205  0.00  0.00    +0.000 C 
BRANCH  16  17
ATOM     17  C   UNL     1       5.279   3.835  16.140  0.00  0.00    +0.000 C 
BRANCH  17  18
ATOM     18  C   UNL     1       3.932   3.480  16.772  0.00  0.00    +0.000 C 
BRANCH  18  20
ATOM     19  C   UNL     1       3.075   2.226  18.776  0.00  0.00    +0.000 C 
ATOM     20  C   UNL     1       4.095   2.698  18.049  0.00  0.00    +0.000 C 
BRANCH  19  21
ATOM     21  C   UNL     1       1.656   2.402  18.347  0.00  0.00    +0.000 C 
BRANCH  21  22
ATOM     22  C   UNL     1       1.060   3.719  18.799  0.00  0.00    +0.000 C 
BRANCH  22  23
ATOM     23  C   UNL     1       1.392   3.920  20.271  0.00  0.00    +0.000 C 
BRANCH  23  24
ATOM     24  C   UNL     1       1.807   5.356  20.523  0.00  0.00    +0.000 C 
BRANCH  24  25
ATOM     25  C   UNL     1       3.058   5.696  19.727  0.00  0.00    +0.000 C 
BRANCH  25  26
ATOM     26  C   UNL     1       2.685   6.525  18.508  0.00  0.00    +0.000 C 
BRANCH  26  28
ATOM     27  C   UNL     1       2.302   8.895  17.809  0.00  0.00    +0.000 C 
ATOM     28  C   UNL     1       2.115   7.876  18.918  0.00  0.00    +0.000 C 
ENDBRANCH  26  28
ENDBRANCH  25  26
ENDBRANCH  24  25
ENDBRANCH  23  24
ENDBRANCH  22  23
ENDBRANCH  21  22
ENDBRANCH  19  21
ENDBRANCH  18  20
ENDBRANCH  17  18
ENDBRANCH  16  17
ENDBRANCH   1  16
TORSDOF 21
ENDMDL
MODEL 8
REMARK VINA RESULT:      -5.3      4.617      8.229
REMARK  Name = 
REMARK  22 active torsions:
REMARK  status: ('A' for Active; 'I' for Inactive)
REMARK    1  A    between atoms: C_1  and  C_2
REMARK    2  A    between atoms: C_2  and  C_3
REMARK    3  A    between atoms: C_3  and  C_4
REMARK    4  A    between atoms: C_4  and  C_5
REMARK    5  A    between atoms: C_5  and  C_6
REMARK    6  A    between atoms: C_6  and  C_7
REMARK    7  A    between atoms: C_7  and  C_8
REMARK    8  A    between atoms: C_8  and  C_9
REMARK    9  A    between atoms: C_10  and  C_11
REMARK   10  A    between atoms: C_11  and  C_12
REMARK   11  A    between atoms: C_12  and  C_13
REMARK   12  A    between atoms: C_13  and  C_14
REMARK   13  A    between atoms: C_14  and  C_15
REMARK   14  A    between atoms: C_15  and  C_16
REMARK   15  A    between atoms: C_16  and  C_17
REMARK   16  A    between atoms: C_17  and  C_18
REMARK   17  A    between atoms: C_18  and  C_19
REMARK   18  A    between atoms: C_19  and  C_20
REMARK   19  A    between atoms: C_20  and  C_21
REMARK   20  A    between atoms: C_21  and  C_22
REMARK   21  A    between atoms: N_24  and  C_25
REMARK   22  A    between atoms: C_25  and  C_26
REMARK                            x       y       z     vdW  Elec       q    Type
REMARK                         _______ _______ _______ _____ _____    ______ ____
ROOT
ATOM      1  C   UNL     1       2.699   7.696  17.878  0.00  0.00    +0.000 C 
ENDROOT
BRANCH   1   2
ATOM      2  C   UNL     1       2.607   6.242  18.297  0.00  0.00    +0.000 C 
BRANCH   2   3
ATOM      3  C   UNL     1       2.840   6.139  19.796  0.00  0.00    +0.000 C 
BRANCH   3   4
ATOM      4  C   UNL     1       1.698   5.387  20.458  0.00  0.00    +0.000 C 
BRANCH   4   5
ATOM      5  C   UNL     1       2.236   4.219  21.272  0.00  0.00    +0.000 C 
BRANCH   5   6
ATOM      6  C   UNL     1       1.511   2.936  20.893  0.00  0.00    +0.000 C 
BRANCH   6   7
ATOM      7  C   UNL     1       2.117   2.330  19.633  0.00  0.00    +0.000 C 
BRANCH   7   8
ATOM      8  C   UNL     1       3.632   2.303  19.723  0.00  0.00    +0.000 C 
BRANCH   8   9
ATOM      9  C   UNL     1       4.255   2.976  18.520  0.00  0.00    +0.000 C 
ATOM     10  O   UNL     1       3.777   2.881  17.393  0.00  0.00    +0.000 OA
ATOM     11  N   UNL     1       5.390   3.703  18.798  0.00  0.00    +0.000 N 
ATOM     12  H   UNL     1       5.659   3.852  19.761  0.00  0.00    +0.000 HD
BRANCH  11  13
ATOM     13  C   UNL     1       6.057   4.479  17.770  0.00  0.00    +0.000 C 
BRANCH  13  14
ATOM     14  C   UNL     1       6.507   5.858  18.247  0.00  0.00    +0.000 C 
ATOM     15 CL   UNL     1       7.940   5.763  19.310  0.00  0.00    +0.000 Cl
ENDBRANCH  13  14
ENDBRANCH  11  13
ENDBRANCH   8   9
ENDBRANCH   7   8
ENDBRANCH   6   7
ENDBRANCH   5   6
ENDBRANCH   4   5
ENDBRANCH   3   4
ENDBRANCH   2   3
ENDBRANCH   1   2
BRANCH   1  16
ATOM     16  C   UNL     1       1.453   8.475  18.278  0.00  0.00    +0.000 C 
BRANCH  16  17
ATOM     17  C   UNL     1       1.469   9.883  17.689  0.00  0.00    +0.000 C 
BRANCH  17  18
ATOM     18  C   UNL     1       2.392  10.854  18.427  0.00  0.00    +0.000 C 
BRANCH  18  20
ATOM     19  C   UNL     1       1.776  13.288  18.276  0.00  0.00    +0.000 C 
ATOM     20  C   UNL     1       2.411  12.216  17.785  0.00  0.00    +0.000 C 
BRANCH  19  21
ATOM     21  C   UNL     1       1.014  13.230  19.558  0.00  0.00    +0.000 C 
BRANCH  21  22
ATOM     22  C   UNL     1      -0.478  13.405  19.368  0.00  0.00    +0.000 C 
BRANCH  22  23
ATOM     23  C   UNL     1      -1.125  12.028  19.327  0.00  0.00    +0.000 C 
BRANCH  23  24
ATOM     24  C   UNL     1      -1.867  11.835  18.020  0.00  0.00    +0.000 C 
BRANCH  24  25
ATOM     25  C   UNL     1      -3.253  11.261  18.274  0.00  0.00    +0.000 C 
BRANCH  25  26
ATOM     26  C   UNL     1      -3.695  10.430  17.079  0.00  0.00    +0.000 C 
BRANCH  26  28
ATOM     27  C   UNL     1      -2.946  10.219  14.703  0.00  0.00    +0.000 C 
ATOM     28  C   UNL     1      -2.522  10.129  16.157  0.00  0.00    +0.000 C 
ENDBRANCH  26  28
ENDBRANCH  25  26
ENDBRANCH  24  25
ENDBRANCH  23  24
ENDBRANCH  22  23
ENDBRANCH  21  22
ENDBRANCH  19  21
ENDBRANCH  18  20
ENDBRANCH  17  18
ENDBRANCH  16  17
ENDBRANCH   1  16
TORSDOF 21
ENDMDL
MODEL 9
REMARK VINA RESULT:      -5.3      3.979      6.935
REMARK  Name = 
REMARK  22 active torsions:
REMARK  status: ('A' for Active; 'I' for Inactive)
REMARK    1  A    between atoms: C_1  and  C_2
REMARK    2  A    between atoms: C_2  and  C_3
REMARK    3  A    between atoms: C_3  and  C_4
REMARK    4  A    between atoms: C_4  and  C_5
REMARK    5  A    between atoms: C_5  and  C_6
REMARK    6  A    between atoms: C_6  and  C_7
REMARK    7  A    between atoms: C_7  and  C_8
REMARK    8  A    between atoms: C_8  and  C_9
REMARK    9  A    between atoms: C_10  and  C_11
REMARK   10  A    between atoms: C_11  and  C_12
REMARK   11  A    between atoms: C_12  and  C_13
REMARK   12  A    between atoms: C_13  and  C_14
REMARK   13  A    between atoms: C_14  and  C_15
REMARK   14  A    between atoms: C_15  and  C_16
REMARK   15  A    between atoms: C_16  and  C_17
REMARK   16  A    between atoms: C_17  and  C_18
REMARK   17  A    between atoms: C_18  and  C_19
REMARK   18  A    between atoms: C_19  and  C_20
REMARK   19  A    between atoms: C_20  and  C_21
REMARK   20  A    between atoms: C_21  and  C_22
REMARK   21  A    between atoms: N_24  and  C_25
REMARK   22  A    between atoms: C_25  and  C_26
REMARK                            x       y       z     vdW  Elec       q    Type
REMARK                         _______ _______ _______ _____ _____    ______ ____
ROOT
ATOM      1  C   UNL     1       2.234   7.238  19.909  0.00  0.00    +0.000 C 
ENDROOT
BRANCH   1   2
ATOM      2  C   UNL     1       1.690   8.566  20.396  0.00  0.00    +0.000 C 
BRANCH   2   3
ATOM      3  C   UNL     1       0.590   8.312  21.414  0.00  0.00    +0.000 C 
BRANCH   3   4
ATOM      4  C   UNL     1       0.653   9.342  22.529  0.00  0.00    +0.000 C 
BRANCH   4   5
ATOM      5  C   UNL     1      -0.678  10.070  22.652  0.00  0.00    +0.000 C 
BRANCH   5   6
ATOM      6  C   UNL     1      -0.579  11.456  22.028  0.00  0.00    +0.000 C 
BRANCH   6   7
ATOM      7  C   UNL     1      -0.844  11.389  20.529  0.00  0.00    +0.000 C 
BRANCH   7   8
ATOM      8  C   UNL     1      -1.613  12.612  20.063  0.00  0.00    +0.000 C 
BRANCH   8   9
ATOM      9  C   UNL     1      -2.934  12.213  19.443  0.00  0.00    +0.000 C 
ATOM     10  O   UNL     1      -4.011  12.615  19.876  0.00  0.00    +0.000 OA
ATOM     11  N   UNL     1      -2.825  11.375  18.358  0.00  0.00    +0.000 N 
ATOM     12  H   UNL     1      -1.911  11.185  17.970  0.00  0.00    +0.000 HD
BRANCH  11  13
ATOM     13  C   UNL     1      -3.992  10.970  17.598  0.00  0.00    +0.000 C 
BRANCH  13  14
ATOM     14  C   UNL     1      -3.803  11.086  16.088  0.00  0.00    +0.000 C 
ATOM     15 CL   UNL     1      -2.956   9.666  15.410  0.00  0.00    +0.000 Cl
ENDBRANCH  13  14
ENDBRANCH  11  13
ENDBRANCH   8   9
ENDBRANCH   7   8
ENDBRANCH   6   7
ENDBRANCH   5   6
ENDBRANCH   4   5
ENDBRANCH   3   4
ENDBRANCH   2   3
ENDBRANCH   1   2
BRANCH   1  16
ATOM     16  C   UNL     1       1.805   6.947  18.477  0.00  0.00    +0.000 C 
BRANCH  16  17
ATOM     17  C   UNL     1       2.687   7.685  17.475  0.00  0.00    +0.000 C 
BRANCH  17  18
ATOM     18  C   UNL     1       4.184   7.435  17.664  0.00  0.00    +0.000 C 
BRANCH  18  20
ATOM     19  C   UNL     1       5.167   5.213  17.015  0.00  0.00    +0.000 C 
ATOM     20  C   UNL     1       4.719   6.429  16.679  0.00  0.00    +0.000 C 
BRANCH  19  21
ATOM     21  C   UNL     1       5.132   4.725  18.426  0.00  0.00    +0.000 C 
BRANCH  21  22
ATOM     22  C   UNL     1       4.364   3.430  18.585  0.00  0.00    +0.000 C 
BRANCH  22  23
ATOM     23  C   UNL     1       3.125   3.490  17.703  0.00  0.00    +0.000 C 
BRANCH  23  24
ATOM     24  C   UNL     1       2.372   2.177  17.764  0.00  0.00    +0.000 C 
BRANCH  24  25
ATOM     25  C   UNL     1       1.672   2.026  19.106  0.00  0.00    +0.000 C 
BRANCH  25  26
ATOM     26  C   UNL     1       0.893   3.293  19.427  0.00  0.00    +0.000 C 
BRANCH  26  28
ATOM     27  C   UNL     1       1.980   2.745  21.610  0.00  0.00    +0.000 C 
ATOM     28  C   UNL     1       1.222   3.799  20.825  0.00  0.00    +0.000 C 
ENDBRANCH  26  28
ENDBRANCH  25  26
ENDBRANCH  24  25
ENDBRANCH  23  24
ENDBRANCH  22  23
ENDBRANCH  21  22
ENDBRANCH  19  21
ENDBRANCH  18  20
ENDBRANCH  17  18
ENDBRANCH  16  17
ENDBRANCH   1  16
TORSDOF 21
ENDMDL
