MODEL 1
REMARK VINA RESULT:      -8.8      0.000      0.000
REMARK  Name = 
REMARK  4 active torsions:
REMARK  status: ('A' for Active; 'I' for Inactive)
REMARK    1  A    between atoms: C_2  and  C_3
REMARK    2  A    between atoms: C_3  and  N_4
REMARK    3  A    between atoms: N_7  and  C_8
REMARK    4  A    between atoms: C_19  and  C_20
REMARK                            x       y       z     vdW  Elec       q    Type
REMARK                         _______ _______ _______ _____ _____    ______ ____
ROOT
ATOM      1  O   UNL     1      -0.678   9.721  18.469  0.00  0.00    +0.000 OA
ATOM      2  C   UNL     1      -0.156  10.175  19.486  0.00  0.00    +0.000 C 
ATOM      3  N   UNL     1       1.051   9.759  20.023  0.00  0.00    +0.000 N 
ATOM      4  C   UNL     1       1.648   8.683  19.421  0.00  0.00    +0.000 A 
ATOM      5  N   UNL     1       1.715   7.483  19.930  0.00  0.00    +0.000 NA
ATOM      6  C   UNL     1       2.330   6.641  19.010  0.00  0.00    +0.000 A 
ATOM      7  C   UNL     1       2.909   7.293  17.938  0.00  0.00    +0.000 A 
ATOM      8  S   UNL     1       2.498   8.959  17.969  0.00  0.00    +0.000 S 
ATOM      9  H   UNL     1       1.043   9.721  21.031  0.00  0.00    +0.000 HD
ENDROOT
BRANCH   6  10
ATOM     10  C   UNL     1       2.258   5.137  19.256  0.00  0.00    +0.000 C 
ATOM     11  C   UNL     1       3.675   4.601  19.617  0.00  0.00    +0.000 C 
ATOM     12  C   UNL     1       3.645   3.081  19.853  0.00  0.00    +0.000 C 
ATOM     13  C   UNL     1       2.684   2.766  21.008  0.00  0.00    +0.000 C 
ATOM     14  C   UNL     1       1.269   3.253  20.661  0.00  0.00    +0.000 C 
ATOM     15  C   UNL     1       0.784   2.558  19.380  0.00  0.00    +0.000 C 
ATOM     16  C   UNL     1       1.740   2.872  18.219  0.00  0.00    +0.000 C 
ATOM     17  C   UNL     1       3.153   2.380  18.577  0.00  0.00    +0.000 C 
ATOM     18  C   UNL     1       1.774   4.395  17.987  0.00  0.00    +0.000 C 
ATOM     19  C   UNL     1       1.304   4.771  20.427  0.00  0.00    +0.000 C 
ENDBRANCH   6  10
BRANCH   2  20
ATOM     20  C   UNL     1      -0.853  11.279  20.293  0.00  0.00    +0.000 C 
BRANCH  20  21
ATOM     21  N   UNL     1      -0.134  11.604  21.550  0.00  0.00    +0.000 NA
ATOM     22  C   UNL     1       0.110  13.064  21.692  0.00  0.00    +0.000 C 
ATOM     23  C   UNL     1      -1.167  13.920  21.771  0.00  0.00    +0.000 C 
ATOM     24  N   UNL     1      -1.994  13.468  22.896  0.00  0.00    +0.000 N 
ATOM     25  C   UNL     1      -2.237  12.023  23.009  0.00  0.00    +0.000 C 
ATOM     26  C   UNL     1      -0.946  11.193  22.731  0.00  0.00    +0.000 C 
BRANCH  24  27
ATOM     27  C   UNL     1      -2.492  14.416  23.770  0.00  0.00    +0.000 A 
ATOM     28  C   UNL     1      -3.835  14.834  23.698  0.00  0.00    +0.000 A 
ATOM     29  C   UNL     1      -4.324  15.896  24.459  0.00  0.00    +0.000 A 
ATOM     30  C   UNL     1      -3.476  16.565  25.332  0.00  0.00    +0.000 A 
ATOM     31  C   UNL     1      -2.157  16.140  25.466  0.00  0.00    +0.000 A 
ATOM     32  C   UNL     1      -1.676  15.070  24.701  0.00  0.00    +0.000 A 
ENDBRANCH  24  27
ENDBRANCH  20  21
ENDBRANCH   2  20
TORSDOF 4
ENDMDL
MODEL 2
REMARK VINA RESULT:      -8.7      0.257      1.382
REMARK  Name = 
REMARK  4 active torsions:
REMARK  status: ('A' for Active; 'I' for Inactive)
REMARK    1  A    between atoms: C_2  and  C_3
REMARK    2  A    between atoms: C_3  and  N_4
REMARK    3  A    between atoms: N_7  and  C_8
REMARK    4  A    between atoms: C_19  and  C_20
REMARK                            x       y       z     vdW  Elec       q    Type
REMARK                         _______ _______ _______ _____ _____    ______ ____
ROOT
ATOM      1  O   UNL     1      -0.869   9.835  18.609  0.00  0.00    +0.000 OA
ATOM      2  C   UNL     1      -0.339  10.290  19.621  0.00  0.00    +0.000 C 
ATOM      3  N   UNL     1       0.897   9.912  20.119  0.00  0.00    +0.000 N 
ATOM      4  C   UNL     1       1.521   8.874  19.479  0.00  0.00    +0.000 A 
ATOM      5  N   UNL     1       1.650   7.668  19.961  0.00  0.00    +0.000 NA
ATOM      6  C   UNL     1       2.274   6.871  19.008  0.00  0.00    +0.000 A 
ATOM      7  C   UNL     1       2.799   7.568  17.936  0.00  0.00    +0.000 A 
ATOM      8  S   UNL     1       2.321   9.214  18.013  0.00  0.00    +0.000 S 
ATOM      9  H   UNL     1       0.917   9.854  21.126  0.00  0.00    +0.000 HD
ENDROOT
BRANCH   6  10
ATOM     10  C   UNL     1       2.270   5.361  19.223  0.00  0.00    +0.000 C 
ATOM     11  C   UNL     1       1.302   5.004  20.389  0.00  0.00    +0.000 C 
ATOM     12  C   UNL     1       1.286   3.487  20.648  0.00  0.00    +0.000 C 
ATOM     13  C   UNL     1       0.824   2.761  19.377  0.00  0.00    +0.000 C 
ATOM     14  C   UNL     1       1.784   3.068  18.218  0.00  0.00    +0.000 C 
ATOM     15  C   UNL     1       3.202   2.610  18.588  0.00  0.00    +0.000 C 
ATOM     16  C   UNL     1       3.673   3.336  19.858  0.00  0.00    +0.000 C 
ATOM     17  C   UNL     1       2.705   3.021  21.011  0.00  0.00    +0.000 C 
ATOM     18  C   UNL     1       3.683   4.855  19.600  0.00  0.00    +0.000 C 
ATOM     19  C   UNL     1       1.795   4.583  17.963  0.00  0.00    +0.000 C 
ENDBRANCH   6  10
BRANCH   2  20
ATOM     20  C   UNL     1      -1.060  11.347  20.469  0.00  0.00    +0.000 C 
BRANCH  20  21
ATOM     21  N   UNL     1      -0.324  11.673  21.716  0.00  0.00    +0.000 NA
ATOM     22  C   UNL     1      -0.010  13.122  21.817  0.00  0.00    +0.000 C 
ATOM     23  C   UNL     1      -1.244  14.041  21.872  0.00  0.00    +0.000 C 
ATOM     24  N   UNL     1      -2.090  13.662  23.009  0.00  0.00    +0.000 N 
ATOM     25  C   UNL     1      -2.402  12.233  23.163  0.00  0.00    +0.000 C 
ATOM     26  C   UNL     1      -1.154  11.335  22.908  0.00  0.00    +0.000 C 
BRANCH  24  27
ATOM     27  C   UNL     1      -2.541  14.657  23.856  0.00  0.00    +0.000 A 
ATOM     28  C   UNL     1      -3.883  15.081  23.826  0.00  0.00    +0.000 A 
ATOM     29  C   UNL     1      -4.330  16.184  24.554  0.00  0.00    +0.000 A 
ATOM     30  C   UNL     1      -3.437  16.891  25.349  0.00  0.00    +0.000 A 
ATOM     31  C   UNL     1      -2.116  16.463  25.443  0.00  0.00    +0.000 A 
ATOM     32  C   UNL     1      -1.678  15.351  24.712  0.00  0.00    +0.000 A 
ENDBRANCH  24  27
ENDBRANCH  20  21
ENDBRANCH   2  20
TORSDOF 4
ENDMDL
MODEL 3
REMARK VINA RESULT:      -8.7      2.165      3.263
REMARK  Name = 
REMARK  4 active torsions:
REMARK  status: ('A' for Active; 'I' for Inactive)
REMARK    1  A    between atoms: C_2  and  C_3
REMARK    2  A    between atoms: C_3  and  N_4
REMARK    3  A    between atoms: N_7  and  C_8
REMARK    4  A    between atoms: C_19  and  C_20
REMARK                            x       y       z     vdW  Elec       q    Type
REMARK                         _______ _______ _______ _____ _____    ______ ____
ROOT
ATOM      1  O   UNL     1      -0.840   9.784  19.305  0.00  0.00    +0.000 OA
ATOM      2  C   UNL     1      -0.145  10.196  20.231  0.00  0.00    +0.000 C 
ATOM      3  N   UNL     1       1.145   9.777  20.515  0.00  0.00    +0.000 N 
ATOM      4  C   UNL     1       1.632   8.747  19.755  0.00  0.00    +0.000 A 
ATOM      5  N   UNL     1       1.805   7.523  20.177  0.00  0.00    +0.000 NA
ATOM      6  C   UNL     1       2.248   6.743  19.115  0.00  0.00    +0.000 A 
ATOM      7  C   UNL     1       2.613   7.462  17.992  0.00  0.00    +0.000 A 
ATOM      8  S   UNL     1       2.197   9.115  18.190  0.00  0.00    +0.000 S 
ATOM      9  H   UNL     1       1.323   9.686  21.503  0.00  0.00    +0.000 HD
ENDROOT
BRANCH   6  10
ATOM     10  C   UNL     1       2.239   5.227  19.286  0.00  0.00    +0.000 C 
ATOM     11  C   UNL     1       1.276   4.841  20.447  0.00  0.00    +0.000 C 
ATOM     12  C   UNL     1       1.256   3.317  20.662  0.00  0.00    +0.000 C 
ATOM     13  C   UNL     1       0.783   2.630  19.373  0.00  0.00    +0.000 C 
ATOM     14  C   UNL     1       1.738   2.966  18.218  0.00  0.00    +0.000 C 
ATOM     15  C   UNL     1       3.157   2.493  18.567  0.00  0.00    +0.000 C 
ATOM     16  C   UNL     1       3.638   3.180  19.855  0.00  0.00    +0.000 C 
ATOM     17  C   UNL     1       2.675   2.835  21.004  0.00  0.00    +0.000 C 
ATOM     18  C   UNL     1       3.652   4.706  19.641  0.00  0.00    +0.000 C 
ATOM     19  C   UNL     1       1.754   4.488  18.007  0.00  0.00    +0.000 C 
ENDBRANCH   6  10
BRANCH   2  20
ATOM     20  C   UNL     1      -0.694  11.241  21.213  0.00  0.00    +0.000 C 
BRANCH  20  21
ATOM     21  N   UNL     1       0.289  12.312  21.510  0.00  0.00    +0.000 NA
ATOM     22  C   UNL     1       0.837  12.927  20.273  0.00  0.00    +0.000 C 
ATOM     23  C   UNL     1      -0.211  13.629  19.391  0.00  0.00    +0.000 C 
ATOM     24  N   UNL     1      -0.895  14.667  20.170  0.00  0.00    +0.000 N 
ATOM     25  C   UNL     1      -1.393  14.286  21.500  0.00  0.00    +0.000 C 
ATOM     26  C   UNL     1      -0.363  13.412  22.277  0.00  0.00    +0.000 C 
BRANCH  24  27
ATOM     27  C   UNL     1      -1.032  15.926  19.615  0.00  0.00    +0.000 A 
ATOM     28  C   UNL     1      -1.981  16.839  20.114  0.00  0.00    +0.000 A 
ATOM     29  C   UNL     1      -2.250  18.052  19.480  0.00  0.00    +0.000 A 
ATOM     30  C   UNL     1      -1.558  18.392  18.324  0.00  0.00    +0.000 A 
ATOM     31  C   UNL     1      -0.575  17.536  17.837  0.00  0.00    +0.000 A 
ATOM     32  C   UNL     1      -0.309  16.322  18.484  0.00  0.00    +0.000 A 
ENDBRANCH  24  27
ENDBRANCH  20  21
ENDBRANCH   2  20
TORSDOF 4
ENDMDL
MODEL 4
REMARK VINA RESULT:      -8.7      2.158      2.949
REMARK  Name = 
REMARK  4 active torsions:
REMARK  status: ('A' for Active; 'I' for Inactive)
REMARK    1  A    between atoms: C_2  and  C_3
REMARK    2  A    between atoms: C_3  and  N_4
REMARK    3  A    between atoms: N_7  and  C_8
REMARK    4  A    between atoms: C_19  and  C_20
REMARK                            x       y       z     vdW  Elec       q    Type
REMARK                         _______ _______ _______ _____ _____    ______ ____
ROOT
ATOM      1  O   UNL     1      -0.872   9.778  19.335  0.00  0.00    +0.000 OA
ATOM      2  C   UNL     1      -0.175  10.191  20.260  0.00  0.00    +0.000 C 
ATOM      3  N   UNL     1       1.114   9.771  20.543  0.00  0.00    +0.000 N 
ATOM      4  C   UNL     1       1.599   8.738  19.786  0.00  0.00    +0.000 A 
ATOM      5  N   UNL     1       1.771   7.515  20.211  0.00  0.00    +0.000 NA
ATOM      6  C   UNL     1       2.212   6.732  19.151  0.00  0.00    +0.000 A 
ATOM      7  C   UNL     1       2.578   7.448  18.026  0.00  0.00    +0.000 A 
ATOM      8  S   UNL     1       2.163   9.102  18.219  0.00  0.00    +0.000 S 
ATOM      9  H   UNL     1       1.293   9.683  21.532  0.00  0.00    +0.000 HD
ENDROOT
BRANCH   6  10
ATOM     10  C   UNL     1       2.202   5.217  19.326  0.00  0.00    +0.000 C 
ATOM     11  C   UNL     1       3.640   4.722  19.660  0.00  0.00    +0.000 C 
ATOM     12  C   UNL     1       3.672   3.192  19.826  0.00  0.00    +0.000 C 
ATOM     13  C   UNL     1       2.728   2.786  20.966  0.00  0.00    +0.000 C 
ATOM     14  C   UNL     1       1.293   3.231  20.644  0.00  0.00    +0.000 C 
ATOM     15  C   UNL     1       0.833   2.578  19.332  0.00  0.00    +0.000 C 
ATOM     16  C   UNL     1       1.772   2.984  18.185  0.00  0.00    +0.000 C 
ATOM     17  C   UNL     1       3.204   2.532  18.519  0.00  0.00    +0.000 C 
ATOM     18  C   UNL     1       1.744   4.516  18.025  0.00  0.00    +0.000 C 
ATOM     19  C   UNL     1       1.267   4.759  20.481  0.00  0.00    +0.000 C 
ENDBRANCH   6  10
BRANCH   2  20
ATOM     20  C   UNL     1      -0.722  11.239  21.239  0.00  0.00    +0.000 C 
BRANCH  20  21
ATOM     21  N   UNL     1       0.260  12.314  21.528  0.00  0.00    +0.000 NA
ATOM     22  C   UNL     1       0.796  12.929  20.285  0.00  0.00    +0.000 C 
ATOM     23  C   UNL     1      -0.261  13.627  19.411  0.00  0.00    +0.000 C 
ATOM     24  N   UNL     1      -0.942  14.664  20.195  0.00  0.00    +0.000 N 
ATOM     25  C   UNL     1      -1.428  14.282  21.529  0.00  0.00    +0.000 C 
ATOM     26  C   UNL     1      -0.389  13.412  22.299  0.00  0.00    +0.000 C 
BRANCH  24  27
ATOM     27  C   UNL     1      -1.087  15.922  19.640  0.00  0.00    +0.000 A 
ATOM     28  C   UNL     1      -2.065  16.816  20.116  0.00  0.00    +0.000 A 
ATOM     29  C   UNL     1      -2.339  18.026  19.478  0.00  0.00    +0.000 A 
ATOM     30  C   UNL     1      -1.624  18.382  18.342  0.00  0.00    +0.000 A 
ATOM     31  C   UNL     1      -0.613  17.545  17.878  0.00  0.00    +0.000 A 
ATOM     32  C   UNL     1      -0.342  16.334  18.528  0.00  0.00    +0.000 A 
ENDBRANCH  24  27
ENDBRANCH  20  21
ENDBRANCH   2  20
TORSDOF 4
ENDMDL
MODEL 5
REMARK VINA RESULT:      -8.6      0.905      1.856
REMARK  Name = 
REMARK  4 active torsions:
REMARK  status: ('A' for Active; 'I' for Inactive)
REMARK    1  A    between atoms: C_2  and  C_3
REMARK    2  A    between atoms: C_3  and  N_4
REMARK    3  A    between atoms: N_7  and  C_8
REMARK    4  A    between atoms: C_19  and  C_20
REMARK                            x       y       z     vdW  Elec       q    Type
REMARK                         _______ _______ _______ _____ _____    ______ ____
ROOT
ATOM      1  O   UNL     1      -0.984   9.816  19.745  0.00  0.00    +0.000 OA
ATOM      2  C   UNL     1      -0.203  10.229  20.600  0.00  0.00    +0.000 C 
ATOM      3  N   UNL     1       1.121   9.841  20.732  0.00  0.00    +0.000 N 
ATOM      4  C   UNL     1       1.548   8.839  19.902  0.00  0.00    +0.000 A 
ATOM      5  N   UNL     1       1.797   7.613  20.274  0.00  0.00    +0.000 NA
ATOM      6  C   UNL     1       2.142   6.867  19.153  0.00  0.00    +0.000 A 
ATOM      7  C   UNL     1       2.364   7.618  18.014  0.00  0.00    +0.000 A 
ATOM      8  S   UNL     1       1.929   9.254  18.292  0.00  0.00    +0.000 S 
ATOM      9  H   UNL     1       1.408   9.736  21.693  0.00  0.00    +0.000 HD
ENDROOT
BRANCH   6  10
ATOM     10  C   UNL     1       2.190   5.348  19.290  0.00  0.00    +0.000 C 
ATOM     11  C   UNL     1       1.200   4.895  20.403  0.00  0.00    +0.000 C 
ATOM     12  C   UNL     1       1.236   3.367  20.583  0.00  0.00    +0.000 C 
ATOM     13  C   UNL     1       0.843   2.692  19.261  0.00  0.00    +0.000 C 
ATOM     14  C   UNL     1       1.827   3.095  18.153  0.00  0.00    +0.000 C 
ATOM     15  C   UNL     1       3.250   2.672  18.547  0.00  0.00    +0.000 C 
ATOM     16  C   UNL     1       3.651   3.348  19.868  0.00  0.00    +0.000 C 
ATOM     17  C   UNL     1       2.660   2.936  20.970  0.00  0.00    +0.000 C 
ATOM     18  C   UNL     1       3.609   4.877  19.689  0.00  0.00    +0.000 C 
ATOM     19  C   UNL     1       1.786   4.621  17.977  0.00  0.00    +0.000 C 
ENDBRANCH   6  10
BRANCH   2  20
ATOM     20  C   UNL     1      -0.668  11.239  21.658  0.00  0.00    +0.000 C 
BRANCH  20  21
ATOM     21  N   UNL     1      -0.854  12.601  21.101  0.00  0.00    +0.000 NA
ATOM     22  C   UNL     1      -2.284  12.904  20.829  0.00  0.00    +0.000 C 
ATOM     23  C   UNL     1      -3.186  12.894  22.076  0.00  0.00    +0.000 C 
ATOM     24  N   UNL     1      -2.679  13.859  23.059  0.00  0.00    +0.000 N 
ATOM     25  C   UNL     1      -1.241  13.810  23.362  0.00  0.00    +0.000 C 
ATOM     26  C   UNL     1      -0.382  13.627  22.075  0.00  0.00    +0.000 C 
BRANCH  24  27
ATOM     27  C   UNL     1      -3.571  14.743  23.636  0.00  0.00    +0.000 A 
ATOM     28  C   UNL     1      -4.895  14.846  23.169  0.00  0.00    +0.000 A 
ATOM     29  C   UNL     1      -5.769  15.834  23.623  0.00  0.00    +0.000 A 
ATOM     30  C   UNL     1      -5.339  16.746  24.578  0.00  0.00    +0.000 A 
ATOM     31  C   UNL     1      -4.053  16.637  25.100  0.00  0.00    +0.000 A 
ATOM     32  C   UNL     1      -3.184  15.639  24.640  0.00  0.00    +0.000 A 
ENDBRANCH  24  27
ENDBRANCH  20  21
ENDBRANCH   2  20
TORSDOF 4
ENDMDL
MODEL 6
REMARK VINA RESULT:      -8.6      0.194      1.617
REMARK  Name = 
REMARK  4 active torsions:
REMARK  status: ('A' for Active; 'I' for Inactive)
REMARK    1  A    between atoms: C_2  and  C_3
REMARK    2  A    between atoms: C_3  and  N_4
REMARK    3  A    between atoms: N_7  and  C_8
REMARK    4  A    between atoms: C_19  and  C_20
REMARK                            x       y       z     vdW  Elec       q    Type
REMARK                         _______ _______ _______ _____ _____    ______ ____
ROOT
ATOM      1  O   UNL     1      -0.658   9.655  18.413  0.00  0.00    +0.000 OA
ATOM      2  C   UNL     1      -0.139  10.132  19.420  0.00  0.00    +0.000 C 
ATOM      3  N   UNL     1       1.073   9.738  19.963  0.00  0.00    +0.000 N 
ATOM      4  C   UNL     1       1.679   8.658  19.379  0.00  0.00    +0.000 A 
ATOM      5  N   UNL     1       1.760   7.467  19.910  0.00  0.00    +0.000 NA
ATOM      6  C   UNL     1       2.382   6.616  19.004  0.00  0.00    +0.000 A 
ATOM      7  C   UNL     1       2.953   7.255  17.919  0.00  0.00    +0.000 A 
ATOM      8  S   UNL     1       2.525   8.917  17.921  0.00  0.00    +0.000 S 
ATOM      9  H   UNL     1       1.066   9.717  20.972  0.00  0.00    +0.000 HD
ENDROOT
BRANCH   6  10
ATOM     10  C   UNL     1       2.326   5.116  19.276  0.00  0.00    +0.000 C 
ATOM     11  C   UNL     1       1.782   4.379  18.016  0.00  0.00    +0.000 C 
ATOM     12  C   UNL     1       1.695   2.862  18.260  0.00  0.00    +0.000 C 
ATOM     13  C   UNL     1       3.092   2.320  18.590  0.00  0.00    +0.000 C 
ATOM     14  C   UNL     1       3.637   3.006  19.852  0.00  0.00    +0.000 C 
ATOM     15  C   UNL     1       2.690   2.745  21.031  0.00  0.00    +0.000 C 
ATOM     16  C   UNL     1       1.289   3.289  20.709  0.00  0.00    +0.000 C 
ATOM     17  C   UNL     1       0.753   2.594  19.446  0.00  0.00    +0.000 C 
ATOM     18  C   UNL     1       1.379   4.806  20.459  0.00  0.00    +0.000 C 
ATOM     19  C   UNL     1       3.724   4.519  19.602  0.00  0.00    +0.000 C 
ENDBRANCH   6  10
BRANCH   2  20
ATOM     20  C   UNL     1      -0.847  11.242  20.210  0.00  0.00    +0.000 C 
BRANCH  20  21
ATOM     21  N   UNL     1      -0.099  11.639  21.428  0.00  0.00    +0.000 NA
ATOM     22  C   UNL     1       0.171  13.101  21.467  0.00  0.00    +0.000 C 
ATOM     23  C   UNL     1      -1.091  13.982  21.512  0.00  0.00    +0.000 C 
ATOM     24  N   UNL     1      -1.903  13.620  22.679  0.00  0.00    +0.000 N 
ATOM     25  C   UNL     1      -2.166  12.190  22.895  0.00  0.00    +0.000 C 
ATOM     26  C   UNL     1      -0.894  11.322  22.649  0.00  0.00    +0.000 C 
BRANCH  24  27
ATOM     27  C   UNL     1      -2.369  14.633  23.497  0.00  0.00    +0.000 A 
ATOM     28  C   UNL     1      -1.654  15.024  24.645  0.00  0.00    +0.000 A 
ATOM     29  C   UNL     1      -2.174  15.929  25.571  0.00  0.00    +0.000 A 
ATOM     30  C   UNL     1      -3.430  16.482  25.362  0.00  0.00    +0.000 A 
ATOM     31  C   UNL     1      -4.139  16.157  24.209  0.00  0.00    +0.000 A 
ATOM     32  C   UNL     1      -3.607  15.250  23.283  0.00  0.00    +0.000 A 
ENDBRANCH  24  27
ENDBRANCH  20  21
ENDBRANCH   2  20
TORSDOF 4
ENDMDL
MODEL 7
REMARK VINA RESULT:      -8.6      0.917      1.263
REMARK  Name = 
REMARK  4 active torsions:
REMARK  status: ('A' for Active; 'I' for Inactive)
REMARK    1  A    between atoms: C_2  and  C_3
REMARK    2  A    between atoms: C_3  and  N_4
REMARK    3  A    between atoms: N_7  and  C_8
REMARK    4  A    between atoms: C_19  and  C_20
REMARK                            x       y       z     vdW  Elec       q    Type
REMARK                         _______ _______ _______ _____ _____    ______ ____
ROOT
ATOM      1  O   UNL     1      -0.960   9.728  19.708  0.00  0.00    +0.000 OA
ATOM      2  C   UNL     1      -0.217  10.119  20.606  0.00  0.00    +0.000 C 
ATOM      3  N   UNL     1       1.098   9.724  20.789  0.00  0.00    +0.000 N 
ATOM      4  C   UNL     1       1.560   8.740  19.956  0.00  0.00    +0.000 A 
ATOM      5  N   UNL     1       1.790   7.505  20.312  0.00  0.00    +0.000 NA
ATOM      6  C   UNL     1       2.183   6.783  19.192  0.00  0.00    +0.000 A 
ATOM      7  C   UNL     1       2.458   7.558  18.080  0.00  0.00    +0.000 A 
ATOM      8  S   UNL     1       2.015   9.189  18.375  0.00  0.00    +0.000 S 
ATOM      9  H   UNL     1       1.342   9.597  21.759  0.00  0.00    +0.000 HD
ENDROOT
BRANCH   6  10
ATOM     10  C   UNL     1       2.222   5.261  19.297  0.00  0.00    +0.000 C 
ATOM     11  C   UNL     1       3.668   4.801  19.645  0.00  0.00    +0.000 C 
ATOM     12  C   UNL     1       3.750   3.267  19.741  0.00  0.00    +0.000 C 
ATOM     13  C   UNL     1       2.794   2.776  20.837  0.00  0.00    +0.000 C 
ATOM     14  C   UNL     1       1.353   3.186  20.499  0.00  0.00    +0.000 C 
ATOM     15  C   UNL     1       0.948   2.580  19.148  0.00  0.00    +0.000 C 
ATOM     16  C   UNL     1       1.899   3.070  18.045  0.00  0.00    +0.000 C 
ATOM     17  C   UNL     1       3.338   2.653  18.394  0.00  0.00    +0.000 C 
ATOM     18  C   UNL     1       1.821   4.606  17.954  0.00  0.00    +0.000 C 
ATOM     19  C   UNL     1       1.277   4.718  20.405  0.00  0.00    +0.000 C 
ENDBRANCH   6  10
BRANCH   2  20
ATOM     20  C   UNL     1      -0.727  11.107  21.664  0.00  0.00    +0.000 C 
BRANCH  20  21
ATOM     21  N   UNL     1      -0.827  12.494  21.145  0.00  0.00    +0.000 NA
ATOM     22  C   UNL     1      -2.225  12.862  20.800  0.00  0.00    +0.000 C 
ATOM     23  C   UNL     1      -3.202  12.847  21.989  0.00  0.00    +0.000 C 
ATOM     24  N   UNL     1      -2.720  13.756  23.035  0.00  0.00    +0.000 N 
ATOM     25  C   UNL     1      -1.306  13.641  23.422  0.00  0.00    +0.000 C 
ATOM     26  C   UNL     1      -0.377  13.467  22.182  0.00  0.00    +0.000 C 
BRANCH  24  27
ATOM     27  C   UNL     1      -3.612  14.656  23.589  0.00  0.00    +0.000 A 
ATOM     28  C   UNL     1      -5.001  14.444  23.505  0.00  0.00    +0.000 A 
ATOM     29  C   UNL     1      -5.925  15.406  23.914  0.00  0.00    +0.000 A 
ATOM     30  C   UNL     1      -5.477  16.612  24.436  0.00  0.00    +0.000 A 
ATOM     31  C   UNL     1      -4.110  16.830  24.582  0.00  0.00    +0.000 A 
ATOM     32  C   UNL     1      -3.190  15.856  24.173  0.00  0.00    +0.000 A 
ENDBRANCH  24  27
ENDBRANCH  20  21
ENDBRANCH   2  20
TORSDOF 4
ENDMDL
MODEL 8
REMARK VINA RESULT:      -8.6      2.535      3.891
REMARK  Name = 
REMARK  4 active torsions:
REMARK  status: ('A' for Active; 'I' for Inactive)
REMARK    1  A    between atoms: C_2  and  C_3
REMARK    2  A    between atoms: C_3  and  N_4
REMARK    3  A    between atoms: N_7  and  C_8
REMARK    4  A    between atoms: C_19  and  C_20
REMARK                            x       y       z     vdW  Elec       q    Type
REMARK                         _______ _______ _______ _____ _____    ______ ____
ROOT
ATOM      1  O   UNL     1      -0.861   9.712  18.817  0.00  0.00    +0.000 OA
ATOM      2  C   UNL     1      -0.227  10.203  19.749  0.00  0.00    +0.000 C 
ATOM      3  N   UNL     1       1.047   9.825  20.141  0.00  0.00    +0.000 N 
ATOM      4  C   UNL     1       1.589   8.747  19.493  0.00  0.00    +0.000 A 
ATOM      5  N   UNL     1       1.748   7.562  20.018  0.00  0.00    +0.000 NA
ATOM      6  C   UNL     1       2.263   6.710  19.047  0.00  0.00    +0.000 A 
ATOM      7  C   UNL     1       2.688   7.346  17.896  0.00  0.00    +0.000 A 
ATOM      8  S   UNL     1       2.245   9.003  17.940  0.00  0.00    +0.000 S 
ATOM      9  H   UNL     1       1.166   9.813  21.142  0.00  0.00    +0.000 HD
ENDROOT
BRANCH   6  10
ATOM     10  C   UNL     1       2.258   5.211  19.334  0.00  0.00    +0.000 C 
ATOM     11  C   UNL     1       1.773   4.442  18.070  0.00  0.00    +0.000 C 
ATOM     12  C   UNL     1       1.737   2.925  18.329  0.00  0.00    +0.000 C 
ATOM     13  C   UNL     1       3.146   2.440  18.697  0.00  0.00    +0.000 C 
ATOM     14  C   UNL     1       3.634   3.159  19.964  0.00  0.00    +0.000 C 
ATOM     15  C   UNL     1       2.669   2.873  21.123  0.00  0.00    +0.000 C 
ATOM     16  C   UNL     1       1.256   3.360  20.763  0.00  0.00    +0.000 C 
ATOM     17  C   UNL     1       0.778   2.633  19.494  0.00  0.00    +0.000 C 
ATOM     18  C   UNL     1       1.295   4.877  20.498  0.00  0.00    +0.000 C 
ATOM     19  C   UNL     1       3.669   4.672  19.699  0.00  0.00    +0.000 C 
ENDBRANCH   6  10
BRANCH   2  20
ATOM     20  C   UNL     1      -0.844  11.312  20.612  0.00  0.00    +0.000 C 
BRANCH  20  21
ATOM     21  N   UNL     1      -1.807  12.151  19.856  0.00  0.00    +0.000 NA
ATOM     22  C   UNL     1      -2.011  13.479  20.493  0.00  0.00    +0.000 C 
ATOM     23  C   UNL     1      -0.746  14.353  20.567  0.00  0.00    +0.000 C 
ATOM     24  N   UNL     1      -0.207  14.555  19.218  0.00  0.00    +0.000 N 
ATOM     25  C   UNL     1      -0.059  13.362  18.371  0.00  0.00    +0.000 C 
ATOM     26  C   UNL     1      -1.292  12.415  18.482  0.00  0.00    +0.000 C 
BRANCH  24  27
ATOM     27  C   UNL     1       0.129  15.838  18.827  0.00  0.00    +0.000 A 
ATOM     28  C   UNL     1      -0.865  16.806  18.589  0.00  0.00    +0.000 A 
ATOM     29  C   UNL     1      -0.569  18.057  18.045  0.00  0.00    +0.000 A 
ATOM     30  C   UNL     1       0.746  18.378  17.735  0.00  0.00    +0.000 A 
ATOM     31  C   UNL     1       1.758  17.463  18.009  0.00  0.00    +0.000 A 
ATOM     32  C   UNL     1       1.451  16.212  18.559  0.00  0.00    +0.000 A 
ENDBRANCH  24  27
ENDBRANCH  20  21
ENDBRANCH   2  20
TORSDOF 4
ENDMDL
MODEL 9
REMARK VINA RESULT:      -8.5      2.171      3.276
REMARK  Name = 
REMARK  4 active torsions:
REMARK  status: ('A' for Active; 'I' for Inactive)
REMARK    1  A    between atoms: C_2  and  C_3
REMARK    2  A    between atoms: C_3  and  N_4
REMARK    3  A    between atoms: N_7  and  C_8
REMARK    4  A    between atoms: C_19  and  C_20
REMARK                            x       y       z     vdW  Elec       q    Type
REMARK                         _______ _______ _______ _____ _____    ______ ____
ROOT
ATOM      1  O   UNL     1      -0.872   9.780  19.349  0.00  0.00    +0.000 OA
ATOM      2  C   UNL     1      -0.149  10.218  20.241  0.00  0.00    +0.000 C 
ATOM      3  N   UNL     1       1.153   9.815  20.491  0.00  0.00    +0.000 N 
ATOM      4  C   UNL     1       1.622   8.771  19.739  0.00  0.00    +0.000 A 
ATOM      5  N   UNL     1       1.819   7.559  20.182  0.00  0.00    +0.000 NA
ATOM      6  C   UNL     1       2.233   6.759  19.124  0.00  0.00    +0.000 A 
ATOM      7  C   UNL     1       2.555   7.454  17.973  0.00  0.00    +0.000 A 
ATOM      8  S   UNL     1       2.132   9.108  18.147  0.00  0.00    +0.000 S 
ATOM      9  H   UNL     1       1.365   9.749  21.474  0.00  0.00    +0.000 HD
ENDROOT
BRANCH   6  10
ATOM     10  C   UNL     1       2.242   5.247  19.330  0.00  0.00    +0.000 C 
ATOM     11  C   UNL     1       1.752   4.542  18.030  0.00  0.00    +0.000 C 
ATOM     12  C   UNL     1       1.730   3.013  18.208  0.00  0.00    +0.000 C 
ATOM     13  C   UNL     1       3.146   2.521  18.538  0.00  0.00    +0.000 C 
ATOM     14  C   UNL     1       3.640   3.175  19.837  0.00  0.00    +0.000 C 
ATOM     15  C   UNL     1       2.687   2.820  20.987  0.00  0.00    +0.000 C 
ATOM     16  C   UNL     1       1.268   3.313  20.665  0.00  0.00    +0.000 C 
ATOM     17  C   UNL     1       0.784   2.652  19.364  0.00  0.00    +0.000 C 
ATOM     18  C   UNL     1       1.292   4.843  20.482  0.00  0.00    +0.000 C 
ATOM     19  C   UNL     1       3.661   4.700  19.654  0.00  0.00    +0.000 C 
ENDBRANCH   6  10
BRANCH   2  20
ATOM     20  C   UNL     1      -0.673  11.281  21.217  0.00  0.00    +0.000 C 
BRANCH  20  21
ATOM     21  N   UNL     1       0.315  12.360  21.466  0.00  0.00    +0.000 NA
ATOM     22  C   UNL     1       0.803  12.974  20.202  0.00  0.00    +0.000 C 
ATOM     23  C   UNL     1      -0.288  13.665  19.365  0.00  0.00    +0.000 C 
ATOM     24  N   UNL     1      -0.944  14.702  20.170  0.00  0.00    +0.000 N 
ATOM     25  C   UNL     1      -1.379  14.323  21.523  0.00  0.00    +0.000 C 
ATOM     26  C   UNL     1      -0.309  13.459  22.257  0.00  0.00    +0.000 C 
BRANCH  24  27
ATOM     27  C   UNL     1      -1.113  15.958  19.617  0.00  0.00    +0.000 A 
ATOM     28  C   UNL     1      -0.413  16.339  18.457  0.00  0.00    +0.000 A 
ATOM     29  C   UNL     1      -0.443  17.644  17.966  0.00  0.00    +0.000 A 
ATOM     30  C   UNL     1      -1.193  18.609  18.625  0.00  0.00    +0.000 A 
ATOM     31  C   UNL     1      -1.940  18.251  19.743  0.00  0.00    +0.000 A 
ATOM     32  C   UNL     1      -1.907  16.937  20.226  0.00  0.00    +0.000 A 
ENDBRANCH  24  27
ENDBRANCH  20  21
ENDBRANCH   2  20
TORSDOF 4
ENDMDL
