MODEL 1
REMARK VINA RESULT:      -8.0      0.000      0.000
REMARK  Name = 
REMARK  5 active torsions:
REMARK  status: ('A' for Active; 'I' for Inactive)
REMARK    1  A    between atoms: C_1  and  C_2
REMARK    2  A    between atoms: C_3  and  C_4
REMARK    3  A    between atoms: C_6  and  S_7
REMARK    4  A    between atoms: S_7  and  C_8
REMARK    5  A    between atoms: C_8  and  C_9
REMARK                            x       y       z     vdW  Elec       q    Type
REMARK                         _______ _______ _______ _____ _____    ______ ____
ROOT
ATOM      1  C   UNL     1       5.296   4.023  13.874  0.00  0.00    +0.000 C 
ATOM      2  C   UNL     1       5.719   4.356  15.280  0.00  0.00    +0.000 A 
ATOM      3  C   UNL     1       4.996   4.192  16.421  0.00  0.00    +0.000 A 
ATOM      4  C   UNL     1       3.610   3.607  16.432  0.00  0.00    +0.000 C 
ATOM      5  N   UNL     1       5.573   4.592  17.649  0.00  0.00    +0.000 N 
ATOM      6  C   UNL     1       5.173   4.615  18.978  0.00  0.00    +0.000 A 
ATOM      7  N   UNL     1       6.123   5.112  19.739  0.00  0.00    +0.000 NA
ATOM      8  N   UNL     1       7.189   5.425  18.935  0.00  0.00    +0.000 NA
ATOM      9  C   UNL     1       6.851   5.121  17.706  0.00  0.00    +0.000 A 
ATOM     10  N   UNL     1       7.603   5.275  16.577  0.00  0.00    +0.000 N 
ATOM     11  C   UNL     1       7.115   4.936  15.349  0.00  0.00    +0.000 A 
ATOM     12  O   UNL     1       7.792   5.093  14.335  0.00  0.00    +0.000 OA
ATOM     13  H   UNL     1       8.536   5.658  16.649  0.00  0.00    +0.000 HD
ENDROOT
BRANCH   6  14
ATOM     14  S   UNL     1       3.668   4.031  19.598  0.00  0.00    +0.000 S 
BRANCH  14  15
ATOM     15  C   UNL     1       2.490   5.215  18.886  0.00  0.00    +0.000 C 
BRANCH  15  16
ATOM     16  C   UNL     1       1.987   6.208  19.931  0.00  0.00    +0.000 C 
ATOM     17  O   UNL     1       1.525   5.791  20.999  0.00  0.00    +0.000 OA
ATOM     18  N   UNL     1       2.095   7.574  19.671  0.00  0.00    +0.000 N 
ATOM     19  C   UNL     1       1.787   8.497  20.763  0.00  0.00    +0.000 C 
ATOM     20  C   UNL     1       0.317   8.903  20.754  0.00  0.00    +0.000 C 
ATOM     21  C   UNL     1      -0.013   9.983  19.727  0.00  0.00    +0.000 C 
ATOM     22  C   UNL     1       0.351   9.638  18.284  0.00  0.00    +0.000 C 
ATOM     23  C   UNL     1       1.857   9.521  18.050  0.00  0.00    +0.000 C 
ATOM     24  C   UNL     1       2.415   8.131  18.358  0.00  0.00    +0.000 C 
ENDBRANCH  15  16
ENDBRANCH  14  15
ENDBRANCH   6  14
TORSDOF 3
ENDMDL
MODEL 2
REMARK VINA RESULT:      -7.6      3.819      9.032
REMARK  Name = 
REMARK  5 active torsions:
REMARK  status: ('A' for Active; 'I' for Inactive)
REMARK    1  A    between atoms: C_1  and  C_2
REMARK    2  A    between atoms: C_3  and  C_4
REMARK    3  A    between atoms: C_6  and  S_7
REMARK    4  A    between atoms: S_7  and  C_8
REMARK    5  A    between atoms: C_8  and  C_9
REMARK                            x       y       z     vdW  Elec       q    Type
REMARK                         _______ _______ _______ _____ _____    ______ ____
ROOT
ATOM      1  C   UNL     1      -3.126  13.061  20.026  0.00  0.00    +0.000 C 
ATOM      2  C   UNL     1      -2.229  12.225  20.898  0.00  0.00    +0.000 A 
ATOM      3  C   UNL     1      -1.268  11.349  20.496  0.00  0.00    +0.000 A 
ATOM      4  C   UNL     1      -0.946  11.099  19.048  0.00  0.00    +0.000 C 
ATOM      5  N   UNL     1      -0.544  10.640  21.483  0.00  0.00    +0.000 N 
ATOM      6  C   UNL     1       0.456   9.678  21.488  0.00  0.00    +0.000 A 
ATOM      7  N   UNL     1       0.772   9.344  22.720  0.00  0.00    +0.000 NA
ATOM      8  N   UNL     1      -0.007  10.085  23.572  0.00  0.00    +0.000 NA
ATOM      9  C   UNL     1      -0.782  10.839  22.832  0.00  0.00    +0.000 A 
ATOM     10  N   UNL     1      -1.725  11.728  23.260  0.00  0.00    +0.000 N 
ATOM     11  C   UNL     1      -2.484  12.437  22.374  0.00  0.00    +0.000 A 
ATOM     12  O   UNL     1      -3.343  13.224  22.767  0.00  0.00    +0.000 OA
ATOM     13  H   UNL     1      -1.874  11.859  24.251  0.00  0.00    +0.000 HD
ENDROOT
BRANCH   6  14
ATOM     14  S   UNL     1       1.246   9.024  20.095  0.00  0.00    +0.000 S 
BRANCH  14  15
ATOM     15  C   UNL     1       1.831   7.423  20.720  0.00  0.00    +0.000 C 
BRANCH  15  16
ATOM     16  C   UNL     1       2.427   6.566  19.606  0.00  0.00    +0.000 C 
ATOM     17  O   UNL     1       2.783   7.097  18.549  0.00  0.00    +0.000 OA
ATOM     18  N   UNL     1       2.591   5.197  19.821  0.00  0.00    +0.000 N 
ATOM     19  C   UNL     1       3.338   4.440  18.818  0.00  0.00    +0.000 C 
ATOM     20  C   UNL     1       2.414   3.869  17.747  0.00  0.00    +0.000 C 
ATOM     21  C   UNL     1       1.682   2.602  18.182  0.00  0.00    +0.000 C 
ATOM     22  C   UNL     1       0.841   2.742  19.450  0.00  0.00    +0.000 C 
ATOM     23  C   UNL     1       1.676   2.994  20.706  0.00  0.00    +0.000 C 
ATOM     24  C   UNL     1       1.993   4.471  20.940  0.00  0.00    +0.000 C 
ENDBRANCH  15  16
ENDBRANCH  14  15
ENDBRANCH   6  14
TORSDOF 3
ENDMDL
MODEL 3
REMARK VINA RESULT:      -7.5      3.865      8.682
REMARK  Name = 
REMARK  5 active torsions:
REMARK  status: ('A' for Active; 'I' for Inactive)
REMARK    1  A    between atoms: C_1  and  C_2
REMARK    2  A    between atoms: C_3  and  C_4
REMARK    3  A    between atoms: C_6  and  S_7
REMARK    4  A    between atoms: S_7  and  C_8
REMARK    5  A    between atoms: C_8  and  C_9
REMARK                            x       y       z     vdW  Elec       q    Type
REMARK                         _______ _______ _______ _____ _____    ______ ____
ROOT
ATOM      1  C   UNL     1      -4.297  11.195  17.565  0.00  0.00    +0.000 C 
ATOM      2  C   UNL     1      -3.090  11.336  18.454  0.00  0.00    +0.000 A 
ATOM      3  C   UNL     1      -1.876  10.744  18.297  0.00  0.00    +0.000 A 
ATOM      4  C   UNL     1      -1.554   9.833  17.144  0.00  0.00    +0.000 C 
ATOM      5  N   UNL     1      -0.873  10.992  19.263  0.00  0.00    +0.000 N 
ATOM      6  C   UNL     1       0.435  10.578  19.473  0.00  0.00    +0.000 A 
ATOM      7  N   UNL     1       0.924  11.122  20.565  0.00  0.00    +0.000 NA
ATOM      8  N   UNL     1      -0.047  11.924  21.110  0.00  0.00    +0.000 NA
ATOM      9  C   UNL     1      -1.102  11.835  20.338  0.00  0.00    +0.000 A 
ATOM     10  N   UNL     1      -2.305  12.457  20.504  0.00  0.00    +0.000 N 
ATOM     11  C   UNL     1      -3.333  12.255  19.631  0.00  0.00    +0.000 A 
ATOM     12  O   UNL     1      -4.420  12.806  19.796  0.00  0.00    +0.000 OA
ATOM     13  H   UNL     1      -2.442  13.072  21.294  0.00  0.00    +0.000 HD
ENDROOT
BRANCH   6  14
ATOM     14  S   UNL     1       1.351   9.538  18.438  0.00  0.00    +0.000 S 
BRANCH  14  15
ATOM     15  C   UNL     1       1.821   8.204  19.577  0.00  0.00    +0.000 C 
BRANCH  15  16
ATOM     16  C   UNL     1       2.521   7.060  18.848  0.00  0.00    +0.000 C 
ATOM     17  O   UNL     1       3.050   7.266  17.750  0.00  0.00    +0.000 OA
ATOM     18  N   UNL     1       2.580   5.807  19.457  0.00  0.00    +0.000 N 
ATOM     19  C   UNL     1       3.420   4.788  18.829  0.00  0.00    +0.000 C 
ATOM     20  C   UNL     1       2.626   3.948  17.833  0.00  0.00    +0.000 C 
ATOM     21  C   UNL     1       1.774   2.864  18.489  0.00  0.00    +0.000 C 
ATOM     22  C   UNL     1       0.772   3.367  19.527  0.00  0.00    +0.000 C 
ATOM     23  C   UNL     1       1.434   3.955  20.773  0.00  0.00    +0.000 C 
ATOM     24  C   UNL     1       1.793   5.435  20.632  0.00  0.00    +0.000 C 
ENDBRANCH  15  16
ENDBRANCH  14  15
ENDBRANCH   6  14
TORSDOF 3
ENDMDL
MODEL 4
REMARK VINA RESULT:      -7.2      2.295      7.431
REMARK  Name = 
REMARK  5 active torsions:
REMARK  status: ('A' for Active; 'I' for Inactive)
REMARK    1  A    between atoms: C_1  and  C_2
REMARK    2  A    between atoms: C_3  and  C_4
REMARK    3  A    between atoms: C_6  and  S_7
REMARK    4  A    between atoms: S_7  and  C_8
REMARK    5  A    between atoms: C_8  and  C_9
REMARK                            x       y       z     vdW  Elec       q    Type
REMARK                         _______ _______ _______ _____ _____    ______ ____
ROOT
ATOM      1  C   UNL     1      -0.325  11.436  21.770  0.00  0.00    +0.000 C 
ATOM      2  C   UNL     1       0.356  10.713  20.639  0.00  0.00    +0.000 A 
ATOM      3  C   UNL     1       0.843   9.443  20.644  0.00  0.00    +0.000 A 
ATOM      4  C   UNL     1       0.744   8.536  21.840  0.00  0.00    +0.000 C 
ATOM      5  N   UNL     1       1.472   8.955  19.475  0.00  0.00    +0.000 N 
ATOM      6  C   UNL     1       2.097   7.775  19.097  0.00  0.00    +0.000 A 
ATOM      7  N   UNL     1       2.529   7.856  17.858  0.00  0.00    +0.000 NA
ATOM      8  N   UNL     1       2.195   9.095  17.373  0.00  0.00    +0.000 NA
ATOM      9  C   UNL     1       1.578   9.735  18.336  0.00  0.00    +0.000 A 
ATOM     10  N   UNL     1       1.079  11.005  18.299  0.00  0.00    +0.000 N 
ATOM     11  C   UNL     1       0.477  11.560  19.391  0.00  0.00    +0.000 A 
ATOM     12  O   UNL     1       0.043  12.710  19.356  0.00  0.00    +0.000 OA
ATOM     13  H   UNL     1       1.164  11.549  17.453  0.00  0.00    +0.000 HD
ENDROOT
BRANCH   6  14
ATOM     14  S   UNL     1       2.256   6.351  20.067  0.00  0.00    +0.000 S 
BRANCH  14  15
ATOM     15  C   UNL     1       2.891   5.152  18.860  0.00  0.00    +0.000 C 
BRANCH  15  16
ATOM     16  C   UNL     1       4.417   5.132  18.834  0.00  0.00    +0.000 C 
ATOM     17  O   UNL     1       5.052   5.669  19.749  0.00  0.00    +0.000 OA
ATOM     18  N   UNL     1       5.067   4.473  17.791  0.00  0.00    +0.000 N 
ATOM     19  C   UNL     1       6.515   4.304  17.895  0.00  0.00    +0.000 C 
ATOM     20  C   UNL     1       7.261   5.464  17.244  0.00  0.00    +0.000 C 
ATOM     21  C   UNL     1       7.343   5.362  15.723  0.00  0.00    +0.000 C 
ATOM     22  C   UNL     1       5.997   5.256  15.007  0.00  0.00    +0.000 C 
ATOM     23  C   UNL     1       5.252   3.954  15.307  0.00  0.00    +0.000 C 
ATOM     24  C   UNL     1       4.397   4.019  16.573  0.00  0.00    +0.000 C 
ENDBRANCH  15  16
ENDBRANCH  14  15
ENDBRANCH   6  14
TORSDOF 3
ENDMDL
MODEL 5
REMARK VINA RESULT:      -7.0      5.402      7.094
REMARK  Name = 
REMARK  5 active torsions:
REMARK  status: ('A' for Active; 'I' for Inactive)
REMARK    1  A    between atoms: C_1  and  C_2
REMARK    2  A    between atoms: C_3  and  C_4
REMARK    3  A    between atoms: C_6  and  S_7
REMARK    4  A    between atoms: S_7  and  C_8
REMARK    5  A    between atoms: C_8  and  C_9
REMARK                            x       y       z     vdW  Elec       q    Type
REMARK                         _______ _______ _______ _____ _____    ______ ____
ROOT
ATOM      1  C   UNL     1       2.344   5.061  17.986  0.00  0.00    +0.000 C 
ATOM      2  C   UNL     1       3.819   5.148  18.271  0.00  0.00    +0.000 A 
ATOM      3  C   UNL     1       4.664   6.166  17.953  0.00  0.00    +0.000 A 
ATOM      4  C   UNL     1       4.207   7.416  17.251  0.00  0.00    +0.000 C 
ATOM      5  N   UNL     1       6.030   6.042  18.294  0.00  0.00    +0.000 N 
ATOM      6  C   UNL     1       7.174   6.812  18.130  0.00  0.00    +0.000 A 
ATOM      7  N   UNL     1       8.220   6.203  18.643  0.00  0.00    +0.000 NA
ATOM      8  N   UNL     1       7.798   5.011  19.174  0.00  0.00    +0.000 NA
ATOM      9  C   UNL     1       6.509   4.924  18.957  0.00  0.00    +0.000 A 
ATOM     10  N   UNL     1       5.677   3.900  19.305  0.00  0.00    +0.000 N 
ATOM     11  C   UNL     1       4.349   3.929  18.994  0.00  0.00    +0.000 A 
ATOM     12  O   UNL     1       3.609   2.995  19.297  0.00  0.00    +0.000 OA
ATOM     13  H   UNL     1       6.052   3.099  19.794  0.00  0.00    +0.000 HD
ENDROOT
BRANCH   6  14
ATOM     14  S   UNL     1       7.248   8.383  17.408  0.00  0.00    +0.000 S 
BRANCH  14  15
ATOM     15  C   UNL     1       8.527   9.190  18.413  0.00  0.00    +0.000 C 
BRANCH  15  16
ATOM     16  C   UNL     1       8.562  10.698  18.176  0.00  0.00    +0.000 C 
ATOM     17  O   UNL     1       7.858  11.195  17.290  0.00  0.00    +0.000 OA
ATOM     18  N   UNL     1       9.365  11.492  18.994  0.00  0.00    +0.000 N 
ATOM     19  C   UNL     1       9.230  12.943  18.873  0.00  0.00    +0.000 C 
ATOM     20  C   UNL     1      10.208  13.510  17.849  0.00  0.00    +0.000 C 
ATOM     21  C   UNL     1      11.629  13.671  18.384  0.00  0.00    +0.000 C 
ATOM     22  C   UNL     1      12.265  12.393  18.929  0.00  0.00    +0.000 C 
ATOM     23  C   UNL     1      11.580  11.866  20.190  0.00  0.00    +0.000 C 
ATOM     24  C   UNL     1      10.383  10.960  19.899  0.00  0.00    +0.000 C 
ENDBRANCH  15  16
ENDBRANCH  14  15
ENDBRANCH   6  14
TORSDOF 3
ENDMDL
MODEL 6
REMARK VINA RESULT:      -7.0      3.139      7.697
REMARK  Name = 
REMARK  5 active torsions:
REMARK  status: ('A' for Active; 'I' for Inactive)
REMARK    1  A    between atoms: C_1  and  C_2
REMARK    2  A    between atoms: C_3  and  C_4
REMARK    3  A    between atoms: C_6  and  S_7
REMARK    4  A    between atoms: S_7  and  C_8
REMARK    5  A    between atoms: C_8  and  C_9
REMARK                            x       y       z     vdW  Elec       q    Type
REMARK                         _______ _______ _______ _____ _____    ______ ____
ROOT
ATOM      1  C   UNL     1      -0.400   9.757  23.095  0.00  0.00    +0.000 C 
ATOM      2  C   UNL     1       0.197  10.064  21.748  0.00  0.00    +0.000 A 
ATOM      3  C   UNL     1       0.623   9.175  20.811  0.00  0.00    +0.000 A 
ATOM      4  C   UNL     1       0.532   7.685  20.998  0.00  0.00    +0.000 C 
ATOM      5  N   UNL     1       1.178   9.673  19.609  0.00  0.00    +0.000 N 
ATOM      6  C   UNL     1       1.729   9.122  18.461  0.00  0.00    +0.000 A 
ATOM      7  N   UNL     1       2.113  10.067  17.631  0.00  0.00    +0.000 NA
ATOM      8  N   UNL     1       1.817  11.278  18.203  0.00  0.00    +0.000 NA
ATOM      9  C   UNL     1       1.273  11.034  19.370  0.00  0.00    +0.000 A 
ATOM     10  N   UNL     1       0.833  11.945  20.286  0.00  0.00    +0.000 N 
ATOM     11  C   UNL     1       0.305  11.550  21.480  0.00  0.00    +0.000 A 
ATOM     12  O   UNL     1      -0.074  12.376  22.308  0.00  0.00    +0.000 OA
ATOM     13  H   UNL     1       0.908  12.932  20.082  0.00  0.00    +0.000 HD
ENDROOT
BRANCH   6  14
ATOM     14  S   UNL     1       1.862   7.434  18.105  0.00  0.00    +0.000 S 
BRANCH  14  15
ATOM     15  C   UNL     1       3.449   7.016  18.881  0.00  0.00    +0.000 C 
BRANCH  15  16
ATOM     16  C   UNL     1       3.839   5.564  18.620  0.00  0.00    +0.000 C 
ATOM     17  O   UNL     1       4.530   5.283  17.635  0.00  0.00    +0.000 OA
ATOM     18  N   UNL     1       3.435   4.583  19.526  0.00  0.00    +0.000 N 
ATOM     19  C   UNL     1       3.984   3.238  19.357  0.00  0.00    +0.000 C 
ATOM     20  C   UNL     1       3.091   2.379  18.468  0.00  0.00    +0.000 C 
ATOM     21  C   UNL     1       1.874   1.808  19.192  0.00  0.00    +0.000 C 
ATOM     22  C   UNL     1       0.964   2.846  19.847  0.00  0.00    +0.000 C 
ATOM     23  C   UNL     1       1.626   3.585  21.011  0.00  0.00    +0.000 C 
ATOM     24  C   UNL     1       2.440   4.803  20.575  0.00  0.00    +0.000 C 
ENDBRANCH  15  16
ENDBRANCH  14  15
ENDBRANCH   6  14
TORSDOF 3
ENDMDL
MODEL 7
REMARK VINA RESULT:      -7.0      2.446      7.125
REMARK  Name = 
REMARK  5 active torsions:
REMARK  status: ('A' for Active; 'I' for Inactive)
REMARK    1  A    between atoms: C_1  and  C_2
REMARK    2  A    between atoms: C_3  and  C_4
REMARK    3  A    between atoms: C_6  and  S_7
REMARK    4  A    between atoms: S_7  and  C_8
REMARK    5  A    between atoms: C_8  and  C_9
REMARK                            x       y       z     vdW  Elec       q    Type
REMARK                         _______ _______ _______ _____ _____    ______ ____
ROOT
ATOM      1  C   UNL     1      -0.137  11.028  21.762  0.00  0.00    +0.000 C 
ATOM      2  C   UNL     1       0.532  10.382  20.578  0.00  0.00    +0.000 A 
ATOM      3  C   UNL     1       1.030   9.118  20.498  0.00  0.00    +0.000 A 
ATOM      4  C   UNL     1       0.958   8.139  21.639  0.00  0.00    +0.000 C 
ATOM      5  N   UNL     1       1.644   8.708  19.293  0.00  0.00    +0.000 N 
ATOM      6  C   UNL     1       2.273   7.559  18.833  0.00  0.00    +0.000 A 
ATOM      7  N   UNL     1       2.685   7.720  17.595  0.00  0.00    +0.000 NA
ATOM      8  N   UNL     1       2.332   8.983  17.192  0.00  0.00    +0.000 NA
ATOM      9  C   UNL     1       1.725   9.557  18.202  0.00  0.00    +0.000 A 
ATOM     10  N   UNL     1       1.214  10.822  18.250  0.00  0.00    +0.000 N 
ATOM     11  C   UNL     1       0.625  11.304  19.382  0.00  0.00    +0.000 A 
ATOM     12  O   UNL     1       0.182  12.450  19.424  0.00  0.00    +0.000 OA
ATOM     13  H   UNL     1       1.282  11.418  17.437  0.00  0.00    +0.000 HD
ENDROOT
BRANCH   6  14
ATOM     14  S   UNL     1       2.459   6.081  19.712  0.00  0.00    +0.000 S 
BRANCH  14  15
ATOM     15  C   UNL     1       3.244   5.011  18.472  0.00  0.00    +0.000 C 
BRANCH  15  16
ATOM     16  C   UNL     1       4.696   4.705  18.830  0.00  0.00    +0.000 C 
ATOM     17  O   UNL     1       4.949   4.009  19.819  0.00  0.00    +0.000 OA
ATOM     18  N   UNL     1       5.712   5.191  18.006  0.00  0.00    +0.000 N 
ATOM     19  C   UNL     1       7.073   4.722  18.262  0.00  0.00    +0.000 C 
ATOM     20  C   UNL     1       7.809   5.644  19.229  0.00  0.00    +0.000 C 
ATOM     21  C   UNL     1       8.352   6.911  18.572  0.00  0.00    +0.000 C 
ATOM     22  C   UNL     1       7.308   7.771  17.862  0.00  0.00    +0.000 C 
ATOM     23  C   UNL     1       6.697   7.094  16.635  0.00  0.00    +0.000 C 
ATOM     24  C   UNL     1       5.505   6.196  16.965  0.00  0.00    +0.000 C 
ENDBRANCH  15  16
ENDBRANCH  14  15
ENDBRANCH   6  14
TORSDOF 3
ENDMDL
MODEL 8
REMARK VINA RESULT:      -7.0      3.058      4.438
REMARK  Name = 
REMARK  5 active torsions:
REMARK  status: ('A' for Active; 'I' for Inactive)
REMARK    1  A    between atoms: C_1  and  C_2
REMARK    2  A    between atoms: C_3  and  C_4
REMARK    3  A    between atoms: C_6  and  S_7
REMARK    4  A    between atoms: S_7  and  C_8
REMARK    5  A    between atoms: C_8  and  C_9
REMARK                            x       y       z     vdW  Elec       q    Type
REMARK                         _______ _______ _______ _____ _____    ______ ____
ROOT
ATOM      1  C   UNL     1       2.382   2.209  21.750  0.00  0.00    +0.000 C 
ATOM      2  C   UNL     1       3.106   2.970  20.672  0.00  0.00    +0.000 A 
ATOM      3  C   UNL     1       2.625   3.997  19.920  0.00  0.00    +0.000 A 
ATOM      4  C   UNL     1       1.236   4.550  20.088  0.00  0.00    +0.000 C 
ATOM      5  N   UNL     1       3.466   4.567  18.937  0.00  0.00    +0.000 N 
ATOM      6  C   UNL     1       3.350   5.571  17.985  0.00  0.00    +0.000 A 
ATOM      7  N   UNL     1       4.468   5.692  17.301  0.00  0.00    +0.000 NA
ATOM      8  N   UNL     1       5.363   4.774  17.788  0.00  0.00    +0.000 NA
ATOM      9  C   UNL     1       4.761   4.114  18.746  0.00  0.00    +0.000 A 
ATOM     10  N   UNL     1       5.273   3.100  19.503  0.00  0.00    +0.000 N 
ATOM     11  C   UNL     1       4.521   2.480  20.458  0.00  0.00    +0.000 A 
ATOM     12  O   UNL     1       4.984   1.556  21.124  0.00  0.00    +0.000 OA
ATOM     13  H   UNL     1       6.223   2.793  19.347  0.00  0.00    +0.000 HD
ENDROOT
BRANCH   6  14
ATOM     14  S   UNL     1       1.970   6.583  17.736  0.00  0.00    +0.000 S 
BRANCH  14  15
ATOM     15  C   UNL     1       2.310   7.956  18.875  0.00  0.00    +0.000 C 
BRANCH  15  16
ATOM     16  C   UNL     1       1.652   9.252  18.408  0.00  0.00    +0.000 C 
ATOM     17  O   UNL     1       2.044   9.798  17.370  0.00  0.00    +0.000 OA
ATOM     18  N   UNL     1       0.592   9.777  19.148  0.00  0.00    +0.000 N 
ATOM     19  C   UNL     1      -0.140  10.905  18.574  0.00  0.00    +0.000 C 
ATOM     20  C   UNL     1       0.452  12.238  19.017  0.00  0.00    +0.000 C 
ATOM     21  C   UNL     1       0.030  12.659  20.422  0.00  0.00    +0.000 C 
ATOM     22  C   UNL     1       0.355  11.652  21.525  0.00  0.00    +0.000 C 
ATOM     23  C   UNL     1      -0.432  10.347  21.406  0.00  0.00    +0.000 C 
ATOM     24  C   UNL     1       0.229   9.318  20.488  0.00  0.00    +0.000 C 
ENDBRANCH  15  16
ENDBRANCH  14  15
ENDBRANCH   6  14
TORSDOF 3
ENDMDL
MODEL 9
REMARK VINA RESULT:      -7.0      3.477      8.425
REMARK  Name = 
REMARK  5 active torsions:
REMARK  status: ('A' for Active; 'I' for Inactive)
REMARK    1  A    between atoms: C_1  and  C_2
REMARK    2  A    between atoms: C_3  and  C_4
REMARK    3  A    between atoms: C_6  and  S_7
REMARK    4  A    between atoms: S_7  and  C_8
REMARK    5  A    between atoms: C_8  and  C_9
REMARK                            x       y       z     vdW  Elec       q    Type
REMARK                         _______ _______ _______ _____ _____    ______ ____
ROOT
ATOM      1  C   UNL     1      -1.558  11.740  23.175  0.00  0.00    +0.000 C 
ATOM      2  C   UNL     1      -0.983  11.297  21.857  0.00  0.00    +0.000 A 
ATOM      3  C   UNL     1      -0.191  10.215  21.622  0.00  0.00    +0.000 A 
ATOM      4  C   UNL     1       0.222   9.256  22.704  0.00  0.00    +0.000 C 
ATOM      5  N   UNL     1       0.265   9.985  20.303  0.00  0.00    +0.000 N 
ATOM      6  C   UNL     1       1.075   9.049  19.677  0.00  0.00    +0.000 A 
ATOM      7  N   UNL     1       1.182   9.313  18.393  0.00  0.00    +0.000 NA
ATOM      8  N   UNL     1       0.435  10.432  18.128  0.00  0.00    +0.000 NA
ATOM      9  C   UNL     1      -0.095  10.822  19.260  0.00  0.00    +0.000 A 
ATOM     10  N   UNL     1      -0.905  11.901  19.467  0.00  0.00    +0.000 N 
ATOM     11  C   UNL     1      -1.371  12.208  20.713  0.00  0.00    +0.000 A 
ATOM     12  O   UNL     1      -2.087  13.191  20.895  0.00  0.00    +0.000 OA
ATOM     13  H   UNL     1      -1.157  12.492  18.687  0.00  0.00    +0.000 HD
ENDROOT
BRANCH   6  14
ATOM     14  S   UNL     1       1.815   7.678  20.430  0.00  0.00    +0.000 S 
BRANCH  14  15
ATOM     15  C   UNL     1       2.589   6.851  19.010  0.00  0.00    +0.000 C 
BRANCH  15  16
ATOM     16  C   UNL     1       3.425   5.650  19.444  0.00  0.00    +0.000 C 
ATOM     17  O   UNL     1       4.626   5.799  19.694  0.00  0.00    +0.000 OA
ATOM     18  N   UNL     1       2.803   4.410  19.586  0.00  0.00    +0.000 N 
ATOM     19  C   UNL     1       3.581   3.327  20.188  0.00  0.00    +0.000 C 
ATOM     20  C   UNL     1       4.318   2.514  19.128  0.00  0.00    +0.000 C 
ATOM     21  C   UNL     1       3.432   1.500  18.409  0.00  0.00    +0.000 C 
ATOM     22  C   UNL     1       2.199   2.087  17.725  0.00  0.00    +0.000 C 
ATOM     23  C   UNL     1       1.177   2.661  18.706  0.00  0.00    +0.000 C 
ATOM     24  C   UNL     1       1.457   4.113  19.098  0.00  0.00    +0.000 C 
ENDBRANCH  15  16
ENDBRANCH  14  15
ENDBRANCH   6  14
TORSDOF 3
ENDMDL
