MODEL 1
REMARK VINA RESULT:      -7.4      0.000      0.000
REMARK  Name = 
REMARK  8 active torsions:
REMARK  status: ('A' for Active; 'I' for Inactive)
REMARK    1  A    between atoms: C_2  and  C_3
REMARK    2  A    between atoms: C_3  and  O_4
REMARK    3  A    between atoms: O_4  and  C_5
REMARK    4  A    between atoms: C_8  and  S_9
REMARK    5  A    between atoms: S_9  and  N_12
REMARK    6  A    between atoms: N_12  and  C_13
REMARK    7  A    between atoms: N_20  and  C_21
REMARK    8  A    between atoms: C_21  and  C_22
REMARK                            x       y       z     vdW  Elec       q    Type
REMARK                         _______ _______ _______ _____ _____    ______ ____
ROOT
ATOM      1  C   UNL     1       3.428   3.187  18.738  0.00  0.00    +0.000 A 
ATOM      2  C   UNL     1       4.638   3.514  19.349  0.00  0.00    +0.000 A 
ATOM      3  C   UNL     1       5.608   4.223  18.646  0.00  0.00    +0.000 A 
ATOM      4  C   UNL     1       5.397   4.562  17.309  0.00  0.00    +0.000 A 
ATOM      5  C   UNL     1       4.207   4.203  16.670  0.00  0.00    +0.000 A 
ATOM      6  C   UNL     1       3.222   3.507  17.391  0.00  0.00    +0.000 A 
ENDROOT
BRANCH   4   7
ATOM      7  S   UNL     1       6.660   5.483  16.466  0.00  0.00    +0.000 S 
ATOM      8  O   UNL     1       6.566   6.854  16.923  0.00  0.00    +0.000 OA
ATOM      9  O   UNL     1       7.901   4.743  16.532  0.00  0.00    +0.000 OA
BRANCH   7  10
ATOM     10  N   UNL     1       6.159   5.499  14.852  0.00  0.00    +0.000 NA
ATOM     11  H   UNL     1       6.271   6.440  14.470  0.00  0.00    +0.000 HD
BRANCH  10  12
ATOM     12  C   UNL     1       6.556   4.380  13.986  0.00  0.00    +0.000 C 
ATOM     13  C   UNL     1       5.367   3.755  13.274  0.00  0.00    +0.000 C 
ATOM     14  C   UNL     1       5.967   3.060  12.066  0.00  0.00    +0.000 C 
ATOM     15  C   UNL     1       7.215   3.859  11.705  0.00  0.00    +0.000 C 
ATOM     16  C   UNL     1       7.421   4.876  12.827  0.00  0.00    +0.000 C 
ENDBRANCH  10  12
ENDBRANCH   7  10
ENDBRANCH   4   7
BRANCH   1  17
ATOM     17  O   UNL     1       2.391   2.567  19.389  0.00  0.00    +0.000 OA
BRANCH  17  18
ATOM     18  C   UNL     1       1.276   3.426  19.652  0.00  0.00    +0.000 C 
BRANCH  18  20
ATOM     19  O   UNL     1       2.088   4.317  21.737  0.00  0.00    +0.000 OA
ATOM     20  C   UNL     1       1.598   4.545  20.635  0.00  0.00    +0.000 C 
ATOM     21  N   UNL     1       1.303   5.802  20.177  0.00  0.00    +0.000 N 
ATOM     22  H   UNL     1       0.819   5.889  19.289  0.00  0.00    +0.000 HD
BRANCH  21  23
ATOM     23  C   UNL     1       1.529   7.005  20.955  0.00  0.00    +0.000 C 
BRANCH  23  24
ATOM     24  C   UNL     1       1.962   8.180  20.078  0.00  0.00    +0.000 C 
ATOM     25  C   UNL     1       0.851   9.161  19.734  0.00  0.00    +0.000 C 
ATOM     26  C   UNL     1       1.309   9.702  18.403  0.00  0.00    +0.000 C 
ATOM     27  C   UNL     1       1.948   8.488  17.764  0.00  0.00    +0.000 C 
ATOM     28  O   UNL     1       2.488   7.690  18.825  0.00  0.00    +0.000 OA
ENDBRANCH  23  24
ENDBRANCH  21  23
ENDBRANCH  18  20
ENDBRANCH  17  18
ENDBRANCH   1  17
TORSDOF 8
ENDMDL
MODEL 2
REMARK VINA RESULT:      -7.3      3.823      8.207
REMARK  Name = 
REMARK  8 active torsions:
REMARK  status: ('A' for Active; 'I' for Inactive)
REMARK    1  A    between atoms: C_2  and  C_3
REMARK    2  A    between atoms: C_3  and  O_4
REMARK    3  A    between atoms: O_4  and  C_5
REMARK    4  A    between atoms: C_8  and  S_9
REMARK    5  A    between atoms: S_9  and  N_12
REMARK    6  A    between atoms: N_12  and  C_13
REMARK    7  A    between atoms: N_20  and  C_21
REMARK    8  A    between atoms: C_21  and  C_22
REMARK                            x       y       z     vdW  Elec       q    Type
REMARK                         _______ _______ _______ _____ _____    ______ ____
ROOT
ATOM      1  C   UNL     1       2.493   7.898  18.894  0.00  0.00    +0.000 A 
ATOM      2  C   UNL     1       2.241   8.801  17.862  0.00  0.00    +0.000 A 
ATOM      3  C   UNL     1       1.392   9.884  18.071  0.00  0.00    +0.000 A 
ATOM      4  C   UNL     1       0.745  10.042  19.298  0.00  0.00    +0.000 A 
ATOM      5  C   UNL     1       0.954   9.120  20.328  0.00  0.00    +0.000 A 
ATOM      6  C   UNL     1       1.830   8.041  20.118  0.00  0.00    +0.000 A 
ENDROOT
BRANCH   4   7
ATOM      7  S   UNL     1      -0.312  11.451  19.516  0.00  0.00    +0.000 S 
ATOM      8  O   UNL     1      -0.432  11.679  20.942  0.00  0.00    +0.000 OA
ATOM      9  O   UNL     1       0.111  12.498  18.612  0.00  0.00    +0.000 OA
BRANCH   7  10
ATOM     10  N   UNL     1      -1.832  10.917  19.005  0.00  0.00    +0.000 NA
ATOM     11  H   UNL     1      -2.532  11.162  19.707  0.00  0.00    +0.000 HD
BRANCH  10  12
ATOM     12  C   UNL     1      -2.205  11.116  17.598  0.00  0.00    +0.000 C 
ATOM     13  C   UNL     1      -2.078   9.838  16.784  0.00  0.00    +0.000 C 
ATOM     14  C   UNL     1      -2.991  10.052  15.591  0.00  0.00    +0.000 C 
ATOM     15  C   UNL     1      -4.097  10.983  16.077  0.00  0.00    +0.000 C 
ATOM     16  C   UNL     1      -3.693  11.446  17.476  0.00  0.00    +0.000 C 
ENDBRANCH  10  12
ENDBRANCH   7  10
ENDBRANCH   4   7
BRANCH   1  17
ATOM     17  O   UNL     1       3.382   6.858  18.792  0.00  0.00    +0.000 OA
BRANCH  17  18
ATOM     18  C   UNL     1       3.249   6.098  17.586  0.00  0.00    +0.000 C 
BRANCH  18  20
ATOM     19  O   UNL     1       4.528   4.109  18.044  0.00  0.00    +0.000 OA
ATOM     20  C   UNL     1       3.430   4.600  17.797  0.00  0.00    +0.000 C 
ATOM     21  N   UNL     1       2.275   3.871  17.696  0.00  0.00    +0.000 N 
ATOM     22  H   UNL     1       1.429   4.349  17.402  0.00  0.00    +0.000 HD
BRANCH  21  23
ATOM     23  C   UNL     1       2.225   2.431  17.859  0.00  0.00    +0.000 C 
BRANCH  23  24
ATOM     24  C   UNL     1       1.891   2.028  19.295  0.00  0.00    +0.000 C 
ATOM     25  C   UNL     1       0.880   2.930  19.989  0.00  0.00    +0.000 C 
ATOM     26  C   UNL     1       1.279   2.794  21.437  0.00  0.00    +0.000 C 
ATOM     27  C   UNL     1       2.786   2.688  21.348  0.00  0.00    +0.000 C 
ATOM     28  O   UNL     1       3.089   2.048  20.102  0.00  0.00    +0.000 OA
ENDBRANCH  23  24
ENDBRANCH  21  23
ENDBRANCH  18  20
ENDBRANCH  17  18
ENDBRANCH   1  17
TORSDOF 8
ENDMDL
MODEL 3
REMARK VINA RESULT:      -7.3      3.772      8.026
REMARK  Name = 
REMARK  8 active torsions:
REMARK  status: ('A' for Active; 'I' for Inactive)
REMARK    1  A    between atoms: C_2  and  C_3
REMARK    2  A    between atoms: C_3  and  O_4
REMARK    3  A    between atoms: O_4  and  C_5
REMARK    4  A    between atoms: C_8  and  S_9
REMARK    5  A    between atoms: S_9  and  N_12
REMARK    6  A    between atoms: N_12  and  C_13
REMARK    7  A    between atoms: N_20  and  C_21
REMARK    8  A    between atoms: C_21  and  C_22
REMARK                            x       y       z     vdW  Elec       q    Type
REMARK                         _______ _______ _______ _____ _____    ______ ____
ROOT
ATOM      1  C   UNL     1       2.696   7.426  18.174  0.00  0.00    +0.000 A 
ATOM      2  C   UNL     1       2.435   8.617  17.496  0.00  0.00    +0.000 A 
ATOM      3  C   UNL     1       1.798   9.668  18.148  0.00  0.00    +0.000 A 
ATOM      4  C   UNL     1       1.369   9.518  19.468  0.00  0.00    +0.000 A 
ATOM      5  C   UNL     1       1.585   8.315  20.147  0.00  0.00    +0.000 A 
ATOM      6  C   UNL     1       2.248   7.265  19.490  0.00  0.00    +0.000 A 
ENDROOT
BRANCH   4   7
ATOM      7  S   UNL     1       0.579  10.898  20.258  0.00  0.00    +0.000 S 
ATOM      8  O   UNL     1       0.712  10.706  21.688  0.00  0.00    +0.000 OA
ATOM      9  O   UNL     1       1.013  12.118  19.612  0.00  0.00    +0.000 OA
BRANCH   7  10
ATOM     10  N   UNL     1      -1.062  10.693  19.916  0.00  0.00    +0.000 NA
ATOM     11  H   UNL     1      -1.616  10.961  20.731  0.00  0.00    +0.000 HD
BRANCH  10  12
ATOM     12  C   UNL     1      -1.562  11.126  18.603  0.00  0.00    +0.000 C 
ATOM     13  C   UNL     1      -1.752   9.959  17.648  0.00  0.00    +0.000 C 
ATOM     14  C   UNL     1      -2.752  10.462  16.623  0.00  0.00    +0.000 C 
ATOM     15  C   UNL     1      -3.617  11.483  17.355  0.00  0.00    +0.000 C 
ATOM     16  C   UNL     1      -2.976  11.695  18.725  0.00  0.00    +0.000 C 
ENDBRANCH  10  12
ENDBRANCH   7  10
ENDBRANCH   4   7
BRANCH   1  17
ATOM     17  O   UNL     1       3.393   6.379  17.627  0.00  0.00    +0.000 OA
BRANCH  17  18
ATOM     18  C   UNL     1       4.707   6.211  18.170  0.00  0.00    +0.000 C 
BRANCH  18  20
ATOM     19  O   UNL     1       5.762   4.691  19.711  0.00  0.00    +0.000 OA
ATOM     20  C   UNL     1       4.911   4.860  18.843  0.00  0.00    +0.000 C 
ATOM     21  N   UNL     1       4.068   3.875  18.401  0.00  0.00    +0.000 N 
ATOM     22  H   UNL     1       3.456   4.082  17.618  0.00  0.00    +0.000 HD
BRANCH  21  23
ATOM     23  C   UNL     1       4.097   2.516  18.907  0.00  0.00    +0.000 C 
BRANCH  23  24
ATOM     24  C   UNL     1       2.900   2.216  19.809  0.00  0.00    +0.000 C 
ATOM     25  C   UNL     1       1.627   2.969  19.450  0.00  0.00    +0.000 C 
ATOM     26  C   UNL     1       0.936   3.075  20.785  0.00  0.00    +0.000 C 
ATOM     27  C   UNL     1       2.098   3.262  21.736  0.00  0.00    +0.000 C 
ATOM     28  O   UNL     1       3.216   2.562  21.176  0.00  0.00    +0.000 OA
ENDBRANCH  23  24
ENDBRANCH  21  23
ENDBRANCH  18  20
ENDBRANCH  17  18
ENDBRANCH   1  17
TORSDOF 8
ENDMDL
MODEL 4
REMARK VINA RESULT:      -7.2      3.526      7.896
REMARK  Name = 
REMARK  8 active torsions:
REMARK  status: ('A' for Active; 'I' for Inactive)
REMARK    1  A    between atoms: C_2  and  C_3
REMARK    2  A    between atoms: C_3  and  O_4
REMARK    3  A    between atoms: O_4  and  C_5
REMARK    4  A    between atoms: C_8  and  S_9
REMARK    5  A    between atoms: S_9  and  N_12
REMARK    6  A    between atoms: N_12  and  C_13
REMARK    7  A    between atoms: N_20  and  C_21
REMARK    8  A    between atoms: C_21  and  C_22
REMARK                            x       y       z     vdW  Elec       q    Type
REMARK                         _______ _______ _______ _____ _____    ______ ____
ROOT
ATOM      1  C   UNL     1       2.193   6.909  19.725  0.00  0.00    +0.000 A 
ATOM      2  C   UNL     1       1.625   7.465  20.871  0.00  0.00    +0.000 A 
ATOM      3  C   UNL     1       1.082   8.746  20.833  0.00  0.00    +0.000 A 
ATOM      4  C   UNL     1       1.150   9.502  19.661  0.00  0.00    +0.000 A 
ATOM      5  C   UNL     1       1.754   8.974  18.517  0.00  0.00    +0.000 A 
ATOM      6  C   UNL     1       2.281   7.673  18.555  0.00  0.00    +0.000 A 
ENDROOT
BRANCH   4   7
ATOM      7  S   UNL     1       0.423  11.121  19.663  0.00  0.00    +0.000 S 
ATOM      8  O   UNL     1      -0.589  11.135  20.699  0.00  0.00    +0.000 OA
ATOM      9  O   UNL     1       1.480  12.109  19.620  0.00  0.00    +0.000 OA
BRANCH   7  10
ATOM     10  N   UNL     1      -0.416  11.205  18.199  0.00  0.00    +0.000 NA
ATOM     11  H   UNL     1       0.222  11.000  17.428  0.00  0.00    +0.000 HD
BRANCH  10  12
ATOM     12  C   UNL     1      -1.757  10.607  18.127  0.00  0.00    +0.000 C 
ATOM     13  C   UNL     1      -2.853  11.659  18.091  0.00  0.00    +0.000 C 
ATOM     14  C   UNL     1      -4.043  10.951  17.469  0.00  0.00    +0.000 C 
ATOM     15  C   UNL     1      -3.455   9.890  16.543  0.00  0.00    +0.000 C 
ATOM     16  C   UNL     1      -1.949   9.874  16.799  0.00  0.00    +0.000 C 
ENDBRANCH  10  12
ENDBRANCH   7  10
ENDBRANCH   4   7
BRANCH   1  17
ATOM     17  O   UNL     1       2.670   5.624  19.661  0.00  0.00    +0.000 OA
BRANCH  17  18
ATOM     18  C   UNL     1       1.982   4.797  18.717  0.00  0.00    +0.000 C 
BRANCH  18  20
ATOM     19  O   UNL     1       2.510   3.340  16.874  0.00  0.00    +0.000 OA
ATOM     20  C   UNL     1       2.902   4.194  17.663  0.00  0.00    +0.000 C 
ATOM     21  N   UNL     1       4.179   4.692  17.675  0.00  0.00    +0.000 N 
ATOM     22  H   UNL     1       4.438   5.331  18.420  0.00  0.00    +0.000 HD
BRANCH  21  23
ATOM     23  C   UNL     1       5.213   4.253  16.759  0.00  0.00    +0.000 C 
BRANCH  23  24
ATOM     24  C   UNL     1       6.553   4.933  17.040  0.00  0.00    +0.000 C 
ATOM     25  C   UNL     1       6.865   5.138  18.515  0.00  0.00    +0.000 C 
ATOM     26  C   UNL     1       7.743   6.363  18.484  0.00  0.00    +0.000 C 
ATOM     27  C   UNL     1       7.129   7.172  17.362  0.00  0.00    +0.000 C 
ATOM     28  O   UNL     1       6.581   6.239  16.423  0.00  0.00    +0.000 OA
ENDBRANCH  23  24
ENDBRANCH  21  23
ENDBRANCH  18  20
ENDBRANCH  17  18
ENDBRANCH   1  17
TORSDOF 8
ENDMDL
MODEL 5
REMARK VINA RESULT:      -7.2      1.482      2.065
REMARK  Name = 
REMARK  8 active torsions:
REMARK  status: ('A' for Active; 'I' for Inactive)
REMARK    1  A    between atoms: C_2  and  C_3
REMARK    2  A    between atoms: C_3  and  O_4
REMARK    3  A    between atoms: O_4  and  C_5
REMARK    4  A    between atoms: C_8  and  S_9
REMARK    5  A    between atoms: S_9  and  N_12
REMARK    6  A    between atoms: N_12  and  C_13
REMARK    7  A    between atoms: N_20  and  C_21
REMARK    8  A    between atoms: C_21  and  C_22
REMARK                            x       y       z     vdW  Elec       q    Type
REMARK                         _______ _______ _______ _____ _____    ______ ____
ROOT
ATOM      1  C   UNL     1       3.807   3.769  19.390  0.00  0.00    +0.000 A 
ATOM      2  C   UNL     1       3.591   3.679  18.015  0.00  0.00    +0.000 A 
ATOM      3  C   UNL     1       4.524   4.202  17.124  0.00  0.00    +0.000 A 
ATOM      4  C   UNL     1       5.655   4.867  17.602  0.00  0.00    +0.000 A 
ATOM      5  C   UNL     1       5.863   5.003  18.978  0.00  0.00    +0.000 A 
ATOM      6  C   UNL     1       4.929   4.454  19.872  0.00  0.00    +0.000 A 
ENDROOT
BRANCH   4   7
ATOM      7  S   UNL     1       6.821   5.497  16.422  0.00  0.00    +0.000 S 
ATOM      8  O   UNL     1       6.968   6.915  16.681  0.00  0.00    +0.000 OA
ATOM      9  O   UNL     1       7.964   4.611  16.374  0.00  0.00    +0.000 OA
BRANCH   7  10
ATOM     10  N   UNL     1       6.020   5.380  14.939  0.00  0.00    +0.000 NA
ATOM     11  H   UNL     1       5.939   6.309  14.521  0.00  0.00    +0.000 HD
BRANCH  10  12
ATOM     12  C   UNL     1       6.378   4.276  14.036  0.00  0.00    +0.000 C 
ATOM     13  C   UNL     1       5.173   3.739  13.280  0.00  0.00    +0.000 C 
ATOM     14  C   UNL     1       5.761   3.062  12.056  0.00  0.00    +0.000 C 
ATOM     15  C   UNL     1       7.054   3.811  11.749  0.00  0.00    +0.000 C 
ATOM     16  C   UNL     1       7.288   4.772  12.913  0.00  0.00    +0.000 C 
ENDBRANCH  10  12
ENDBRANCH   7  10
ENDBRANCH   4   7
BRANCH   1  17
ATOM     17  O   UNL     1       2.979   3.205  20.327  0.00  0.00    +0.000 OA
BRANCH  17  18
ATOM     18  C   UNL     1       2.508   4.127  21.315  0.00  0.00    +0.000 C 
BRANCH  18  20
ATOM     19  O   UNL     1       0.567   4.939  20.143  0.00  0.00    +0.000 OA
ATOM     20  C   UNL     1       1.604   5.211  20.741  0.00  0.00    +0.000 C 
ATOM     21  N   UNL     1       2.044   6.490  20.960  0.00  0.00    +0.000 N 
ATOM     22  H   UNL     1       2.957   6.617  21.387  0.00  0.00    +0.000 HD
BRANCH  21  23
ATOM     23  C   UNL     1       1.336   7.666  20.496  0.00  0.00    +0.000 C 
BRANCH  23  24
ATOM     24  C   UNL     1       1.095   8.671  21.622  0.00  0.00    +0.000 C 
ATOM     25  C   UNL     1      -0.271   8.569  22.284  0.00  0.00    +0.000 C 
ATOM     26  C   UNL     1      -0.503   9.985  22.748  0.00  0.00    +0.000 C 
ATOM     27  C   UNL     1       0.127  10.796  21.637  0.00  0.00    +0.000 C 
ATOM     28  O   UNL     1       1.211  10.018  21.113  0.00  0.00    +0.000 OA
ENDBRANCH  23  24
ENDBRANCH  21  23
ENDBRANCH  18  20
ENDBRANCH  17  18
ENDBRANCH   1  17
TORSDOF 8
ENDMDL
MODEL 6
REMARK VINA RESULT:      -7.2      3.345      7.759
REMARK  Name = 
REMARK  8 active torsions:
REMARK  status: ('A' for Active; 'I' for Inactive)
REMARK    1  A    between atoms: C_2  and  C_3
REMARK    2  A    between atoms: C_3  and  O_4
REMARK    3  A    between atoms: O_4  and  C_5
REMARK    4  A    between atoms: C_8  and  S_9
REMARK    5  A    between atoms: S_9  and  N_12
REMARK    6  A    between atoms: N_12  and  C_13
REMARK    7  A    between atoms: N_20  and  C_21
REMARK    8  A    between atoms: C_21  and  C_22
REMARK                            x       y       z     vdW  Elec       q    Type
REMARK                         _______ _______ _______ _____ _____    ______ ____
ROOT
ATOM      1  C   UNL     1       3.561   6.743  18.300  0.00  0.00    +0.000 A 
ATOM      2  C   UNL     1       3.279   7.784  17.415  0.00  0.00    +0.000 A 
ATOM      3  C   UNL     1       2.358   8.767  17.762  0.00  0.00    +0.000 A 
ATOM      4  C   UNL     1       1.671   8.688  18.975  0.00  0.00    +0.000 A 
ATOM      5  C   UNL     1       1.912   7.628  19.853  0.00  0.00    +0.000 A 
ATOM      6  C   UNL     1       2.859   6.649  19.507  0.00  0.00    +0.000 A 
ENDROOT
BRANCH   4   7
ATOM      7  S   UNL     1       0.522   9.980  19.376  0.00  0.00    +0.000 S 
ATOM      8  O   UNL     1      -0.436   9.426  20.311  0.00  0.00    +0.000 OA
ATOM      9  O   UNL     1       1.260  11.189  19.671  0.00  0.00    +0.000 OA
BRANCH   7  10
ATOM     10  N   UNL     1      -0.333  10.240  17.941  0.00  0.00    +0.000 NA
ATOM     11  H   UNL     1       0.102   9.709  17.185  0.00  0.00    +0.000 HD
BRANCH  10  12
ATOM     12  C   UNL     1      -1.801  10.239  17.993  0.00  0.00    +0.000 C 
ATOM     13  C   UNL     1      -2.366  11.619  18.291  0.00  0.00    +0.000 C 
ATOM     14  C   UNL     1      -3.789  11.572  17.765  0.00  0.00    +0.000 C 
ATOM     15  C   UNL     1      -3.770  10.578  16.609  0.00  0.00    +0.000 C 
ATOM     16  C   UNL     1      -2.389   9.925  16.617  0.00  0.00    +0.000 C 
ENDBRANCH  10  12
ENDBRANCH   7  10
ENDBRANCH   4   7
BRANCH   1  17
ATOM     17  O   UNL     1       4.517   5.786  18.067  0.00  0.00    +0.000 OA
BRANCH  17  18
ATOM     18  C   UNL     1       4.273   4.996  16.898  0.00  0.00    +0.000 C 
BRANCH  18  20
ATOM     19  O   UNL     1       2.452   3.469  16.508  0.00  0.00    +0.000 OA
ATOM     20  C   UNL     1       3.440   3.751  17.179  0.00  0.00    +0.000 C 
ATOM     21  N   UNL     1       3.895   2.989  18.222  0.00  0.00    +0.000 N 
ATOM     22  H   UNL     1       4.668   3.345  18.776  0.00  0.00    +0.000 HD
BRANCH  21  23
ATOM     23  C   UNL     1       3.248   1.766  18.656  0.00  0.00    +0.000 C 
BRANCH  23  24
ATOM     24  C   UNL     1       2.324   2.001  19.851  0.00  0.00    +0.000 C 
ATOM     25  C   UNL     1       1.179   2.968  19.589  0.00  0.00    +0.000 C 
ATOM     26  C   UNL     1       0.933   3.544  20.960  0.00  0.00    +0.000 C 
ATOM     27  C   UNL     1       2.331   3.618  21.535  0.00  0.00    +0.000 C 
ATOM     28  O   UNL     1       3.079   2.541  20.958  0.00  0.00    +0.000 OA
ENDBRANCH  23  24
ENDBRANCH  21  23
ENDBRANCH  18  20
ENDBRANCH  17  18
ENDBRANCH   1  17
TORSDOF 8
ENDMDL
MODEL 7
REMARK VINA RESULT:      -7.1      3.001      4.537
REMARK  Name = 
REMARK  8 active torsions:
REMARK  status: ('A' for Active; 'I' for Inactive)
REMARK    1  A    between atoms: C_2  and  C_3
REMARK    2  A    between atoms: C_3  and  O_4
REMARK    3  A    between atoms: O_4  and  C_5
REMARK    4  A    between atoms: C_8  and  S_9
REMARK    5  A    between atoms: S_9  and  N_12
REMARK    6  A    between atoms: N_12  and  C_13
REMARK    7  A    between atoms: N_20  and  C_21
REMARK    8  A    between atoms: C_21  and  C_22
REMARK                            x       y       z     vdW  Elec       q    Type
REMARK                         _______ _______ _______ _____ _____    ______ ____
ROOT
ATOM      1  C   UNL     1       1.527   6.152  20.597  0.00  0.00    +0.000 A 
ATOM      2  C   UNL     1       1.227   4.793  20.690  0.00  0.00    +0.000 A 
ATOM      3  C   UNL     1       2.126   3.843  20.216  0.00  0.00    +0.000 A 
ATOM      4  C   UNL     1       3.309   4.246  19.595  0.00  0.00    +0.000 A 
ATOM      5  C   UNL     1       3.604   5.605  19.455  0.00  0.00    +0.000 A 
ATOM      6  C   UNL     1       2.703   6.559  19.955  0.00  0.00    +0.000 A 
ENDROOT
BRANCH   4   7
ATOM      7  S   UNL     1       4.429   2.991  19.025  0.00  0.00    +0.000 S 
ATOM      8  O   UNL     1       4.957   2.325  20.198  0.00  0.00    +0.000 OA
ATOM      9  O   UNL     1       3.800   2.253  17.952  0.00  0.00    +0.000 OA
BRANCH   7  10
ATOM     10  N   UNL     1       5.723   3.854  18.364  0.00  0.00    +0.000 NA
ATOM     11  H   UNL     1       6.568   3.670  18.907  0.00  0.00    +0.000 HD
BRANCH  10  12
ATOM     12  C   UNL     1       5.867   3.884  16.902  0.00  0.00    +0.000 C 
ATOM     13  C   UNL     1       4.907   4.867  16.250  0.00  0.00    +0.000 C 
ATOM     14  C   UNL     1       5.540   5.188  14.909  0.00  0.00    +0.000 C 
ATOM     15  C   UNL     1       7.044   5.035  15.114  0.00  0.00    +0.000 C 
ATOM     16  C   UNL     1       7.236   4.438  16.507  0.00  0.00    +0.000 C 
ENDBRANCH  10  12
ENDBRANCH   7  10
ENDBRANCH   4   7
BRANCH   1  17
ATOM     17  O   UNL     1       0.733   7.143  21.117  0.00  0.00    +0.000 OA
BRANCH  17  18
ATOM     18  C   UNL     1       1.361   8.429  21.154  0.00  0.00    +0.000 C 
BRANCH  18  20
ATOM     19  O   UNL     1      -0.234  10.220  21.368  0.00  0.00    +0.000 OA
ATOM     20  C   UNL     1       0.471   9.546  20.623  0.00  0.00    +0.000 C 
ATOM     21  N   UNL     1       0.539   9.728  19.267  0.00  0.00    +0.000 N 
ATOM     22  H   UNL     1       1.081   9.066  18.720  0.00  0.00    +0.000 HD
BRANCH  21  23
ATOM     23  C   UNL     1      -0.229  10.734  18.560  0.00  0.00    +0.000 C 
BRANCH  23  24
ATOM     24  C   UNL     1      -1.680  10.304  18.348  0.00  0.00    +0.000 C 
ATOM     25  C   UNL     1      -2.037   9.958  16.909  0.00  0.00    +0.000 C 
ATOM     26  C   UNL     1      -3.507  10.289  16.861  0.00  0.00    +0.000 C 
ATOM     27  C   UNL     1      -3.593  11.505  17.758  0.00  0.00    +0.000 C 
ATOM     28  O   UNL     1      -2.572  11.365  18.754  0.00  0.00    +0.000 OA
ENDBRANCH  23  24
ENDBRANCH  21  23
ENDBRANCH  18  20
ENDBRANCH  17  18
ENDBRANCH   1  17
TORSDOF 8
ENDMDL
MODEL 8
REMARK VINA RESULT:      -7.1      4.035      8.531
REMARK  Name = 
REMARK  8 active torsions:
REMARK  status: ('A' for Active; 'I' for Inactive)
REMARK    1  A    between atoms: C_2  and  C_3
REMARK    2  A    between atoms: C_3  and  O_4
REMARK    3  A    between atoms: O_4  and  C_5
REMARK    4  A    between atoms: C_8  and  S_9
REMARK    5  A    between atoms: S_9  and  N_12
REMARK    6  A    between atoms: N_12  and  C_13
REMARK    7  A    between atoms: N_20  and  C_21
REMARK    8  A    between atoms: C_21  and  C_22
REMARK                            x       y       z     vdW  Elec       q    Type
REMARK                         _______ _______ _______ _____ _____    ______ ____
ROOT
ATOM      1  C   UNL     1       1.770   8.509  19.216  0.00  0.00    +0.000 A 
ATOM      2  C   UNL     1       1.904   9.260  18.049  0.00  0.00    +0.000 A 
ATOM      3  C   UNL     1       1.366  10.541  17.974  0.00  0.00    +0.000 A 
ATOM      4  C   UNL     1       0.643  11.062  19.049  0.00  0.00    +0.000 A 
ATOM      5  C   UNL     1       0.464  10.305  20.210  0.00  0.00    +0.000 A 
ATOM      6  C   UNL     1       1.028   9.020  20.288  0.00  0.00    +0.000 A 
ENDROOT
BRANCH   4   7
ATOM      7  S   UNL     1      -0.004  12.709  18.908  0.00  0.00    +0.000 S 
ATOM      8  O   UNL     1      -0.686  13.009  20.150  0.00  0.00    +0.000 OA
ATOM      9  O   UNL     1       1.028  13.574  18.380  0.00  0.00    +0.000 OA
BRANCH   7  10
ATOM     10  N   UNL     1      -1.215  12.583  17.736  0.00  0.00    +0.000 NA
ATOM     11  H   UNL     1      -0.834  12.836  16.823  0.00  0.00    +0.000 HD
BRANCH  10  12
ATOM     12  C   UNL     1      -2.113  11.420  17.782  0.00  0.00    +0.000 C 
ATOM     13  C   UNL     1      -3.479  11.771  18.349  0.00  0.00    +0.000 C 
ATOM     14  C   UNL     1      -4.402  10.689  17.819  0.00  0.00    +0.000 C 
ATOM     15  C   UNL     1      -3.804  10.251  16.486  0.00  0.00    +0.000 C 
ATOM     16  C   UNL     1      -2.447  10.942  16.368  0.00  0.00    +0.000 C 
ENDBRANCH  10  12
ENDBRANCH   7  10
ENDBRANCH   4   7
BRANCH   1  17
ATOM     17  O   UNL     1       2.344   7.276  19.396  0.00  0.00    +0.000 OA
BRANCH  17  18
ATOM     18  C   UNL     1       3.014   6.774  18.235  0.00  0.00    +0.000 C 
BRANCH  18  20
ATOM     19  O   UNL     1       4.446   4.917  18.782  0.00  0.00    +0.000 OA
ATOM     20  C   UNL     1       3.367   5.295  18.338  0.00  0.00    +0.000 C 
ATOM     21  N   UNL     1       2.382   4.447  17.905  0.00  0.00    +0.000 N 
ATOM     22  H   UNL     1       1.556   4.851  17.472  0.00  0.00    +0.000 HD
BRANCH  21  23
ATOM     23  C   UNL     1       2.514   3.003  17.914  0.00  0.00    +0.000 C 
BRANCH  23  24
ATOM     24  C   UNL     1       2.034   2.393  19.230  0.00  0.00    +0.000 C 
ATOM     25  C   UNL     1       0.982   3.211  19.965  0.00  0.00    +0.000 C 
ATOM     26  C   UNL     1       1.236   2.834  21.402  0.00  0.00    +0.000 C 
ATOM     27  C   UNL     1       2.741   2.686  21.436  0.00  0.00    +0.000 C 
ATOM     28  O   UNL     1       3.148   2.239  20.136  0.00  0.00    +0.000 OA
ENDBRANCH  23  24
ENDBRANCH  21  23
ENDBRANCH  18  20
ENDBRANCH  17  18
ENDBRANCH   1  17
TORSDOF 8
ENDMDL
MODEL 9
REMARK VINA RESULT:      -6.9      3.318      4.978
REMARK  Name = 
REMARK  8 active torsions:
REMARK  status: ('A' for Active; 'I' for Inactive)
REMARK    1  A    between atoms: C_2  and  C_3
REMARK    2  A    between atoms: C_3  and  O_4
REMARK    3  A    between atoms: O_4  and  C_5
REMARK    4  A    between atoms: C_8  and  S_9
REMARK    5  A    between atoms: S_9  and  N_12
REMARK    6  A    between atoms: N_12  and  C_13
REMARK    7  A    between atoms: N_20  and  C_21
REMARK    8  A    between atoms: C_21  and  C_22
REMARK                            x       y       z     vdW  Elec       q    Type
REMARK                         _______ _______ _______ _____ _____    ______ ____
ROOT
ATOM      1  C   UNL     1       2.031   7.211  20.010  0.00  0.00    +0.000 A 
ATOM      2  C   UNL     1       2.466   7.132  18.687  0.00  0.00    +0.000 A 
ATOM      3  C   UNL     1       2.690   5.893  18.096  0.00  0.00    +0.000 A 
ATOM      4  C   UNL     1       2.532   4.722  18.840  0.00  0.00    +0.000 A 
ATOM      5  C   UNL     1       2.138   4.786  20.179  0.00  0.00    +0.000 A 
ATOM      6  C   UNL     1       1.893   6.040  20.765  0.00  0.00    +0.000 A 
ENDROOT
BRANCH   4   7
ATOM      7  S   UNL     1       2.812   3.168  18.030  0.00  0.00    +0.000 S 
ATOM      8  O   UNL     1       2.473   2.125  18.977  0.00  0.00    +0.000 OA
ATOM      9  O   UNL     1       2.224   3.215  16.709  0.00  0.00    +0.000 OA
BRANCH   7  10
ATOM     10  N   UNL     1       4.490   3.090  17.841  0.00  0.00    +0.000 NA
ATOM     11  H   UNL     1       4.756   2.152  17.539  0.00  0.00    +0.000 HD
BRANCH  10  12
ATOM     12  C   UNL     1       5.171   4.216  17.186  0.00  0.00    +0.000 C 
ATOM     13  C   UNL     1       6.375   4.698  17.979  0.00  0.00    +0.000 C 
ATOM     14  C   UNL     1       7.244   5.411  16.960  0.00  0.00    +0.000 C 
ATOM     15  C   UNL     1       6.962   4.729  15.625  0.00  0.00    +0.000 C 
ATOM     16  C   UNL     1       5.795   3.773  15.863  0.00  0.00    +0.000 C 
ENDBRANCH  10  12
ENDBRANCH   7  10
ENDBRANCH   4   7
BRANCH   1  17
ATOM     17  O   UNL     1       1.707   8.389  20.635  0.00  0.00    +0.000 OA
BRANCH  17  18
ATOM     18  C   UNL     1       0.489   8.332  21.383  0.00  0.00    +0.000 C 
BRANCH  18  20
ATOM     19  O   UNL     1       1.061   9.636  23.325  0.00  0.00    +0.000 OA
ATOM     20  C   UNL     1       0.325   9.495  22.354  0.00  0.00    +0.000 C 
ATOM     21  N   UNL     1      -0.695  10.354  22.040  0.00  0.00    +0.000 N 
ATOM     22  H   UNL     1      -1.309  10.110  21.268  0.00  0.00    +0.000 HD
BRANCH  21  23
ATOM     23  C   UNL     1      -1.024  11.523  22.833  0.00  0.00    +0.000 C 
BRANCH  23  24
ATOM     24  C   UNL     1      -0.801  12.821  22.058  0.00  0.00    +0.000 C 
ATOM     25  C   UNL     1      -1.492  12.880  20.703  0.00  0.00    +0.000 C 
ATOM     26  C   UNL     1      -0.586  13.802  19.927  0.00  0.00    +0.000 C 
ATOM     27  C   UNL     1       0.783  13.428  20.453  0.00  0.00    +0.000 C 
ATOM     28  O   UNL     1       0.610  13.012  21.813  0.00  0.00    +0.000 OA
ENDBRANCH  23  24
ENDBRANCH  21  23
ENDBRANCH  18  20
ENDBRANCH  17  18
ENDBRANCH   1  17
TORSDOF 8
ENDMDL
