MODEL 1
REMARK VINA RESULT:      -8.0      0.000      0.000
REMARK  Name = 
REMARK  3 active torsions:
REMARK  status: ('A' for Active; 'I' for Inactive)
REMARK    1  A    between atoms: C_2  and  C_4
REMARK    2  A    between atoms: C_7  and  N_8
REMARK    3  A    between atoms: C_15  and  N_16
REMARK                            x       y       z     vdW  Elec       q    Type
REMARK                         _______ _______ _______ _____ _____    ______ ____
ROOT
ATOM      1  C   UNL     1       6.357   4.674  15.343  0.00  0.00    +0.000 A 
ATOM      2  C   UNL     1       5.060   4.187  15.393  0.00  0.00    +0.000 A 
ATOM      3  C   UNL     1       4.372   4.135  16.610  0.00  0.00    +0.000 A 
ATOM      4  C   UNL     1       4.921   4.547  17.850  0.00  0.00    +0.000 A 
ATOM      5  C   UNL     1       6.216   5.102  17.734  0.00  0.00    +0.000 A 
ATOM      6  C   UNL     1       6.937   5.157  16.512  0.00  0.00    +0.000 A 
ENDROOT
BRANCH   4   7
ATOM      7  N   UNL     1       4.137   4.380  19.001  0.00  0.00    +0.000 N 
ATOM      8  C   UNL     1       4.215   3.084  19.705  0.00  0.00    +0.000 C 
ATOM      9  C   UNL     1       2.988   2.227  19.385  0.00  0.00    +0.000 C 
ATOM     10  C   UNL     1       1.716   2.650  20.112  0.00  0.00    +0.000 C 
ATOM     11  C   UNL     1       1.341   4.123  19.948  0.00  0.00    +0.000 C 
ATOM     12  C   UNL     1       2.334   5.067  20.627  0.00  0.00    +0.000 C 
ATOM     13  C   UNL     1       3.521   5.486  19.746  0.00  0.00    +0.000 C 
ENDBRANCH   4   7
BRANCH   1  15
ATOM     14  N   UNL     1       6.652   3.724  13.125  0.00  0.00    +0.000 N 
ATOM     15  C   UNL     1       7.056   4.657  14.036  0.00  0.00    +0.000 C 
ATOM     16  O   UNL     1       7.913   5.484  13.758  0.00  0.00    +0.000 OA
ATOM     17  H   UNL     1       7.039   3.826  12.194  0.00  0.00    +0.000 HD
ATOM     18  H   UNL     1       5.782   3.218  13.211  0.00  0.00    +0.000 HD
ENDBRANCH   1  15
BRANCH   5  19
ATOM     19  N   UNL     1       6.952   5.626  18.865  0.00  0.00    +0.000 N 
ATOM     20  O   UNL     1       6.940   4.964  19.913  0.00  0.00    +0.000 OA
ATOM     21  O   UNL     1       7.615   6.654  18.674  0.00  0.00    +0.000 OA
ENDBRANCH   5  19
TORSDOF 3
ENDMDL
MODEL 2
REMARK VINA RESULT:      -7.5      1.201      1.415
REMARK  Name = 
REMARK  3 active torsions:
REMARK  status: ('A' for Active; 'I' for Inactive)
REMARK    1  A    between atoms: C_2  and  C_4
REMARK    2  A    between atoms: C_7  and  N_8
REMARK    3  A    between atoms: C_15  and  N_16
REMARK                            x       y       z     vdW  Elec       q    Type
REMARK                         _______ _______ _______ _____ _____    ______ ____
ROOT
ATOM      1  C   UNL     1       6.792   4.815  14.453  0.00  0.00    +0.000 A 
ATOM      2  C   UNL     1       5.465   4.417  14.501  0.00  0.00    +0.000 A 
ATOM      3  C   UNL     1       4.798   4.331  15.727  0.00  0.00    +0.000 A 
ATOM      4  C   UNL     1       5.398   4.620  16.978  0.00  0.00    +0.000 A 
ATOM      5  C   UNL     1       6.727   5.090  16.868  0.00  0.00    +0.000 A 
ATOM      6  C   UNL     1       7.426   5.176  15.637  0.00  0.00    +0.000 A 
ENDROOT
BRANCH   4   7
ATOM      7  N   UNL     1       4.626   4.431  18.135  0.00  0.00    +0.000 N 
ATOM      8  C   UNL     1       4.646   3.095  18.765  0.00  0.00    +0.000 C 
ATOM      9  C   UNL     1       3.369   2.324  18.423  0.00  0.00    +0.000 C 
ATOM     10  C   UNL     1       2.134   2.773  19.198  0.00  0.00    +0.000 C 
ATOM     11  C   UNL     1       1.837   4.271  19.122  0.00  0.00    +0.000 C 
ATOM     12  C   UNL     1       2.891   5.121  19.831  0.00  0.00    +0.000 C 
ATOM     13  C   UNL     1       4.084   5.525  18.951  0.00  0.00    +0.000 C 
ENDBRANCH   4   7
BRANCH   1  15
ATOM     14  N   UNL     1       8.551   5.651  12.997  0.00  0.00    +0.000 N 
ATOM     15  C   UNL     1       7.463   4.837  13.131  0.00  0.00    +0.000 C 
ATOM     16  O   UNL     1       7.099   4.110  12.217  0.00  0.00    +0.000 OA
ATOM     17  H   UNL     1       9.077   5.539  12.138  0.00  0.00    +0.000 HD
ATOM     18  H   UNL     1       9.038   6.046  13.788  0.00  0.00    +0.000 HD
ENDBRANCH   1  15
BRANCH   5  19
ATOM     19  N   UNL     1       7.519   5.484  18.014  0.00  0.00    +0.000 N 
ATOM     20  O   UNL     1       7.611   6.696  18.257  0.00  0.00    +0.000 OA
ATOM     21  O   UNL     1       7.972   4.575  18.722  0.00  0.00    +0.000 OA
ENDBRANCH   5  19
TORSDOF 3
ENDMDL
MODEL 3
REMARK VINA RESULT:      -7.4      2.109      2.657
REMARK  Name = 
REMARK  3 active torsions:
REMARK  status: ('A' for Active; 'I' for Inactive)
REMARK    1  A    between atoms: C_2  and  C_4
REMARK    2  A    between atoms: C_7  and  N_8
REMARK    3  A    between atoms: C_15  and  N_16
REMARK                            x       y       z     vdW  Elec       q    Type
REMARK                         _______ _______ _______ _____ _____    ______ ____
ROOT
ATOM      1  C   UNL     1       5.956   4.567  15.797  0.00  0.00    +0.000 A 
ATOM      2  C   UNL     1       6.135   5.568  16.741  0.00  0.00    +0.000 A 
ATOM      3  C   UNL     1       5.343   5.600  17.893  0.00  0.00    +0.000 A 
ATOM      4  C   UNL     1       4.322   4.659  18.180  0.00  0.00    +0.000 A 
ATOM      5  C   UNL     1       4.230   3.621  17.225  0.00  0.00    +0.000 A 
ATOM      6  C   UNL     1       5.016   3.572  16.044  0.00  0.00    +0.000 A 
ENDROOT
BRANCH   4   7
ATOM      7  N   UNL     1       3.564   4.850  19.346  0.00  0.00    +0.000 N 
ATOM      8  C   UNL     1       3.917   4.049  20.535  0.00  0.00    +0.000 C 
ATOM      9  C   UNL     1       2.929   2.893  20.713  0.00  0.00    +0.000 C 
ATOM     10  C   UNL     1       1.573   3.304  21.278  0.00  0.00    +0.000 C 
ATOM     11  C   UNL     1       0.875   4.433  20.519  0.00  0.00    +0.000 C 
ATOM     12  C   UNL     1       1.605   5.770  20.642  0.00  0.00    +0.000 C 
ATOM     13  C   UNL     1       2.689   6.007  19.579  0.00  0.00    +0.000 C 
ENDBRANCH   4   7
BRANCH   1  15
ATOM     14  N   UNL     1       6.479   3.734  13.573  0.00  0.00    +0.000 N 
ATOM     15  C   UNL     1       6.788   4.614  14.571  0.00  0.00    +0.000 C 
ATOM     16  O   UNL     1       7.672   5.447  14.429  0.00  0.00    +0.000 OA
ATOM     17  H   UNL     1       6.962   3.882  12.695  0.00  0.00    +0.000 HD
ATOM     18  H   UNL     1       5.604   3.232  13.540  0.00  0.00    +0.000 HD
ENDBRANCH   1  15
BRANCH   5  19
ATOM     19  N   UNL     1       3.287   2.528  17.339  0.00  0.00    +0.000 N 
ATOM     20  O   UNL     1       3.715   1.443  17.756  0.00  0.00    +0.000 OA
ATOM     21  O   UNL     1       2.100   2.786  17.096  0.00  0.00    +0.000 OA
ENDBRANCH   5  19
TORSDOF 3
ENDMDL
MODEL 4
REMARK VINA RESULT:      -7.4      1.193      1.668
REMARK  Name = 
REMARK  3 active torsions:
REMARK  status: ('A' for Active; 'I' for Inactive)
REMARK    1  A    between atoms: C_2  and  C_4
REMARK    2  A    between atoms: C_7  and  N_8
REMARK    3  A    between atoms: C_15  and  N_16
REMARK                            x       y       z     vdW  Elec       q    Type
REMARK                         _______ _______ _______ _____ _____    ______ ____
ROOT
ATOM      1  C   UNL     1       6.127   4.477  15.723  0.00  0.00    +0.000 A 
ATOM      2  C   UNL     1       5.108   3.560  15.511  0.00  0.00    +0.000 A 
ATOM      3  C   UNL     1       4.288   3.160  16.571  0.00  0.00    +0.000 A 
ATOM      4  C   UNL     1       4.427   3.628  17.902  0.00  0.00    +0.000 A 
ATOM      5  C   UNL     1       5.429   4.613  18.049  0.00  0.00    +0.000 A 
ATOM      6  C   UNL     1       6.280   5.028  16.991  0.00  0.00    +0.000 A 
ENDROOT
BRANCH   4   7
ATOM      7  N   UNL     1       3.571   3.093  18.877  0.00  0.00    +0.000 N 
ATOM      8  C   UNL     1       2.185   2.775  18.477  0.00  0.00    +0.000 C 
ATOM      9  C   UNL     1       1.223   3.854  18.978  0.00  0.00    +0.000 C 
ATOM     10  C   UNL     1       0.908   3.775  20.469  0.00  0.00    +0.000 C 
ATOM     11  C   UNL     1       2.132   3.746  21.384  0.00  0.00    +0.000 C 
ATOM     12  C   UNL     1       2.951   2.464  21.240  0.00  0.00    +0.000 C 
ATOM     13  C   UNL     1       4.029   2.512  20.146  0.00  0.00    +0.000 C 
ENDBRANCH   4   7
BRANCH   1  15
ATOM     14  N   UNL     1       6.723   4.225  13.379  0.00  0.00    +0.000 N 
ATOM     15  C   UNL     1       6.998   4.824  14.575  0.00  0.00    +0.000 C 
ATOM     16  O   UNL     1       7.885   5.661  14.675  0.00  0.00    +0.000 OA
ATOM     17  H   UNL     1       7.234   4.586  12.583  0.00  0.00    +0.000 HD
ATOM     18  H   UNL     1       5.850   3.753  13.193  0.00  0.00    +0.000 HD
ENDBRANCH   1  15
BRANCH   5  19
ATOM     19  N   UNL     1       5.716   5.262  19.311  0.00  0.00    +0.000 N 
ATOM     20  O   UNL     1       6.874   5.181  19.747  0.00  0.00    +0.000 OA
ATOM     21  O   UNL     1       4.804   5.928  19.819  0.00  0.00    +0.000 OA
ENDBRANCH   5  19
TORSDOF 3
ENDMDL
MODEL 5
REMARK VINA RESULT:      -7.2      1.430      1.964
REMARK  Name = 
REMARK  3 active torsions:
REMARK  status: ('A' for Active; 'I' for Inactive)
REMARK    1  A    between atoms: C_2  and  C_4
REMARK    2  A    between atoms: C_7  and  N_8
REMARK    3  A    between atoms: C_15  and  N_16
REMARK                            x       y       z     vdW  Elec       q    Type
REMARK                         _______ _______ _______ _____ _____    ______ ____
ROOT
ATOM      1  C   UNL     1       6.804   4.773  14.346  0.00  0.00    +0.000 A 
ATOM      2  C   UNL     1       5.559   4.190  14.165  0.00  0.00    +0.000 A 
ATOM      3  C   UNL     1       4.763   3.868  15.269  0.00  0.00    +0.000 A 
ATOM      4  C   UNL     1       5.149   4.087  16.615  0.00  0.00    +0.000 A 
ATOM      5  C   UNL     1       6.392   4.747  16.743  0.00  0.00    +0.000 A 
ATOM      6  C   UNL     1       7.220   5.076  15.638  0.00  0.00    +0.000 A 
ENDROOT
BRANCH   4   7
ATOM      7  N   UNL     1       4.275   3.656  17.626  0.00  0.00    +0.000 N 
ATOM      8  C   UNL     1       2.852   3.474  17.273  0.00  0.00    +0.000 C 
ATOM      9  C   UNL     1       2.021   4.653  17.785  0.00  0.00    +0.000 C 
ATOM     10  C   UNL     1       1.748   4.629  19.285  0.00  0.00    +0.000 C 
ATOM     11  C   UNL     1       2.992   4.489  20.164  0.00  0.00    +0.000 C 
ATOM     12  C   UNL     1       3.672   3.127  20.017  0.00  0.00    +0.000 C 
ATOM     13  C   UNL     1       4.713   3.050  18.890  0.00  0.00    +0.000 C 
ENDBRANCH   4   7
BRANCH   1  15
ATOM     14  N   UNL     1       8.683   5.897  13.287  0.00  0.00    +0.000 N 
ATOM     15  C   UNL     1       7.625   5.045  13.142  0.00  0.00    +0.000 C 
ATOM     16  O   UNL     1       7.407   4.481  12.079  0.00  0.00    +0.000 OA
ATOM     17  H   UNL     1       9.311   5.951  12.494  0.00  0.00    +0.000 HD
ATOM     18  H   UNL     1       9.053   6.158  14.189  0.00  0.00    +0.000 HD
ENDBRANCH   1  15
BRANCH   5  19
ATOM     19  N   UNL     1       6.963   5.110  18.023  0.00  0.00    +0.000 N 
ATOM     20  O   UNL     1       6.406   6.013  18.663  0.00  0.00    +0.000 OA
ATOM     21  O   UNL     1       7.914   4.427  18.426  0.00  0.00    +0.000 OA
ENDBRANCH   5  19
TORSDOF 3
ENDMDL
MODEL 6
REMARK VINA RESULT:      -7.1      1.430      1.871
REMARK  Name = 
REMARK  3 active torsions:
REMARK  status: ('A' for Active; 'I' for Inactive)
REMARK    1  A    between atoms: C_2  and  C_4
REMARK    2  A    between atoms: C_7  and  N_8
REMARK    3  A    between atoms: C_15  and  N_16
REMARK                            x       y       z     vdW  Elec       q    Type
REMARK                         _______ _______ _______ _____ _____    ______ ____
ROOT
ATOM      1  C   UNL     1       5.925   4.341  15.650  0.00  0.00    +0.000 A 
ATOM      2  C   UNL     1       4.963   3.352  15.510  0.00  0.00    +0.000 A 
ATOM      3  C   UNL     1       4.179   2.970  16.604  0.00  0.00    +0.000 A 
ATOM      4  C   UNL     1       4.303   3.528  17.901  0.00  0.00    +0.000 A 
ATOM      5  C   UNL     1       5.244   4.580  17.973  0.00  0.00    +0.000 A 
ATOM      6  C   UNL     1       6.056   4.979  16.879  0.00  0.00    +0.000 A 
ENDROOT
BRANCH   4   7
ATOM      7  N   UNL     1       3.491   3.005  18.920  0.00  0.00    +0.000 N 
ATOM      8  C   UNL     1       2.104   2.636  18.573  0.00  0.00    +0.000 C 
ATOM      9  C   UNL     1       1.128   3.706  19.068  0.00  0.00    +0.000 C 
ATOM     10  C   UNL     1       0.861   3.669  20.570  0.00  0.00    +0.000 C 
ATOM     11  C   UNL     1       2.112   3.704  21.447  0.00  0.00    +0.000 C 
ATOM     12  C   UNL     1       2.961   2.440  21.321  0.00  0.00    +0.000 C 
ATOM     13  C   UNL     1       4.004   2.480  20.192  0.00  0.00    +0.000 C 
ENDBRANCH   4   7
BRANCH   1  15
ATOM     14  N   UNL     1       7.786   5.550  14.658  0.00  0.00    +0.000 N 
ATOM     15  C   UNL     1       6.761   4.668  14.471  0.00  0.00    +0.000 C 
ATOM     16  O   UNL     1       6.584   4.123  13.390  0.00  0.00    +0.000 OA
ATOM     17  H   UNL     1       8.429   5.644  13.880  0.00  0.00    +0.000 HD
ATOM     18  H   UNL     1       8.129   5.803  15.573  0.00  0.00    +0.000 HD
ENDBRANCH   1  15
BRANCH   5  19
ATOM     19  N   UNL     1       5.503   5.323  19.188  0.00  0.00    +0.000 N 
ATOM     20  O   UNL     1       4.560   5.956  19.685  0.00  0.00    +0.000 OA
ATOM     21  O   UNL     1       6.627   5.198  19.692  0.00  0.00    +0.000 OA
ENDBRANCH   5  19
TORSDOF 3
ENDMDL
MODEL 7
REMARK VINA RESULT:      -7.1      1.150      1.491
REMARK  Name = 
REMARK  3 active torsions:
REMARK  status: ('A' for Active; 'I' for Inactive)
REMARK    1  A    between atoms: C_2  and  C_4
REMARK    2  A    between atoms: C_7  and  N_8
REMARK    3  A    between atoms: C_15  and  N_16
REMARK                            x       y       z     vdW  Elec       q    Type
REMARK                         _______ _______ _______ _____ _____    ______ ____
ROOT
ATOM      1  C   UNL     1       6.378   4.494  14.328  0.00  0.00    +0.000 A 
ATOM      2  C   UNL     1       5.164   3.928  14.687  0.00  0.00    +0.000 A 
ATOM      3  C   UNL     1       4.619   4.170  15.953  0.00  0.00    +0.000 A 
ATOM      4  C   UNL     1       5.240   4.972  16.943  0.00  0.00    +0.000 A 
ATOM      5  C   UNL     1       6.436   5.584  16.502  0.00  0.00    +0.000 A 
ATOM      6  C   UNL     1       7.012   5.346  15.227  0.00  0.00    +0.000 A 
ENDROOT
BRANCH   4   7
ATOM      7  N   UNL     1       4.608   5.078  18.192  0.00  0.00    +0.000 N 
ATOM      8  C   UNL     1       5.087   4.203  19.281  0.00  0.00    +0.000 C 
ATOM      9  C   UNL     1       4.127   3.028  19.484  0.00  0.00    +0.000 C 
ATOM     10  C   UNL     1       2.836   3.387  20.214  0.00  0.00    +0.000 C 
ATOM     11  C   UNL     1       2.059   4.557  19.609  0.00  0.00    +0.000 C 
ATOM     12  C   UNL     1       2.793   5.890  19.744  0.00  0.00    +0.000 C 
ATOM     13  C   UNL     1       3.759   6.208  18.592  0.00  0.00    +0.000 C 
ENDBRANCH   4   7
BRANCH   1  15
ATOM     14  N   UNL     1       6.477   3.020  12.397  0.00  0.00    +0.000 N 
ATOM     15  C   UNL     1       6.932   4.161  12.995  0.00  0.00    +0.000 C 
ATOM     16  O   UNL     1       7.715   4.906  12.423  0.00  0.00    +0.000 OA
ATOM     17  H   UNL     1       6.756   2.892  11.432  0.00  0.00    +0.000 HD
ATOM     18  H   UNL     1       5.646   2.537  12.706  0.00  0.00    +0.000 HD
ENDBRANCH   1  15
BRANCH   5  19
ATOM     19  N   UNL     1       7.215   6.478  17.332  0.00  0.00    +0.000 N 
ATOM     20  O   UNL     1       7.148   7.691  17.087  0.00  0.00    +0.000 OA
ATOM     21  O   UNL     1       7.821   5.972  18.286  0.00  0.00    +0.000 OA
ENDBRANCH   5  19
TORSDOF 3
ENDMDL
MODEL 8
REMARK VINA RESULT:      -7.0      2.774      3.341
REMARK  Name = 
REMARK  3 active torsions:
REMARK  status: ('A' for Active; 'I' for Inactive)
REMARK    1  A    between atoms: C_2  and  C_4
REMARK    2  A    between atoms: C_7  and  N_8
REMARK    3  A    between atoms: C_15  and  N_16
REMARK                            x       y       z     vdW  Elec       q    Type
REMARK                         _______ _______ _______ _____ _____    ______ ____
ROOT
ATOM      1  C   UNL     1       6.402   6.247  17.909  0.00  0.00    +0.000 A 
ATOM      2  C   UNL     1       6.686   5.021  18.493  0.00  0.00    +0.000 A 
ATOM      3  C   UNL     1       5.654   4.231  19.011  0.00  0.00    +0.000 A 
ATOM      4  C   UNL     1       4.286   4.604  18.996  0.00  0.00    +0.000 A 
ATOM      5  C   UNL     1       4.044   5.824  18.327  0.00  0.00    +0.000 A 
ATOM      6  C   UNL     1       5.074   6.647  17.802  0.00  0.00    +0.000 A 
ENDROOT
BRANCH   4   7
ATOM      7  N   UNL     1       3.365   3.739  19.608  0.00  0.00    +0.000 N 
ATOM      8  C   UNL     1       3.278   2.355  19.099  0.00  0.00    +0.000 C 
ATOM      9  C   UNL     1       2.043   2.190  18.210  0.00  0.00    +0.000 C 
ATOM     10  C   UNL     1       0.726   2.092  18.972  0.00  0.00    +0.000 C 
ATOM     11  C   UNL     1       0.468   3.228  19.962  0.00  0.00    +0.000 C 
ATOM     12  C   UNL     1       1.436   3.214  21.146  0.00  0.00    +0.000 C 
ATOM     13  C   UNL     1       2.741   3.991  20.913  0.00  0.00    +0.000 C 
ENDBRANCH   4   7
BRANCH   1  15
ATOM     14  N   UNL     1       8.175   7.855  18.341  0.00  0.00    +0.000 N 
ATOM     15  C   UNL     1       7.540   7.065  17.425  0.00  0.00    +0.000 C 
ATOM     16  O   UNL     1       7.937   6.988  16.271  0.00  0.00    +0.000 OA
ATOM     17  H   UNL     1       9.033   8.288  18.022  0.00  0.00    +0.000 HD
ATOM     18  H   UNL     1       8.057   7.739  19.336  0.00  0.00    +0.000 HD
ENDBRANCH   1  15
BRANCH   5  19
ATOM     19  N   UNL     1       2.717   6.377  18.154  0.00  0.00    +0.000 N 
ATOM     20  O   UNL     1       1.844   5.635  17.683  0.00  0.00    +0.000 OA
ATOM     21  O   UNL     1       2.529   7.526  18.577  0.00  0.00    +0.000 OA
ENDBRANCH   5  19
TORSDOF 3
ENDMDL
MODEL 9
REMARK VINA RESULT:      -6.9      1.114      1.937
REMARK  Name = 
REMARK  3 active torsions:
REMARK  status: ('A' for Active; 'I' for Inactive)
REMARK    1  A    between atoms: C_2  and  C_4
REMARK    2  A    between atoms: C_7  and  N_8
REMARK    3  A    between atoms: C_15  and  N_16
REMARK                            x       y       z     vdW  Elec       q    Type
REMARK                         _______ _______ _______ _____ _____    ______ ____
ROOT
ATOM      1  C   UNL     1       6.788   4.864  14.441  0.00  0.00    +0.000 A 
ATOM      2  C   UNL     1       5.556   4.309  14.126  0.00  0.00    +0.000 A 
ATOM      3  C   UNL     1       4.637   4.012  15.138  0.00  0.00    +0.000 A 
ATOM      4  C   UNL     1       4.879   4.230  16.518  0.00  0.00    +0.000 A 
ATOM      5  C   UNL     1       6.116   4.862  16.778  0.00  0.00    +0.000 A 
ATOM      6  C   UNL     1       7.067   5.165  15.770  0.00  0.00    +0.000 A 
ENDROOT
BRANCH   4   7
ATOM      7  N   UNL     1       3.890   3.826  17.428  0.00  0.00    +0.000 N 
ATOM      8  C   UNL     1       2.844   4.805  17.786  0.00  0.00    +0.000 C 
ATOM      9  C   UNL     1       3.124   5.405  19.166  0.00  0.00    +0.000 C 
ATOM     10  C   UNL     1       2.791   4.483  20.334  0.00  0.00    +0.000 C 
ATOM     11  C   UNL     1       3.434   3.098  20.264  0.00  0.00    +0.000 C 
ATOM     12  C   UNL     1       2.884   2.247  19.119  0.00  0.00    +0.000 C 
ATOM     13  C   UNL     1       3.617   2.426  17.780  0.00  0.00    +0.000 C 
ENDBRANCH   4   7
BRANCH   1  15
ATOM     14  N   UNL     1       7.464   4.526  12.129  0.00  0.00    +0.000 N 
ATOM     15  C   UNL     1       7.742   5.109  13.333  0.00  0.00    +0.000 C 
ATOM     16  O   UNL     1       8.703   5.854  13.470  0.00  0.00    +0.000 OA
ATOM     17  H   UNL     1       8.045   4.826  11.356  0.00  0.00    +0.000 HD
ATOM     18  H   UNL     1       6.558   4.142  11.906  0.00  0.00    +0.000 HD
ENDBRANCH   1  15
BRANCH   5  19
ATOM     19  N   UNL     1       6.552   5.219  18.112  0.00  0.00    +0.000 N 
ATOM     20  O   UNL     1       6.580   4.321  18.965  0.00  0.00    +0.000 OA
ATOM     21  O   UNL     1       6.952   6.379  18.279  0.00  0.00    +0.000 OA
ENDBRANCH   5  19
TORSDOF 3
ENDMDL
