MODEL 1
REMARK VINA RESULT:      -8.5      0.000      0.000
REMARK  Name = 
REMARK  10 active torsions:
REMARK  status: ('A' for Active; 'I' for Inactive)
REMARK    1  A    between atoms: C_1  and  C_2
REMARK    2  A    between atoms: N_10  and  C_11
REMARK    3  A    between atoms: N_18  and  C_19
REMARK    4  A    between atoms: C_19  and  C_20
REMARK    5  A    between atoms: C_20  and  C_21
REMARK    6  A    between atoms: C_21  and  C_22
REMARK    7  A    between atoms: C_21  and  C_32
REMARK    8  A    between atoms: C_22  and  O_23
REMARK    9  A    between atoms: O_23  and  C_24
REMARK   10  A    between atoms: C_24  and  C_25
REMARK                            x       y       z     vdW  Elec       q    Type
REMARK                         _______ _______ _______ _____ _____    ______ ____
ROOT
ATOM      1  C   UNL     1       1.232   9.387  17.991  0.00  0.00    +0.000 C 
ENDROOT
BRANCH   1   9
ATOM      2  C   UNL     1      -1.520  11.398  19.153  0.00  0.00    +0.000 C 
ATOM      3  C   UNL     1      -1.150  10.035  19.780  0.00  0.00    +0.000 C 
ATOM      4  C   UNL     1       0.324   9.977  20.229  0.00  0.00    +0.000 C 
ATOM      5  C   UNL     1       0.650  11.122  21.200  0.00  0.00    +0.000 C 
ATOM      6  C   UNL     1       1.137  12.262  20.298  0.00  0.00    +0.000 C 
ATOM      7  C   UNL     1       1.012  11.712  18.870  0.00  0.00    +0.000 C 
ATOM      8  C   UNL     1      -0.389  11.956  18.264  0.00  0.00    +0.000 C 
ATOM      9  N   UNL     1       1.263  10.292  19.142  0.00  0.00    +0.000 NA
BRANCH   2  19
ATOM     10  C   UNL     1      -2.267   9.902  16.517  0.00  0.00    +0.000 C 
ATOM     11  C   UNL     1      -3.155  10.802  17.295  0.00  0.00    +0.000 A 
ATOM     12  N   UNL     1      -4.374  11.135  16.914  0.00  0.00    +0.000 NA
ATOM     13  C   UNL     1      -4.895  11.864  17.944  0.00  0.00    +0.000 A 
ATOM     14  C   UNL     1      -6.157  12.447  18.100  0.00  0.00    +0.000 A 
ATOM     15  C   UNL     1      -6.413  13.090  19.311  0.00  0.00    +0.000 A 
ATOM     16  C   UNL     1      -5.410  13.137  20.277  0.00  0.00    +0.000 A 
ATOM     17  N   UNL     1      -4.157  12.623  20.156  0.00  0.00    +0.000 NA
ATOM     18  C   UNL     1      -3.975  12.004  18.975  0.00  0.00    +0.000 A 
ATOM     19  N   UNL     1      -2.836  11.381  18.515  0.00  0.00    +0.000 N 
ENDBRANCH   2  19
ENDBRANCH   1   9
BRANCH   1  20
ATOM     20  C   UNL     1       2.555   8.618  17.753  0.00  0.00    +0.000 C 
BRANCH  20  21
ATOM     21  C   UNL     1       2.531   7.135  18.193  0.00  0.00    +0.000 C 
BRANCH  21  22
ATOM     22  C   UNL     1       3.725   6.385  17.597  0.00  0.00    +0.000 A 
ATOM     23  C   UNL     1       4.979   7.013  17.535  0.00  0.00    +0.000 A 
ATOM     24  C   UNL     1       6.105   6.323  17.079  0.00  0.00    +0.000 A 
ATOM     25  C   UNL     1       5.997   4.996  16.672  0.00  0.00    +0.000 A 
ATOM     26  C   UNL     1       4.760   4.357  16.725  0.00  0.00    +0.000 A 
ATOM     27  C   UNL     1       3.633   5.043  17.188  0.00  0.00    +0.000 A 
ENDBRANCH  21  22
BRANCH  21  28
ATOM     28  C   UNL     1       2.465   6.961  19.735  0.00  0.00    +0.000 C 
BRANCH  28  29
ATOM     29  O   UNL     1       1.432   6.049  20.156  0.00  0.00    +0.000 OA
BRANCH  29  30
ATOM     30  C   UNL     1       1.972   5.034  21.018  0.00  0.00    +0.000 C 
BRANCH  30  31
ATOM     31  C   UNL     1       2.405   3.773  20.292  0.00  0.00    +0.000 A 
ATOM     32  C   UNL     1       1.586   3.152  19.335  0.00  0.00    +0.000 A 
ATOM     33  C   UNL     1       2.061   2.087  18.569  0.00  0.00    +0.000 A 
ATOM     34  C   UNL     1       3.363   1.635  18.750  0.00  0.00    +0.000 A 
ATOM     35  F   UNL     1       3.837   0.647  17.981  0.00  0.00    +0.000 F 
ATOM     36  C   UNL     1       4.191   2.216  19.701  0.00  0.00    +0.000 A 
ATOM     37  C   UNL     1       3.713   3.281  20.470  0.00  0.00    +0.000 A 
ENDBRANCH  30  31
ENDBRANCH  29  30
ENDBRANCH  28  29
ENDBRANCH  21  28
ENDBRANCH  20  21
ENDBRANCH   1  20
TORSDOF 9
ENDMDL
MODEL 2
REMARK VINA RESULT:      -8.1      1.055      2.053
REMARK  Name = 
REMARK  10 active torsions:
REMARK  status: ('A' for Active; 'I' for Inactive)
REMARK    1  A    between atoms: C_1  and  C_2
REMARK    2  A    between atoms: N_10  and  C_11
REMARK    3  A    between atoms: N_18  and  C_19
REMARK    4  A    between atoms: C_19  and  C_20
REMARK    5  A    between atoms: C_20  and  C_21
REMARK    6  A    between atoms: C_21  and  C_22
REMARK    7  A    between atoms: C_21  and  C_32
REMARK    8  A    between atoms: C_22  and  O_23
REMARK    9  A    between atoms: O_23  and  C_24
REMARK   10  A    between atoms: C_24  and  C_25
REMARK                            x       y       z     vdW  Elec       q    Type
REMARK                         _______ _______ _______ _____ _____    ______ ____
ROOT
ATOM      1  C   UNL     1       1.389   9.359  18.184  0.00  0.00    +0.000 C 
ENDROOT
BRANCH   1   9
ATOM      2  C   UNL     1      -1.177  11.515  19.503  0.00  0.00    +0.000 C 
ATOM      3  C   UNL     1      -0.955  10.068  20.001  0.00  0.00    +0.000 C 
ATOM      4  C   UNL     1       0.497   9.823  20.458  0.00  0.00    +0.000 C 
ATOM      5  C   UNL     1       0.914  10.834  21.538  0.00  0.00    +0.000 C 
ATOM      6  C   UNL     1       1.528  12.000  20.753  0.00  0.00    +0.000 C 
ATOM      7  C   UNL     1       1.378  11.601  19.279  0.00  0.00    +0.000 C 
ATOM      8  C   UNL     1       0.020  12.039  18.684  0.00  0.00    +0.000 C 
ATOM      9  N   UNL     1       1.484  10.144  19.417  0.00  0.00    +0.000 NA
BRANCH   2  19
ATOM     10  C   UNL     1      -3.669  12.946  20.722  0.00  0.00    +0.000 C 
ATOM     11  C   UNL     1      -3.617  12.234  19.420  0.00  0.00    +0.000 A 
ATOM     12  N   UNL     1      -4.667  12.063  18.638  0.00  0.00    +0.000 NA
ATOM     13  C   UNL     1      -4.186  11.481  17.500  0.00  0.00    +0.000 A 
ATOM     14  C   UNL     1      -4.843  11.101  16.325  0.00  0.00    +0.000 A 
ATOM     15  C   UNL     1      -4.055  10.577  15.300  0.00  0.00    +0.000 A 
ATOM     16  C   UNL     1      -2.684  10.440  15.504  0.00  0.00    +0.000 A 
ATOM     17  N   UNL     1      -2.008  10.755  16.640  0.00  0.00    +0.000 NA
ATOM     18  C   UNL     1      -2.817  11.269  17.585  0.00  0.00    +0.000 A 
ATOM     19  N   UNL     1      -2.475  11.688  18.852  0.00  0.00    +0.000 N 
ENDBRANCH   2  19
ENDBRANCH   1   9
BRANCH   1  20
ATOM     20  C   UNL     1       2.685   8.595  17.816  0.00  0.00    +0.000 C 
BRANCH  20  21
ATOM     21  C   UNL     1       2.705   7.109  18.246  0.00  0.00    +0.000 C 
BRANCH  21  22
ATOM     22  C   UNL     1       4.024   6.453  17.829  0.00  0.00    +0.000 A 
ATOM     23  C   UNL     1       4.761   5.718  18.770  0.00  0.00    +0.000 A 
ATOM     24  C   UNL     1       5.922   5.035  18.398  0.00  0.00    +0.000 A 
ATOM     25  C   UNL     1       6.369   5.082  17.080  0.00  0.00    +0.000 A 
ATOM     26  C   UNL     1       5.651   5.808  16.133  0.00  0.00    +0.000 A 
ATOM     27  C   UNL     1       4.485   6.486  16.502  0.00  0.00    +0.000 A 
ENDBRANCH  21  22
BRANCH  21  28
ATOM     28  C   UNL     1       2.430   6.913  19.762  0.00  0.00    +0.000 C 
BRANCH  28  29
ATOM     29  O   UNL     1       1.309   6.046  20.024  0.00  0.00    +0.000 OA
BRANCH  29  30
ATOM     30  C   UNL     1       1.721   4.900  20.787  0.00  0.00    +0.000 C 
BRANCH  30  31
ATOM     31  C   UNL     1       2.236   3.749  19.942  0.00  0.00    +0.000 A 
ATOM     32  C   UNL     1       1.789   3.539  18.628  0.00  0.00    +0.000 A 
ATOM     33  C   UNL     1       2.384   2.572  17.815  0.00  0.00    +0.000 A 
ATOM     34  C   UNL     1       3.437   1.810  18.310  0.00  0.00    +0.000 A 
ATOM     35  F   UNL     1       4.042   0.918  17.516  0.00  0.00    +0.000 F 
ATOM     36  C   UNL     1       3.888   1.981  19.611  0.00  0.00    +0.000 A 
ATOM     37  C   UNL     1       3.289   2.947  20.425  0.00  0.00    +0.000 A 
ENDBRANCH  30  31
ENDBRANCH  29  30
ENDBRANCH  28  29
ENDBRANCH  21  28
ENDBRANCH  20  21
ENDBRANCH   1  20
TORSDOF 9
ENDMDL
MODEL 3
REMARK VINA RESULT:      -8.0      2.655      5.082
REMARK  Name = 
REMARK  10 active torsions:
REMARK  status: ('A' for Active; 'I' for Inactive)
REMARK    1  A    between atoms: C_1  and  C_2
REMARK    2  A    between atoms: N_10  and  C_11
REMARK    3  A    between atoms: N_18  and  C_19
REMARK    4  A    between atoms: C_19  and  C_20
REMARK    5  A    between atoms: C_20  and  C_21
REMARK    6  A    between atoms: C_21  and  C_22
REMARK    7  A    between atoms: C_21  and  C_32
REMARK    8  A    between atoms: C_22  and  O_23
REMARK    9  A    between atoms: O_23  and  C_24
REMARK   10  A    between atoms: C_24  and  C_25
REMARK                            x       y       z     vdW  Elec       q    Type
REMARK                         _______ _______ _______ _____ _____    ______ ____
ROOT
ATOM      1  C   UNL     1       1.888   9.929  18.581  0.00  0.00    +0.000 C 
ENDROOT
BRANCH   1   9
ATOM      2  C   UNL     1       0.372  13.006  19.679  0.00  0.00    +0.000 C 
ATOM      3  C   UNL     1      -0.131  12.210  18.453  0.00  0.00    +0.000 C 
ATOM      4  C   UNL     1      -0.452  10.742  18.798  0.00  0.00    +0.000 C 
ATOM      5  C   UNL     1      -1.467  10.655  19.949  0.00  0.00    +0.000 C 
ATOM      6  C   UNL     1      -0.604  10.596  21.215  0.00  0.00    +0.000 C 
ATOM      7  C   UNL     1       0.841  10.702  20.710  0.00  0.00    +0.000 C 
ATOM      8  C   UNL     1       1.312  12.168  20.571  0.00  0.00    +0.000 C 
ATOM      9  N   UNL     1       0.686  10.040  19.410  0.00  0.00    +0.000 NA
BRANCH   2  19
ATOM     10  C   UNL     1      -1.104  15.735  20.014  0.00  0.00    +0.000 C 
ATOM     11  C   UNL     1       0.217  15.527  19.368  0.00  0.00    +0.000 A 
ATOM     12  N   UNL     1       0.906  16.490  18.785  0.00  0.00    +0.000 NA
ATOM     13  C   UNL     1       2.098  15.926  18.431  0.00  0.00    +0.000 A 
ATOM     14  C   UNL     1       3.219  16.484  17.809  0.00  0.00    +0.000 A 
ATOM     15  C   UNL     1       4.324  15.652  17.630  0.00  0.00    +0.000 A 
ATOM     16  C   UNL     1       4.248  14.327  18.052  0.00  0.00    +0.000 A 
ATOM     17  N   UNL     1       3.168  13.729  18.622  0.00  0.00    +0.000 NA
ATOM     18  C   UNL     1       2.141  14.583  18.781  0.00  0.00    +0.000 A 
ATOM     19  N   UNL     1       0.899  14.320  19.315  0.00  0.00    +0.000 N 
ENDBRANCH   2  19
ENDBRANCH   1   9
BRANCH   1  20
ATOM     20  C   UNL     1       1.946   8.646  17.716  0.00  0.00    +0.000 C 
BRANCH  20  21
ATOM     21  C   UNL     1       3.045   7.637  18.127  0.00  0.00    +0.000 C 
BRANCH  21  22
ATOM     22  C   UNL     1       2.412   6.374  18.717  0.00  0.00    +0.000 A 
ATOM     23  C   UNL     1       2.283   6.248  20.109  0.00  0.00    +0.000 A 
ATOM     24  C   UNL     1       1.631   5.148  20.673  0.00  0.00    +0.000 A 
ATOM     25  C   UNL     1       1.101   4.153  19.856  0.00  0.00    +0.000 A 
ATOM     26  C   UNL     1       1.220   4.261  18.472  0.00  0.00    +0.000 A 
ATOM     27  C   UNL     1       1.866   5.365  17.905  0.00  0.00    +0.000 A 
ENDBRANCH  21  22
BRANCH  21  28
ATOM     28  C   UNL     1       4.017   7.292  16.965  0.00  0.00    +0.000 C 
BRANCH  28  29
ATOM     29  O   UNL     1       5.394   7.231  17.382  0.00  0.00    +0.000 OA
BRANCH  29  30
ATOM     30  C   UNL     1       6.017   6.028  16.902  0.00  0.00    +0.000 C 
BRANCH  30  31
ATOM     31  C   UNL     1       5.466   4.758  17.524  0.00  0.00    +0.000 A 
ATOM     32  C   UNL     1       5.433   4.569  18.915  0.00  0.00    +0.000 A 
ATOM     33  C   UNL     1       4.785   3.466  19.473  0.00  0.00    +0.000 A 
ATOM     34  C   UNL     1       4.159   2.542  18.643  0.00  0.00    +0.000 A 
ATOM     35  F   UNL     1       3.493   1.512  19.178  0.00  0.00    +0.000 F 
ATOM     36  C   UNL     1       4.190   2.691  17.263  0.00  0.00    +0.000 A 
ATOM     37  C   UNL     1       4.843   3.795  16.705  0.00  0.00    +0.000 A 
ENDBRANCH  30  31
ENDBRANCH  29  30
ENDBRANCH  28  29
ENDBRANCH  21  28
ENDBRANCH  20  21
ENDBRANCH   1  20
TORSDOF 9
ENDMDL
MODEL 4
REMARK VINA RESULT:      -7.9      6.366     10.362
REMARK  Name = 
REMARK  10 active torsions:
REMARK  status: ('A' for Active; 'I' for Inactive)
REMARK    1  A    between atoms: C_1  and  C_2
REMARK    2  A    between atoms: N_10  and  C_11
REMARK    3  A    between atoms: N_18  and  C_19
REMARK    4  A    between atoms: C_19  and  C_20
REMARK    5  A    between atoms: C_20  and  C_21
REMARK    6  A    between atoms: C_21  and  C_22
REMARK    7  A    between atoms: C_21  and  C_32
REMARK    8  A    between atoms: C_22  and  O_23
REMARK    9  A    between atoms: O_23  and  C_24
REMARK   10  A    between atoms: C_24  and  C_25
REMARK                            x       y       z     vdW  Elec       q    Type
REMARK                         _______ _______ _______ _____ _____    ______ ____
ROOT
ATOM      1  C   UNL     1       7.374   8.156  18.149  0.00  0.00    +0.000 C 
ENDROOT
BRANCH   1   9
ATOM      2  C   UNL     1       5.070   5.387  18.141  0.00  0.00    +0.000 C 
ATOM      3  C   UNL     1       5.260   6.328  16.929  0.00  0.00    +0.000 C 
ATOM      4  C   UNL     1       6.733   6.422  16.485  0.00  0.00    +0.000 C 
ATOM      5  C   UNL     1       7.308   5.030  16.180  0.00  0.00    +0.000 C 
ATOM      6  C   UNL     1       7.907   4.563  17.512  0.00  0.00    +0.000 C 
ATOM      7  C   UNL     1       7.593   5.695  18.500  0.00  0.00    +0.000 C 
ATOM      8  C   UNL     1       6.210   5.527  19.171  0.00  0.00    +0.000 C 
ATOM      9  N   UNL     1       7.631   6.832  17.575  0.00  0.00    +0.000 NA
BRANCH   2  19
ATOM     10  C   UNL     1       3.167   7.856  17.992  0.00  0.00    +0.000 C 
ATOM     11  C   UNL     1       2.912   6.597  18.737  0.00  0.00    +0.000 A 
ATOM     12  N   UNL     1       1.852   6.399  19.498  0.00  0.00    +0.000 NA
ATOM     13  C   UNL     1       1.926   5.096  19.900  0.00  0.00    +0.000 A 
ATOM     14  C   UNL     1       1.059   4.338  20.693  0.00  0.00    +0.000 A 
ATOM     15  C   UNL     1       1.383   2.994  20.881  0.00  0.00    +0.000 A 
ATOM     16  C   UNL     1       2.543   2.491  20.296  0.00  0.00    +0.000 A 
ATOM     17  N   UNL     1       3.436   3.196  19.553  0.00  0.00    +0.000 NA
ATOM     18  C   UNL     1       3.063   4.480  19.396  0.00  0.00    +0.000 A 
ATOM     19  N   UNL     1       3.727   5.475  18.712  0.00  0.00    +0.000 N 
ENDBRANCH   2  19
ENDBRANCH   1   9
BRANCH   1  20
ATOM     20  C   UNL     1       8.258   9.284  17.564  0.00  0.00    +0.000 C 
BRANCH  20  21
ATOM     21  C   UNL     1       9.302   9.864  18.548  0.00  0.00    +0.000 C 
BRANCH  21  22
ATOM     22  C   UNL     1       9.747  11.256  18.090  0.00  0.00    +0.000 A 
ATOM     23  C   UNL     1      11.111  11.518  17.891  0.00  0.00    +0.000 A 
ATOM     24  C   UNL     1      11.540  12.750  17.390  0.00  0.00    +0.000 A 
ATOM     25  C   UNL     1      10.612  13.743  17.086  0.00  0.00    +0.000 A 
ATOM     26  C   UNL     1       9.254  13.501  17.278  0.00  0.00    +0.000 A 
ATOM     27  C   UNL     1       8.822  12.266  17.772  0.00  0.00    +0.000 A 
ENDBRANCH  21  22
BRANCH  21  28
ATOM     28  C   UNL     1       8.804   9.885  20.019  0.00  0.00    +0.000 C 
BRANCH  28  29
ATOM     29  O   UNL     1       9.600  10.728  20.873  0.00  0.00    +0.000 OA
BRANCH  29  30
ATOM     30  C   UNL     1       8.778  11.710  21.526  0.00  0.00    +0.000 C 
BRANCH  30  31
ATOM     31  C   UNL     1       9.143  13.144  21.187  0.00  0.00    +0.000 A 
ATOM     32  C   UNL     1      10.475  13.545  21.003  0.00  0.00    +0.000 A 
ATOM     33  C   UNL     1      10.780  14.827  20.543  0.00  0.00    +0.000 A 
ATOM     34  C   UNL     1       9.752  15.719  20.258  0.00  0.00    +0.000 A 
ATOM     35  F   UNL     1      10.041  16.931  19.768  0.00  0.00    +0.000 F 
ATOM     36  C   UNL     1       8.425  15.358  20.448  0.00  0.00    +0.000 A 
ATOM     37  C   UNL     1       8.122  14.075  20.913  0.00  0.00    +0.000 A 
ENDBRANCH  30  31
ENDBRANCH  29  30
ENDBRANCH  28  29
ENDBRANCH  21  28
ENDBRANCH  20  21
ENDBRANCH   1  20
TORSDOF 9
ENDMDL
MODEL 5
REMARK VINA RESULT:      -7.8      1.476      3.203
REMARK  Name = 
REMARK  10 active torsions:
REMARK  status: ('A' for Active; 'I' for Inactive)
REMARK    1  A    between atoms: C_1  and  C_2
REMARK    2  A    between atoms: N_10  and  C_11
REMARK    3  A    between atoms: N_18  and  C_19
REMARK    4  A    between atoms: C_19  and  C_20
REMARK    5  A    between atoms: C_20  and  C_21
REMARK    6  A    between atoms: C_21  and  C_22
REMARK    7  A    between atoms: C_21  and  C_32
REMARK    8  A    between atoms: C_22  and  O_23
REMARK    9  A    between atoms: O_23  and  C_24
REMARK   10  A    between atoms: C_24  and  C_25
REMARK                            x       y       z     vdW  Elec       q    Type
REMARK                         _______ _______ _______ _____ _____    ______ ____
ROOT
ATOM      1  C   UNL     1       1.076   8.792  18.524  0.00  0.00    +0.000 C 
ENDROOT
BRANCH   1   9
ATOM      2  C   UNL     1      -1.181  11.364  19.646  0.00  0.00    +0.000 C 
ATOM      3  C   UNL     1      -1.137   9.951  20.272  0.00  0.00    +0.000 C 
ATOM      4  C   UNL     1       0.278   9.565  20.748  0.00  0.00    +0.000 C 
ATOM      5  C   UNL     1       0.832  10.607  21.733  0.00  0.00    +0.000 C 
ATOM      6  C   UNL     1       1.579  11.611  20.847  0.00  0.00    +0.000 C 
ATOM      7  C   UNL     1       1.362  11.106  19.414  0.00  0.00    +0.000 C 
ATOM      8  C   UNL     1       0.063  11.658  18.783  0.00  0.00    +0.000 C 
ATOM      9  N   UNL     1       1.285   9.665  19.681  0.00  0.00    +0.000 NA
BRANCH   2  19
ATOM     10  C   UNL     1      -3.565  12.980  20.848  0.00  0.00    +0.000 C 
ATOM     11  C   UNL     1      -3.556  12.273  19.542  0.00  0.00    +0.000 A 
ATOM     12  N   UNL     1      -4.607  12.188  18.749  0.00  0.00    +0.000 NA
ATOM     13  C   UNL     1      -4.162  11.577  17.613  0.00  0.00    +0.000 A 
ATOM     14  C   UNL     1      -4.834  11.256  16.429  0.00  0.00    +0.000 A 
ATOM     15  C   UNL     1      -4.079  10.676  15.409  0.00  0.00    +0.000 A 
ATOM     16  C   UNL     1      -2.725  10.430  15.626  0.00  0.00    +0.000 A 
ATOM     17  N   UNL     1      -2.038  10.686  16.771  0.00  0.00    +0.000 NA
ATOM     18  C   UNL     1      -2.814  11.257  17.710  0.00  0.00    +0.000 A 
ATOM     19  N   UNL     1      -2.455  11.642  18.983  0.00  0.00    +0.000 N 
ENDBRANCH   2  19
ENDBRANCH   1   9
BRANCH   1  20
ATOM     20  C   UNL     1       2.328   8.616  17.628  0.00  0.00    +0.000 C 
BRANCH  20  21
ATOM     21  C   UNL     1       3.333   7.549  18.123  0.00  0.00    +0.000 C 
BRANCH  21  22
ATOM     22  C   UNL     1       2.588   6.348  18.710  0.00  0.00    +0.000 A 
ATOM     23  C   UNL     1       2.482   6.209  20.103  0.00  0.00    +0.000 A 
ATOM     24  C   UNL     1       1.733   5.172  20.667  0.00  0.00    +0.000 A 
ATOM     25  C   UNL     1       1.082   4.254  19.848  0.00  0.00    +0.000 A 
ATOM     26  C   UNL     1       1.177   4.375  18.463  0.00  0.00    +0.000 A 
ATOM     27  C   UNL     1       1.920   5.416  17.897  0.00  0.00    +0.000 A 
ENDBRANCH  21  22
BRANCH  21  28
ATOM     28  C   UNL     1       4.340   7.108  17.025  0.00  0.00    +0.000 C 
BRANCH  28  29
ATOM     29  O   UNL     1       5.662   6.860  17.539  0.00  0.00    +0.000 OA
BRANCH  29  30
ATOM     30  C   UNL     1       6.173   5.611  17.045  0.00  0.00    +0.000 C 
BRANCH  30  31
ATOM     31  C   UNL     1       5.459   4.391  17.598  0.00  0.00    +0.000 A 
ATOM     32  C   UNL     1       5.385   4.139  18.977  0.00  0.00    +0.000 A 
ATOM     33  C   UNL     1       4.596   3.100  19.474  0.00  0.00    +0.000 A 
ATOM     34  C   UNL     1       3.870   2.305  18.594  0.00  0.00    +0.000 A 
ATOM     35  F   UNL     1       3.073   1.341  19.071  0.00  0.00    +0.000 F 
ATOM     36  C   UNL     1       3.937   2.517  17.223  0.00  0.00    +0.000 A 
ATOM     37  C   UNL     1       4.730   3.557  16.727  0.00  0.00    +0.000 A 
ENDBRANCH  30  31
ENDBRANCH  29  30
ENDBRANCH  28  29
ENDBRANCH  21  28
ENDBRANCH  20  21
ENDBRANCH   1  20
TORSDOF 9
ENDMDL
MODEL 6
REMARK VINA RESULT:      -7.8      2.023      3.980
REMARK  Name = 
REMARK  10 active torsions:
REMARK  status: ('A' for Active; 'I' for Inactive)
REMARK    1  A    between atoms: C_1  and  C_2
REMARK    2  A    between atoms: N_10  and  C_11
REMARK    3  A    between atoms: N_18  and  C_19
REMARK    4  A    between atoms: C_19  and  C_20
REMARK    5  A    between atoms: C_20  and  C_21
REMARK    6  A    between atoms: C_21  and  C_22
REMARK    7  A    between atoms: C_21  and  C_32
REMARK    8  A    between atoms: C_22  and  O_23
REMARK    9  A    between atoms: O_23  and  C_24
REMARK   10  A    between atoms: C_24  and  C_25
REMARK                            x       y       z     vdW  Elec       q    Type
REMARK                         _______ _______ _______ _____ _____    ______ ____
ROOT
ATOM      1  C   UNL     1       1.159   8.745  18.286  0.00  0.00    +0.000 C 
ENDROOT
BRANCH   1   9
ATOM      2  C   UNL     1      -1.072  11.261  19.578  0.00  0.00    +0.000 C 
ATOM      3  C   UNL     1      -1.021   9.817  20.130  0.00  0.00    +0.000 C 
ATOM      4  C   UNL     1       0.401   9.405  20.561  0.00  0.00    +0.000 C 
ATOM      5  C   UNL     1       0.974  10.394  21.588  0.00  0.00    +0.000 C 
ATOM      6  C   UNL     1       1.709  11.441  20.742  0.00  0.00    +0.000 C 
ATOM      7  C   UNL     1       1.466  11.010  19.289  0.00  0.00    +0.000 C 
ATOM      8  C   UNL     1       0.158  11.596  18.710  0.00  0.00    +0.000 C 
ATOM      9  N   UNL     1       1.390   9.558  19.484  0.00  0.00    +0.000 NA
BRANCH   2  19
ATOM     10  C   UNL     1      -3.390  12.907  20.865  0.00  0.00    +0.000 C 
ATOM     11  C   UNL     1      -3.429  12.220  19.549  0.00  0.00    +0.000 A 
ATOM     12  N   UNL     1      -4.502  12.169  18.782  0.00  0.00    +0.000 NA
ATOM     13  C   UNL     1      -4.099  11.565  17.626  0.00  0.00    +0.000 A 
ATOM     14  C   UNL     1      -4.807  11.276  16.455  0.00  0.00    +0.000 A 
ATOM     15  C   UNL     1      -4.091  10.696  15.408  0.00  0.00    +0.000 A 
ATOM     16  C   UNL     1      -2.737  10.419  15.586  0.00  0.00    +0.000 A 
ATOM     17  N   UNL     1      -2.017  10.644  16.717  0.00  0.00    +0.000 NA
ATOM     18  C   UNL     1      -2.756  11.216  17.684  0.00  0.00    +0.000 A 
ATOM     19  N   UNL     1      -2.356  11.575  18.953  0.00  0.00    +0.000 N 
ENDBRANCH   2  19
ENDBRANCH   1   9
BRANCH   1  20
ATOM     20  C   UNL     1       2.454   8.256  17.593  0.00  0.00    +0.000 C 
BRANCH  20  21
ATOM     21  C   UNL     1       3.294   7.255  18.422  0.00  0.00    +0.000 C 
BRANCH  21  22
ATOM     22  C   UNL     1       2.439   6.052  18.829  0.00  0.00    +0.000 A 
ATOM     23  C   UNL     1       2.087   5.094  17.866  0.00  0.00    +0.000 A 
ATOM     24  C   UNL     1       1.382   3.942  18.224  0.00  0.00    +0.000 A 
ATOM     25  C   UNL     1       1.013   3.731  19.550  0.00  0.00    +0.000 A 
ATOM     26  C   UNL     1       1.353   4.672  20.519  0.00  0.00    +0.000 A 
ATOM     27  C   UNL     1       2.064   5.822  20.164  0.00  0.00    +0.000 A 
ENDBRANCH  21  22
BRANCH  21  28
ATOM     28  C   UNL     1       4.593   6.807  17.697  0.00  0.00    +0.000 C 
BRANCH  28  29
ATOM     29  O   UNL     1       5.497   6.085  18.555  0.00  0.00    +0.000 OA
BRANCH  29  30
ATOM     30  C   UNL     1       5.731   4.761  18.048  0.00  0.00    +0.000 C 
BRANCH  30  31
ATOM     31  C   UNL     1       5.982   4.709  16.552  0.00  0.00    +0.000 A 
ATOM     32  C   UNL     1       7.204   5.114  15.993  0.00  0.00    +0.000 A 
ATOM     33  C   UNL     1       7.472   4.915  14.637  0.00  0.00    +0.000 A 
ATOM     34  C   UNL     1       6.519   4.306  13.829  0.00  0.00    +0.000 A 
ATOM     35  F   UNL     1       6.794   4.068  12.540  0.00  0.00    +0.000 F 
ATOM     36  C   UNL     1       5.293   3.911  14.348  0.00  0.00    +0.000 A 
ATOM     37  C   UNL     1       5.025   4.114  15.706  0.00  0.00    +0.000 A 
ENDBRANCH  30  31
ENDBRANCH  29  30
ENDBRANCH  28  29
ENDBRANCH  21  28
ENDBRANCH  20  21
ENDBRANCH   1  20
TORSDOF 9
ENDMDL
MODEL 7
REMARK VINA RESULT:      -7.6      2.831      4.562
REMARK  Name = 
REMARK  10 active torsions:
REMARK  status: ('A' for Active; 'I' for Inactive)
REMARK    1  A    between atoms: C_1  and  C_2
REMARK    2  A    between atoms: N_10  and  C_11
REMARK    3  A    between atoms: N_18  and  C_19
REMARK    4  A    between atoms: C_19  and  C_20
REMARK    5  A    between atoms: C_20  and  C_21
REMARK    6  A    between atoms: C_21  and  C_22
REMARK    7  A    between atoms: C_21  and  C_32
REMARK    8  A    between atoms: C_22  and  O_23
REMARK    9  A    between atoms: O_23  and  C_24
REMARK   10  A    between atoms: C_24  and  C_25
REMARK                            x       y       z     vdW  Elec       q    Type
REMARK                         _______ _______ _______ _____ _____    ______ ____
ROOT
ATOM      1  C   UNL     1       1.794  10.085  18.342  0.00  0.00    +0.000 C 
ENDROOT
BRANCH   1   9
ATOM      2  C   UNL     1       0.534  13.286  19.409  0.00  0.00    +0.000 C 
ATOM      3  C   UNL     1      -0.122  12.455  18.282  0.00  0.00    +0.000 C 
ATOM      4  C   UNL     1      -0.474  11.025  18.737  0.00  0.00    +0.000 C 
ATOM      5  C   UNL     1      -1.374  11.047  19.982  0.00  0.00    +0.000 C 
ATOM      6  C   UNL     1      -0.395  11.009  21.162  0.00  0.00    +0.000 C 
ATOM      7  C   UNL     1       0.998  11.017  20.516  0.00  0.00    +0.000 C 
ATOM      8  C   UNL     1       1.518  12.448  20.251  0.00  0.00    +0.000 C 
ATOM      9  N   UNL     1       0.685  10.298  19.276  0.00  0.00    +0.000 NA
BRANCH   2  19
ATOM     10  C   UNL     1       3.333  13.694  18.090  0.00  0.00    +0.000 C 
ATOM     11  C   UNL     1       2.359  14.763  18.426  0.00  0.00    +0.000 A 
ATOM     12  N   UNL     1       2.600  16.050  18.263  0.00  0.00    +0.000 NA
ATOM     13  C   UNL     1       1.430  16.685  18.568  0.00  0.00    +0.000 A 
ATOM     14  C   UNL     1       1.099  18.043  18.542  0.00  0.00    +0.000 A 
ATOM     15  C   UNL     1      -0.218  18.380  18.856  0.00  0.00    +0.000 A 
ATOM     16  C   UNL     1      -1.113  17.367  19.195  0.00  0.00    +0.000 A 
ATOM     17  N   UNL     1      -0.827  16.040  19.274  0.00  0.00    +0.000 NA
ATOM     18  C   UNL     1       0.451  15.777  18.946  0.00  0.00    +0.000 A 
ATOM     19  N   UNL     1       1.081  14.552  18.923  0.00  0.00    +0.000 N 
ENDBRANCH   2  19
ENDBRANCH   1   9
BRANCH   1  20
ATOM     20  C   UNL     1       1.822   8.676  17.701  0.00  0.00    +0.000 C 
BRANCH  20  21
ATOM     21  C   UNL     1       2.896   7.722  18.278  0.00  0.00    +0.000 C 
BRANCH  21  22
ATOM     22  C   UNL     1       2.238   6.456  18.834  0.00  0.00    +0.000 A 
ATOM     23  C   UNL     1       1.756   5.479  17.950  0.00  0.00    +0.000 A 
ATOM     24  C   UNL     1       1.232   4.275  18.428  0.00  0.00    +0.000 A 
ATOM     25  C   UNL     1       1.175   4.030  19.797  0.00  0.00    +0.000 A 
ATOM     26  C   UNL     1       1.648   4.990  20.690  0.00  0.00    +0.000 A 
ATOM     27  C   UNL     1       2.180   6.192  20.214  0.00  0.00    +0.000 A 
ENDBRANCH  21  22
BRANCH  21  28
ATOM     28  C   UNL     1       4.013   7.377  17.256  0.00  0.00    +0.000 C 
BRANCH  28  29
ATOM     29  O   UNL     1       5.263   7.031  17.882  0.00  0.00    +0.000 OA
BRANCH  29  30
ATOM     30  C   UNL     1       5.808   5.835  17.302  0.00  0.00    +0.000 C 
BRANCH  30  31
ATOM     31  C   UNL     1       5.085   4.565  17.711  0.00  0.00    +0.000 A 
ATOM     32  C   UNL     1       4.536   3.687  16.763  0.00  0.00    +0.000 A 
ATOM     33  C   UNL     1       4.012   2.453  17.150  0.00  0.00    +0.000 A 
ATOM     34  C   UNL     1       4.035   2.084  18.490  0.00  0.00    +0.000 A 
ATOM     35  F   UNL     1       3.579   0.879  18.856  0.00  0.00    +0.000 F 
ATOM     36  C   UNL     1       4.553   2.938  19.454  0.00  0.00    +0.000 A 
ATOM     37  C   UNL     1       5.075   4.176  19.066  0.00  0.00    +0.000 A 
ENDBRANCH  30  31
ENDBRANCH  29  30
ENDBRANCH  28  29
ENDBRANCH  21  28
ENDBRANCH  20  21
ENDBRANCH   1  20
TORSDOF 9
ENDMDL
MODEL 8
REMARK VINA RESULT:      -7.5      6.368     10.580
REMARK  Name = 
REMARK  10 active torsions:
REMARK  status: ('A' for Active; 'I' for Inactive)
REMARK    1  A    between atoms: C_1  and  C_2
REMARK    2  A    between atoms: N_10  and  C_11
REMARK    3  A    between atoms: N_18  and  C_19
REMARK    4  A    between atoms: C_19  and  C_20
REMARK    5  A    between atoms: C_20  and  C_21
REMARK    6  A    between atoms: C_21  and  C_22
REMARK    7  A    between atoms: C_21  and  C_32
REMARK    8  A    between atoms: C_22  and  O_23
REMARK    9  A    between atoms: O_23  and  C_24
REMARK   10  A    between atoms: C_24  and  C_25
REMARK                            x       y       z     vdW  Elec       q    Type
REMARK                         _______ _______ _______ _____ _____    ______ ____
ROOT
ATOM      1  C   UNL     1       7.558   7.865  17.971  0.00  0.00    +0.000 C 
ENDROOT
BRANCH   1   9
ATOM      2  C   UNL     1       4.937   5.397  17.844  0.00  0.00    +0.000 C 
ATOM      3  C   UNL     1       4.970   6.639  16.923  0.00  0.00    +0.000 C 
ATOM      4  C   UNL     1       6.294   6.753  16.141  0.00  0.00    +0.000 C 
ATOM      5  C   UNL     1       6.568   5.475  15.332  0.00  0.00    +0.000 C 
ATOM      6  C   UNL     1       7.391   4.593  16.278  0.00  0.00    +0.000 C 
ATOM      7  C   UNL     1       7.490   5.401  17.579  0.00  0.00    +0.000 C 
ATOM      8  C   UNL     1       6.297   5.143  18.527  0.00  0.00    +0.000 C 
ATOM      9  N   UNL     1       7.474   6.756  17.017  0.00  0.00    +0.000 NA
BRANCH   2  19
ATOM     10  C   UNL     1       2.868   7.712  18.171  0.00  0.00    +0.000 C 
ATOM     11  C   UNL     1       2.929   6.469  18.982  0.00  0.00    +0.000 A 
ATOM     12  N   UNL     1       2.133   6.225  20.007  0.00  0.00    +0.000 NA
ATOM     13  C   UNL     1       2.419   4.949  20.398  0.00  0.00    +0.000 A 
ATOM     14  C   UNL     1       1.864   4.163  21.413  0.00  0.00    +0.000 A 
ATOM     15  C   UNL     1       2.336   2.855  21.531  0.00  0.00    +0.000 A 
ATOM     16  C   UNL     1       3.332   2.415  20.663  0.00  0.00    +0.000 A 
ATOM     17  N   UNL     1       3.930   3.153  19.690  0.00  0.00    +0.000 NA
ATOM     18  C   UNL     1       3.425   4.398  19.616  0.00  0.00    +0.000 A 
ATOM     19  N   UNL     1       3.795   5.410  18.758  0.00  0.00    +0.000 N 
ENDBRANCH   2  19
ENDBRANCH   1   9
BRANCH   1  20
ATOM     20  C   UNL     1       8.437   9.047  17.494  0.00  0.00    +0.000 C 
BRANCH  20  21
ATOM     21  C   UNL     1       8.185  10.382  18.236  0.00  0.00    +0.000 C 
BRANCH  21  22
ATOM     22  C   UNL     1       9.508  10.978  18.721  0.00  0.00    +0.000 A 
ATOM     23  C   UNL     1       9.667  11.305  20.076  0.00  0.00    +0.000 A 
ATOM     24  C   UNL     1      10.892  11.768  20.564  0.00  0.00    +0.000 A 
ATOM     25  C   UNL     1      11.977  11.918  19.705  0.00  0.00    +0.000 A 
ATOM     26  C   UNL     1      11.838  11.599  18.356  0.00  0.00    +0.000 A 
ATOM     27  C   UNL     1      10.615  11.129  17.867  0.00  0.00    +0.000 A 
ENDBRANCH  21  22
BRANCH  21  28
ATOM     28  C   UNL     1       7.381  11.404  17.387  0.00  0.00    +0.000 C 
BRANCH  28  29
ATOM     29  O   UNL     1       8.129  12.598  17.084  0.00  0.00    +0.000 OA
BRANCH  29  30
ATOM     30  C   UNL     1       7.583  13.730  17.781  0.00  0.00    +0.000 C 
BRANCH  30  31
ATOM     31  C   UNL     1       8.534  14.353  18.786  0.00  0.00    +0.000 A 
ATOM     32  C   UNL     1       9.816  14.791  18.418  0.00  0.00    +0.000 A 
ATOM     33  C   UNL     1      10.617  15.498  19.317  0.00  0.00    +0.000 A 
ATOM     34  C   UNL     1      10.139  15.778  20.592  0.00  0.00    +0.000 A 
ATOM     35  F   UNL     1      10.884  16.500  21.438  0.00  0.00    +0.000 F 
ATOM     36  C   UNL     1       8.883  15.341  20.992  0.00  0.00    +0.000 A 
ATOM     37  C   UNL     1       8.084  14.630  20.092  0.00  0.00    +0.000 A 
ENDBRANCH  30  31
ENDBRANCH  29  30
ENDBRANCH  28  29
ENDBRANCH  21  28
ENDBRANCH  20  21
ENDBRANCH   1  20
TORSDOF 9
ENDMDL
MODEL 9
REMARK VINA RESULT:      -7.5      2.930      5.410
REMARK  Name = 
REMARK  10 active torsions:
REMARK  status: ('A' for Active; 'I' for Inactive)
REMARK    1  A    between atoms: C_1  and  C_2
REMARK    2  A    between atoms: N_10  and  C_11
REMARK    3  A    between atoms: N_18  and  C_19
REMARK    4  A    between atoms: C_19  and  C_20
REMARK    5  A    between atoms: C_20  and  C_21
REMARK    6  A    between atoms: C_21  and  C_22
REMARK    7  A    between atoms: C_21  and  C_32
REMARK    8  A    between atoms: C_22  and  O_23
REMARK    9  A    between atoms: O_23  and  C_24
REMARK   10  A    between atoms: C_24  and  C_25
REMARK                            x       y       z     vdW  Elec       q    Type
REMARK                         _______ _______ _______ _____ _____    ______ ____
ROOT
ATOM      1  C   UNL     1       1.781   9.697  18.269  0.00  0.00    +0.000 C 
ENDROOT
BRANCH   1   9
ATOM      2  C   UNL     1       0.271  12.604  19.767  0.00  0.00    +0.000 C 
ATOM      3  C   UNL     1      -0.334  11.876  18.544  0.00  0.00    +0.000 C 
ATOM      4  C   UNL     1      -0.551  10.373  18.805  0.00  0.00    +0.000 C 
ATOM      5  C   UNL     1      -1.424  10.149  20.050  0.00  0.00    +0.000 C 
ATOM      6  C   UNL     1      -0.422  10.041  21.206  0.00  0.00    +0.000 C 
ATOM      7  C   UNL     1       0.951  10.257  20.554  0.00  0.00    +0.000 C 
ATOM      8  C   UNL     1       1.341  11.751  20.481  0.00  0.00    +0.000 C 
ATOM      9  N   UNL     1       0.677   9.686  19.231  0.00  0.00    +0.000 NA
BRANCH   2  19
ATOM     10  C   UNL     1      -1.350  15.212  20.325  0.00  0.00    +0.000 C 
ATOM     11  C   UNL     1      -0.054  15.123  19.605  0.00  0.00    +0.000 A 
ATOM     12  N   UNL     1       0.544  16.157  19.044  0.00  0.00    +0.000 NA
ATOM     13  C   UNL     1       1.748  15.690  18.602  0.00  0.00    +0.000 A 
ATOM     14  C   UNL     1       2.800  16.351  17.959  0.00  0.00    +0.000 A 
ATOM     15  C   UNL     1       3.943  15.602  17.680  0.00  0.00    +0.000 A 
ATOM     16  C   UNL     1       3.970  14.253  18.030  0.00  0.00    +0.000 A 
ATOM     17  N   UNL     1       2.960  13.559  18.617  0.00  0.00    +0.000 NA
ATOM     18  C   UNL     1       1.892  14.336  18.874  0.00  0.00    +0.000 A 
ATOM     19  N   UNL     1       0.697  13.967  19.452  0.00  0.00    +0.000 N 
ENDBRANCH   2  19
ENDBRANCH   1   9
BRANCH   1  20
ATOM     20  C   UNL     1       2.070   8.322  17.618  0.00  0.00    +0.000 C 
BRANCH  20  21
ATOM     21  C   UNL     1       3.093   7.447  18.380  0.00  0.00    +0.000 C 
BRANCH  21  22
ATOM     22  C   UNL     1       2.448   6.126  18.808  0.00  0.00    +0.000 A 
ATOM     23  C   UNL     1       2.117   5.919  20.156  0.00  0.00    +0.000 A 
ATOM     24  C   UNL     1       1.448   4.761  20.562  0.00  0.00    +0.000 A 
ATOM     25  C   UNL     1       1.104   3.788  19.627  0.00  0.00    +0.000 A 
ATOM     26  C   UNL     1       1.425   3.976  18.285  0.00  0.00    +0.000 A 
ATOM     27  C   UNL     1       2.088   5.138  17.876  0.00  0.00    +0.000 A 
ENDBRANCH  21  22
BRANCH  21  28
ATOM     28  C   UNL     1       4.401   7.204  17.578  0.00  0.00    +0.000 C 
BRANCH  28  29
ATOM     29  O   UNL     1       5.219   6.158  18.135  0.00  0.00    +0.000 OA
BRANCH  29  30
ATOM     30  C   UNL     1       6.461   6.048  17.421  0.00  0.00    +0.000 C 
BRANCH  30  31
ATOM     31  C   UNL     1       6.378   5.198  16.167  0.00  0.00    +0.000 A 
ATOM     32  C   UNL     1       5.340   4.275  15.966  0.00  0.00    +0.000 A 
ATOM     33  C   UNL     1       5.194   3.615  14.744  0.00  0.00    +0.000 A 
ATOM     34  C   UNL     1       6.086   3.877  13.710  0.00  0.00    +0.000 A 
ATOM     35  F   UNL     1       5.918   3.283  12.522  0.00  0.00    +0.000 F 
ATOM     36  C   UNL     1       7.134   4.770  13.884  0.00  0.00    +0.000 A 
ATOM     37  C   UNL     1       7.281   5.427  15.109  0.00  0.00    +0.000 A 
ENDBRANCH  30  31
ENDBRANCH  29  30
ENDBRANCH  28  29
ENDBRANCH  21  28
ENDBRANCH  20  21
ENDBRANCH   1  20
TORSDOF 9
ENDMDL
