MODEL 1
REMARK VINA RESULT:      -8.2      0.000      0.000
REMARK  Name = 
REMARK  6 active torsions:
REMARK  status: ('A' for Active; 'I' for Inactive)
REMARK    1  A    between atoms: C_1  and  S_2
REMARK    2  A    between atoms: S_2  and  C_3
REMARK    3  A    between atoms: C_7  and  N_8
REMARK    4  A    between atoms: C_9  and  C_11
REMARK    5  A    between atoms: C_11  and  N_12
REMARK    6  A    between atoms: C_18  and  C_19
REMARK                            x       y       z     vdW  Elec       q    Type
REMARK                         _______ _______ _______ _____ _____    ______ ____
ROOT
ATOM      1  N   UNL     1       4.974   5.711  18.188  0.00  0.00    +0.000 N 
ATOM      2  C   UNL     1       5.447   4.457  18.624  0.00  0.00    +0.000 A 
ATOM      3  O   UNL     1       6.569   4.056  18.307  0.00  0.00    +0.000 OA
ATOM      4  C   UNL     1       4.534   3.724  19.460  0.00  0.00    +0.000 A 
ATOM      5  N   UNL     1       4.637   2.470  19.841  0.00  0.00    +0.000 NA
ATOM      6  N   UNL     1       3.521   2.182  20.589  0.00  0.00    +0.000 NA
ATOM      7  C   UNL     1       2.769   3.264  20.657  0.00  0.00    +0.000 A 
ATOM      8  C   UNL     1       1.391   3.302  21.203  0.00  0.00    +0.000 C 
ATOM      9  N   UNL     1       3.419   4.298  20.007  0.00  0.00    +0.000 N 
ATOM     10  C   UNL     1       3.048   5.619  19.722  0.00  0.00    +0.000 A 
ATOM     11  C   UNL     1       2.027   6.271  20.420  0.00  0.00    +0.000 A 
ATOM     12  C   UNL     1       1.533   7.475  19.937  0.00  0.00    +0.000 A 
ATOM     13  C   UNL     1       2.053   8.010  18.764  0.00  0.00    +0.000 A 
ATOM     14  C   UNL     1       3.170   7.426  18.157  0.00  0.00    +0.000 A 
ATOM     15  C   UNL     1       3.736   6.257  18.675  0.00  0.00    +0.000 A 
ENDROOT
BRANCH   1  16
ATOM     16  C   UNL     1       5.944   6.571  17.505  0.00  0.00    +0.000 C 
BRANCH  16  18
ATOM     17  N   UNL     1       6.797   5.422  15.500  0.00  0.00    +0.000 N 
ATOM     18  C   UNL     1       5.871   6.339  15.984  0.00  0.00    +0.000 C 
ATOM     19  O   UNL     1       5.090   7.002  15.304  0.00  0.00    +0.000 OA
ATOM     20  H   UNL     1       7.445   5.022  16.176  0.00  0.00    +0.000 HD
BRANCH  17  25
ATOM     21  C   UNL     1       6.334   3.517  12.336  0.00  0.00    +0.000 A 
ATOM     22  C   UNL     1       7.258   4.132  11.489  0.00  0.00    +0.000 A 
ATOM     23  C   UNL     1       8.039   5.181  11.962  0.00  0.00    +0.000 A 
ATOM     24  C   UNL     1       7.898   5.627  13.284  0.00  0.00    +0.000 A 
ATOM     25  C   UNL     1       6.979   5.024  14.149  0.00  0.00    +0.000 A 
ATOM     26  C   UNL     1       6.194   3.969  13.659  0.00  0.00    +0.000 A 
BRANCH  21  28
ATOM     27  C   UNL     1       3.895   3.173  11.085  0.00  0.00    +0.000 C 
ATOM     28  S   UNL     1       5.313   2.209  11.671  0.00  0.00    +0.000 S 
ENDBRANCH  21  28
ENDBRANCH  17  25
ENDBRANCH  16  18
ENDBRANCH   1  16
TORSDOF 4
ENDMDL
MODEL 2
REMARK VINA RESULT:      -7.7      4.169      5.891
REMARK  Name = 
REMARK  6 active torsions:
REMARK  status: ('A' for Active; 'I' for Inactive)
REMARK    1  A    between atoms: C_1  and  S_2
REMARK    2  A    between atoms: S_2  and  C_3
REMARK    3  A    between atoms: C_7  and  N_8
REMARK    4  A    between atoms: C_9  and  C_11
REMARK    5  A    between atoms: C_11  and  N_12
REMARK    6  A    between atoms: C_18  and  C_19
REMARK                            x       y       z     vdW  Elec       q    Type
REMARK                         _______ _______ _______ _____ _____    ______ ____
ROOT
ATOM      1  N   UNL     1       5.521   5.707  17.605  0.00  0.00    +0.000 N 
ATOM      2  C   UNL     1       5.875   4.507  18.256  0.00  0.00    +0.000 A 
ATOM      3  O   UNL     1       6.974   3.983  18.066  0.00  0.00    +0.000 OA
ATOM      4  C   UNL     1       4.873   3.983  19.144  0.00  0.00    +0.000 A 
ATOM      5  N   UNL     1       4.861   2.801  19.721  0.00  0.00    +0.000 NA
ATOM      6  N   UNL     1       3.695   2.714  20.443  0.00  0.00    +0.000 NA
ATOM      7  C   UNL     1       3.028   3.844  20.301  0.00  0.00    +0.000 A 
ATOM      8  C   UNL     1       1.636   4.065  20.759  0.00  0.00    +0.000 C 
ATOM      9  N   UNL     1       3.784   4.713  19.535  0.00  0.00    +0.000 N 
ATOM     10  C   UNL     1       3.530   5.995  19.029  0.00  0.00    +0.000 A 
ATOM     11  C   UNL     1       2.535   6.820  19.561  0.00  0.00    +0.000 A 
ATOM     12  C   UNL     1       2.157   7.964  18.871  0.00  0.00    +0.000 A 
ATOM     13  C   UNL     1       2.767   8.268  17.659  0.00  0.00    +0.000 A 
ATOM     14  C   UNL     1       3.859   7.517  17.211  0.00  0.00    +0.000 A 
ATOM     15  C   UNL     1       4.310   6.409  17.935  0.00  0.00    +0.000 A 
ENDROOT
BRANCH   1  16
ATOM     16  C   UNL     1       6.583   6.376  16.851  0.00  0.00    +0.000 C 
BRANCH  16  18
ATOM     17  N   UNL     1       7.518   8.582  17.426  0.00  0.00    +0.000 N 
ATOM     18  C   UNL     1       7.431   7.246  17.799  0.00  0.00    +0.000 C 
ATOM     19  O   UNL     1       8.019   6.721  18.743  0.00  0.00    +0.000 OA
ATOM     20  H   UNL     1       7.050   8.850  16.563  0.00  0.00    +0.000 HD
BRANCH  17  25
ATOM     21  C   UNL     1       8.821  11.981  18.205  0.00  0.00    +0.000 A 
ATOM     22  C   UNL     1       9.637  11.732  19.310  0.00  0.00    +0.000 A 
ATOM     23  C   UNL     1       9.759  10.438  19.803  0.00  0.00    +0.000 A 
ATOM     24  C   UNL     1       9.062   9.382  19.198  0.00  0.00    +0.000 A 
ATOM     25  C   UNL     1       8.241   9.609  18.089  0.00  0.00    +0.000 A 
ATOM     26  C   UNL     1       8.122  10.920  17.603  0.00  0.00    +0.000 A 
BRANCH  21  28
ATOM     27  C   UNL     1      10.037  14.443  18.509  0.00  0.00    +0.000 C 
ATOM     28  S   UNL     1       8.650  13.668  17.639  0.00  0.00    +0.000 S 
ENDBRANCH  21  28
ENDBRANCH  17  25
ENDBRANCH  16  18
ENDBRANCH   1  16
TORSDOF 4
ENDMDL
MODEL 3
REMARK VINA RESULT:      -7.2      5.676      8.037
REMARK  Name = 
REMARK  6 active torsions:
REMARK  status: ('A' for Active; 'I' for Inactive)
REMARK    1  A    between atoms: C_1  and  S_2
REMARK    2  A    between atoms: S_2  and  C_3
REMARK    3  A    between atoms: C_7  and  N_8
REMARK    4  A    between atoms: C_9  and  C_11
REMARK    5  A    between atoms: C_11  and  N_12
REMARK    6  A    between atoms: C_18  and  C_19
REMARK                            x       y       z     vdW  Elec       q    Type
REMARK                         _______ _______ _______ _____ _____    ______ ____
ROOT
ATOM      1  N   UNL     1       0.205  10.801  19.268  0.00  0.00    +0.000 N 
ATOM      2  C   UNL     1       0.380  11.566  20.439  0.00  0.00    +0.000 A 
ATOM      3  O   UNL     1       1.501  11.745  20.919  0.00  0.00    +0.000 OA
ATOM      4  C   UNL     1      -0.830  12.114  20.989  0.00  0.00    +0.000 A 
ATOM      5  N   UNL     1      -0.980  12.694  22.160  0.00  0.00    +0.000 NA
ATOM      6  N   UNL     1      -2.310  13.018  22.283  0.00  0.00    +0.000 NA
ATOM      7  C   UNL     1      -2.939  12.641  21.186  0.00  0.00    +0.000 A 
ATOM      8  C   UNL     1      -4.411  12.635  21.016  0.00  0.00    +0.000 C 
ATOM      9  N   UNL     1      -2.012  12.122  20.300  0.00  0.00    +0.000 N 
ATOM     10  C   UNL     1      -2.140  11.523  19.039  0.00  0.00    +0.000 A 
ATOM     11  C   UNL     1      -3.280  11.692  18.248  0.00  0.00    +0.000 A 
ATOM     12  C   UNL     1      -3.463  10.884  17.134  0.00  0.00    +0.000 A 
ATOM     13  C   UNL     1      -2.515   9.913  16.827  0.00  0.00    +0.000 A 
ATOM     14  C   UNL     1      -1.312   9.852  17.538  0.00  0.00    +0.000 A 
ATOM     15  C   UNL     1      -1.072  10.714  18.613  0.00  0.00    +0.000 A 
ENDROOT
BRANCH   1  16
ATOM     16  C   UNL     1       1.426  10.395  18.567  0.00  0.00    +0.000 C 
BRANCH  16  18
ATOM     17  N   UNL     1       2.369   8.223  17.888  0.00  0.00    +0.000 N 
ATOM     18  C   UNL     1       1.774   8.937  18.922  0.00  0.00    +0.000 C 
ATOM     19  O   UNL     1       1.451   8.483  20.018  0.00  0.00    +0.000 OA
ATOM     20  H   UNL     1       2.488   8.710  17.002  0.00  0.00    +0.000 HD
BRANCH  17  25
ATOM     21  C   UNL     1       4.624   5.261  17.860  0.00  0.00    +0.000 A 
ATOM     22  C   UNL     1       3.716   4.205  17.941  0.00  0.00    +0.000 A 
ATOM     23  C   UNL     1       2.352   4.468  18.005  0.00  0.00    +0.000 A 
ATOM     24  C   UNL     1       1.886   5.790  17.995  0.00  0.00    +0.000 A 
ATOM     25  C   UNL     1       2.778   6.863  17.913  0.00  0.00    +0.000 A 
ATOM     26  C   UNL     1       4.153   6.586  17.853  0.00  0.00    +0.000 A 
BRANCH  21  28
ATOM     27  C   UNL     1       7.043   6.475  17.299  0.00  0.00    +0.000 C 
ATOM     28  S   UNL     1       6.370   4.880  17.836  0.00  0.00    +0.000 S 
ENDBRANCH  21  28
ENDBRANCH  17  25
ENDBRANCH  16  18
ENDBRANCH   1  16
TORSDOF 4
ENDMDL
MODEL 4
REMARK VINA RESULT:      -7.1      5.735      8.065
REMARK  Name = 
REMARK  6 active torsions:
REMARK  status: ('A' for Active; 'I' for Inactive)
REMARK    1  A    between atoms: C_1  and  S_2
REMARK    2  A    between atoms: S_2  and  C_3
REMARK    3  A    between atoms: C_7  and  N_8
REMARK    4  A    between atoms: C_9  and  C_11
REMARK    5  A    between atoms: C_11  and  N_12
REMARK    6  A    between atoms: C_18  and  C_19
REMARK                            x       y       z     vdW  Elec       q    Type
REMARK                         _______ _______ _______ _____ _____    ______ ____
ROOT
ATOM      1  N   UNL     1       0.249  10.901  19.426  0.00  0.00    +0.000 N 
ATOM      2  C   UNL     1       0.544  11.599  20.615  0.00  0.00    +0.000 A 
ATOM      3  O   UNL     1       1.709  11.745  20.992  0.00  0.00    +0.000 OA
ATOM      4  C   UNL     1      -0.601  12.119  21.311  0.00  0.00    +0.000 A 
ATOM      5  N   UNL     1      -0.631  12.633  22.521  0.00  0.00    +0.000 NA
ATOM      6  N   UNL     1      -1.939  12.956  22.791  0.00  0.00    +0.000 NA
ATOM      7  C   UNL     1      -2.675  12.644  21.741  0.00  0.00    +0.000 A 
ATOM      8  C   UNL     1      -4.157  12.653  21.716  0.00  0.00    +0.000 C 
ATOM      9  N   UNL     1      -1.844  12.172  20.741  0.00  0.00    +0.000 N 
ATOM     10  C   UNL     1      -2.100  11.644  19.467  0.00  0.00    +0.000 A 
ATOM     11  C   UNL     1      -3.310  11.863  18.803  0.00  0.00    +0.000 A 
ATOM     12  C   UNL     1      -3.608  11.119  17.669  0.00  0.00    +0.000 A 
ATOM     13  C   UNL     1      -2.705  10.163  17.217  0.00  0.00    +0.000 A 
ATOM     14  C   UNL     1      -1.438  10.058  17.803  0.00  0.00    +0.000 A 
ATOM     15  C   UNL     1      -1.086  10.857  18.895  0.00  0.00    +0.000 A 
ENDROOT
BRANCH   1  16
ATOM     16  C   UNL     1       1.392  10.530  18.588  0.00  0.00    +0.000 C 
BRANCH  16  18
ATOM     17  N   UNL     1       2.488   8.453  17.843  0.00  0.00    +0.000 N 
ATOM     18  C   UNL     1       1.810   9.077  18.884  0.00  0.00    +0.000 C 
ATOM     19  O   UNL     1       1.470   8.550  19.942  0.00  0.00    +0.000 OA
ATOM     20  H   UNL     1       2.614   8.991  16.989  0.00  0.00    +0.000 HD
BRANCH  17  25
ATOM     21  C   UNL     1       2.505   4.744  18.150  0.00  0.00    +0.000 A 
ATOM     22  C   UNL     1       3.825   4.432  17.822  0.00  0.00    +0.000 A 
ATOM     23  C   UNL     1       4.717   5.449  17.497  0.00  0.00    +0.000 A 
ATOM     24  C   UNL     1       4.293   6.786  17.492  0.00  0.00    +0.000 A 
ATOM     25  C   UNL     1       2.975   7.120  17.819  0.00  0.00    +0.000 A 
ATOM     26  C   UNL     1       2.084   6.085  18.142  0.00  0.00    +0.000 A 
BRANCH  21  28
ATOM     27  C   UNL     1       1.197   3.601  20.299  0.00  0.00    +0.000 C 
ATOM     28  S   UNL     1       1.380   3.402  18.508  0.00  0.00    +0.000 S 
ENDBRANCH  21  28
ENDBRANCH  17  25
ENDBRANCH  16  18
ENDBRANCH   1  16
TORSDOF 4
ENDMDL
MODEL 5
REMARK VINA RESULT:      -7.1      3.456      7.476
REMARK  Name = 
REMARK  6 active torsions:
REMARK  status: ('A' for Active; 'I' for Inactive)
REMARK    1  A    between atoms: C_1  and  S_2
REMARK    2  A    between atoms: S_2  and  C_3
REMARK    3  A    between atoms: C_7  and  N_8
REMARK    4  A    between atoms: C_9  and  C_11
REMARK    5  A    between atoms: C_11  and  N_12
REMARK    6  A    between atoms: C_18  and  C_19
REMARK                            x       y       z     vdW  Elec       q    Type
REMARK                         _______ _______ _______ _____ _____    ______ ____
ROOT
ATOM      1  N   UNL     1       4.744   4.174  18.176  0.00  0.00    +0.000 N 
ATOM      2  C   UNL     1       4.176   3.749  16.958  0.00  0.00    +0.000 A 
ATOM      3  O   UNL     1       3.088   3.171  16.932  0.00  0.00    +0.000 OA
ATOM      4  C   UNL     1       4.952   4.060  15.788  0.00  0.00    +0.000 A 
ATOM      5  N   UNL     1       4.758   3.619  14.564  0.00  0.00    +0.000 NA
ATOM      6  N   UNL     1       5.763   4.137  13.784  0.00  0.00    +0.000 NA
ATOM      7  C   UNL     1       6.540   4.889  14.541  0.00  0.00    +0.000 A 
ATOM      8  C   UNL     1       7.841   5.457  14.115  0.00  0.00    +0.000 C 
ATOM      9  N   UNL     1       6.012   4.924  15.820  0.00  0.00    +0.000 N 
ATOM     10  C   UNL     1       6.463   5.503  17.015  0.00  0.00    +0.000 A 
ATOM     11  C   UNL     1       7.414   6.528  17.031  0.00  0.00    +0.000 A 
ATOM     12  C   UNL     1       8.007   6.888  18.234  0.00  0.00    +0.000 A 
ATOM     13  C   UNL     1       7.654   6.219  19.401  0.00  0.00    +0.000 A 
ATOM     14  C   UNL     1       6.599   5.300  19.395  0.00  0.00    +0.000 A 
ATOM     15  C   UNL     1       5.931   4.984  18.208  0.00  0.00    +0.000 A 
ENDROOT
BRANCH   1  16
ATOM     16  C   UNL     1       3.896   4.057  19.365  0.00  0.00    +0.000 C 
BRANCH  16  18
ATOM     17  N   UNL     1       3.150   6.404  19.304  0.00  0.00    +0.000 N 
ATOM     18  C   UNL     1       2.742   5.075  19.289  0.00  0.00    +0.000 C 
ATOM     19  O   UNL     1       1.578   4.677  19.299  0.00  0.00    +0.000 OA
ATOM     20  H   UNL     1       4.148   6.578  19.393  0.00  0.00    +0.000 HD
BRANCH  17  25
ATOM     21  C   UNL     1       0.838   9.072  20.484  0.00  0.00    +0.000 A 
ATOM     22  C   UNL     1       0.626   9.808  19.318  0.00  0.00    +0.000 A 
ATOM     23  C   UNL     1       1.248   9.425  18.134  0.00  0.00    +0.000 A 
ATOM     24  C   UNL     1       2.092   8.305  18.109  0.00  0.00    +0.000 A 
ATOM     25  C   UNL     1       2.316   7.553  19.266  0.00  0.00    +0.000 A 
ATOM     26  C   UNL     1       1.686   7.952  20.455  0.00  0.00    +0.000 A 
BRANCH  21  28
ATOM     27  C   UNL     1      -0.468  11.289  21.490  0.00  0.00    +0.000 C 
ATOM     28  S   UNL     1       0.062   9.632  21.994  0.00  0.00    +0.000 S 
ENDBRANCH  21  28
ENDBRANCH  17  25
ENDBRANCH  16  18
ENDBRANCH   1  16
TORSDOF 4
ENDMDL
MODEL 6
REMARK VINA RESULT:      -7.0      5.621      8.392
REMARK  Name = 
REMARK  6 active torsions:
REMARK  status: ('A' for Active; 'I' for Inactive)
REMARK    1  A    between atoms: C_1  and  S_2
REMARK    2  A    between atoms: S_2  and  C_3
REMARK    3  A    between atoms: C_7  and  N_8
REMARK    4  A    between atoms: C_9  and  C_11
REMARK    5  A    between atoms: C_11  and  N_12
REMARK    6  A    between atoms: C_18  and  C_19
REMARK                            x       y       z     vdW  Elec       q    Type
REMARK                         _______ _______ _______ _____ _____    ______ ____
ROOT
ATOM      1  N   UNL     1       0.238  10.894  19.555  0.00  0.00    +0.000 N 
ATOM      2  C   UNL     1       0.566  11.411  20.825  0.00  0.00    +0.000 A 
ATOM      3  O   UNL     1       1.735  11.449  21.212  0.00  0.00    +0.000 OA
ATOM      4  C   UNL     1      -0.554  11.890  21.589  0.00  0.00    +0.000 A 
ATOM      5  N   UNL     1      -0.560  12.238  22.857  0.00  0.00    +0.000 NA
ATOM      6  N   UNL     1      -1.852  12.586  23.175  0.00  0.00    +0.000 NA
ATOM      7  C   UNL     1      -2.601  12.454  22.096  0.00  0.00    +0.000 A 
ATOM      8  C   UNL     1      -4.080  12.540  22.080  0.00  0.00    +0.000 C 
ATOM      9  N   UNL     1      -1.792  12.079  21.038  0.00  0.00    +0.000 N 
ATOM     10  C   UNL     1      -2.071  11.740  19.706  0.00  0.00    +0.000 A 
ATOM     11  C   UNL     1      -3.268  12.105  19.082  0.00  0.00    +0.000 A 
ATOM     12  C   UNL     1      -3.600  11.535  17.861  0.00  0.00    +0.000 A 
ATOM     13  C   UNL     1      -2.744  10.605  17.281  0.00  0.00    +0.000 A 
ATOM     14  C   UNL     1      -1.486  10.359  17.841  0.00  0.00    +0.000 A 
ATOM     15  C   UNL     1      -1.097  10.987  19.029  0.00  0.00    +0.000 A 
ENDROOT
BRANCH   1  16
ATOM     16  C   UNL     1       1.363  10.583  18.669  0.00  0.00    +0.000 C 
BRANCH  16  18
ATOM     17  N   UNL     1       1.935   8.430  19.720  0.00  0.00    +0.000 N 
ATOM     18  C   UNL     1       1.528   9.056  18.548  0.00  0.00    +0.000 C 
ATOM     19  O   UNL     1       1.374   8.511  17.456  0.00  0.00    +0.000 OA
ATOM     20  H   UNL     1       2.114   9.029  20.523  0.00  0.00    +0.000 HD
BRANCH  17  25
ATOM     21  C   UNL     1       3.588   5.112  19.373  0.00  0.00    +0.000 A 
ATOM     22  C   UNL     1       2.787   4.304  20.181  0.00  0.00    +0.000 A 
ATOM     23  C   UNL     1       1.695   4.853  20.845  0.00  0.00    +0.000 A 
ATOM     24  C   UNL     1       1.400   6.217  20.711  0.00  0.00    +0.000 A 
ATOM     25  C   UNL     1       2.188   7.045  19.905  0.00  0.00    +0.000 A 
ATOM     26  C   UNL     1       3.290   6.480  19.244  0.00  0.00    +0.000 A 
BRANCH  21  28
ATOM     27  C   UNL     1       4.834   5.044  16.908  0.00  0.00    +0.000 C 
ATOM     28  S   UNL     1       5.012   4.377  18.583  0.00  0.00    +0.000 S 
ENDBRANCH  21  28
ENDBRANCH  17  25
ENDBRANCH  16  18
ENDBRANCH   1  16
TORSDOF 4
ENDMDL
MODEL 7
REMARK VINA RESULT:      -6.9      6.473      8.963
REMARK  Name = 
REMARK  6 active torsions:
REMARK  status: ('A' for Active; 'I' for Inactive)
REMARK    1  A    between atoms: C_1  and  S_2
REMARK    2  A    between atoms: S_2  and  C_3
REMARK    3  A    between atoms: C_7  and  N_8
REMARK    4  A    between atoms: C_9  and  C_11
REMARK    5  A    between atoms: C_11  and  N_12
REMARK    6  A    between atoms: C_18  and  C_19
REMARK                            x       y       z     vdW  Elec       q    Type
REMARK                         _______ _______ _______ _____ _____    ______ ____
ROOT
ATOM      1  N   UNL     1      -1.019  11.440  19.162  0.00  0.00    +0.000 N 
ATOM      2  C   UNL     1      -1.364  12.258  20.257  0.00  0.00    +0.000 A 
ATOM      3  O   UNL     1      -0.498  12.720  21.002  0.00  0.00    +0.000 OA
ATOM      4  C   UNL     1      -2.772  12.506  20.405  0.00  0.00    +0.000 A 
ATOM      5  N   UNL     1      -3.378  13.065  21.430  0.00  0.00    +0.000 NA
ATOM      6  N   UNL     1      -4.725  13.056  21.158  0.00  0.00    +0.000 NA
ATOM      7  C   UNL     1      -4.912  12.505  19.974  0.00  0.00    +0.000 A 
ATOM      8  C   UNL     1      -6.233  12.133  19.415  0.00  0.00    +0.000 C 
ATOM      9  N   UNL     1      -3.678  12.205  19.425  0.00  0.00    +0.000 N 
ATOM     10  C   UNL     1      -3.301  11.557  18.240  0.00  0.00    +0.000 A 
ATOM     11  C   UNL     1      -4.176  11.418  17.159  0.00  0.00    +0.000 A 
ATOM     12  C   UNL     1      -3.845  10.559  16.120  0.00  0.00    +0.000 A 
ATOM     13  C   UNL     1      -2.654   9.843  16.175  0.00  0.00    +0.000 A 
ATOM     14  C   UNL     1      -1.722  10.099  17.186  0.00  0.00    +0.000 A 
ATOM     15  C   UNL     1      -2.001  11.024  18.198  0.00  0.00    +0.000 A 
ENDROOT
BRANCH   1  16
ATOM     16  C   UNL     1       0.410  11.327  18.858  0.00  0.00    +0.000 C 
BRANCH  16  18
ATOM     17  N   UNL     1       1.791   9.340  18.395  0.00  0.00    +0.000 N 
ATOM     18  C   UNL     1       0.933   9.948  19.304  0.00  0.00    +0.000 C 
ATOM     19  O   UNL     1       0.522   9.450  20.351  0.00  0.00    +0.000 OA
ATOM     20  H   UNL     1       1.965   9.837  17.524  0.00  0.00    +0.000 HD
BRANCH  17  25
ATOM     21  C   UNL     1       3.955   6.420  17.588  0.00  0.00    +0.000 A 
ATOM     22  C   UNL     1       3.690   5.560  18.654  0.00  0.00    +0.000 A 
ATOM     23  C   UNL     1       2.793   5.943  19.646  0.00  0.00    +0.000 A 
ATOM     24  C   UNL     1       2.159   7.192  19.582  0.00  0.00    +0.000 A 
ATOM     25  C   UNL     1       2.409   8.068  18.522  0.00  0.00    +0.000 A 
ATOM     26  C   UNL     1       3.319   7.673  17.529  0.00  0.00    +0.000 A 
BRANCH  21  28
ATOM     27  C   UNL     1       5.655   4.310  17.048  0.00  0.00    +0.000 C 
ATOM     28  S   UNL     1       5.155   5.912  16.365  0.00  0.00    +0.000 S 
ENDBRANCH  21  28
ENDBRANCH  17  25
ENDBRANCH  16  18
ENDBRANCH   1  16
TORSDOF 4
ENDMDL
MODEL 8
REMARK VINA RESULT:      -6.9      1.191      1.327
REMARK  Name = 
REMARK  6 active torsions:
REMARK  status: ('A' for Active; 'I' for Inactive)
REMARK    1  A    between atoms: C_1  and  S_2
REMARK    2  A    between atoms: S_2  and  C_3
REMARK    3  A    between atoms: C_7  and  N_8
REMARK    4  A    between atoms: C_9  and  C_11
REMARK    5  A    between atoms: C_11  and  N_12
REMARK    6  A    between atoms: C_18  and  C_19
REMARK                            x       y       z     vdW  Elec       q    Type
REMARK                         _______ _______ _______ _____ _____    ______ ____
ROOT
ATOM      1  N   UNL     1       5.336   5.569  17.863  0.00  0.00    +0.000 N 
ATOM      2  C   UNL     1       5.638   4.374  18.548  0.00  0.00    +0.000 A 
ATOM      3  O   UNL     1       6.737   3.831  18.422  0.00  0.00    +0.000 OA
ATOM      4  C   UNL     1       4.584   3.877  19.389  0.00  0.00    +0.000 A 
ATOM      5  N   UNL     1       4.523   2.704  19.980  0.00  0.00    +0.000 NA
ATOM      6  N   UNL     1       3.320   2.645  20.641  0.00  0.00    +0.000 NA
ATOM      7  C   UNL     1       2.678   3.782  20.450  0.00  0.00    +0.000 A 
ATOM      8  C   UNL     1       1.268   4.030  20.832  0.00  0.00    +0.000 C 
ATOM      9  N   UNL     1       3.487   4.629  19.712  0.00  0.00    +0.000 N 
ATOM     10  C   UNL     1       3.279   5.908  19.177  0.00  0.00    +0.000 A 
ATOM     11  C   UNL     1       2.270   6.754  19.645  0.00  0.00    +0.000 A 
ATOM     12  C   UNL     1       1.947   7.894  18.921  0.00  0.00    +0.000 A 
ATOM     13  C   UNL     1       2.623   8.171  17.738  0.00  0.00    +0.000 A 
ATOM     14  C   UNL     1       3.726   7.398  17.358  0.00  0.00    +0.000 A 
ATOM     15  C   UNL     1       4.121   6.294  18.119  0.00  0.00    +0.000 A 
ENDROOT
BRANCH   1  16
ATOM     16  C   UNL     1       6.447   6.213  17.157  0.00  0.00    +0.000 C 
BRANCH  16  18
ATOM     17  N   UNL     1       5.893   5.245  14.960  0.00  0.00    +0.000 N 
ATOM     18  C   UNL     1       6.865   5.355  15.947  0.00  0.00    +0.000 C 
ATOM     19  O   UNL     1       7.952   4.780  15.955  0.00  0.00    +0.000 OA
ATOM     20  H   UNL     1       5.002   5.704  15.138  0.00  0.00    +0.000 HD
BRANCH  17  25
ATOM     21  C   UNL     1       4.812   3.348  11.944  0.00  0.00    +0.000 A 
ATOM     22  C   UNL     1       6.034   3.028  11.350  0.00  0.00    +0.000 A 
ATOM     23  C   UNL     1       7.222   3.439  11.945  0.00  0.00    +0.000 A 
ATOM     24  C   UNL     1       7.197   4.178  13.137  0.00  0.00    +0.000 A 
ATOM     25  C   UNL     1       5.984   4.509  13.749  0.00  0.00    +0.000 A 
ATOM     26  C   UNL     1       4.792   4.092  13.137  0.00  0.00    +0.000 A 
BRANCH  21  28
ATOM     27  C   UNL     1       3.177   4.156   9.869  0.00  0.00    +0.000 C 
ATOM     28  S   UNL     1       3.309   2.849  11.116  0.00  0.00    +0.000 S 
ENDBRANCH  21  28
ENDBRANCH  17  25
ENDBRANCH  16  18
ENDBRANCH   1  16
TORSDOF 4
ENDMDL
MODEL 9
REMARK VINA RESULT:      -6.9      6.045      8.753
REMARK  Name = 
REMARK  6 active torsions:
REMARK  status: ('A' for Active; 'I' for Inactive)
REMARK    1  A    between atoms: C_1  and  S_2
REMARK    2  A    between atoms: S_2  and  C_3
REMARK    3  A    between atoms: C_7  and  N_8
REMARK    4  A    between atoms: C_9  and  C_11
REMARK    5  A    between atoms: C_11  and  N_12
REMARK    6  A    between atoms: C_18  and  C_19
REMARK                            x       y       z     vdW  Elec       q    Type
REMARK                         _______ _______ _______ _____ _____    ______ ____
ROOT
ATOM      1  N   UNL     1      -0.303  10.872  19.645  0.00  0.00    +0.000 N 
ATOM      2  C   UNL     1      -0.445  11.748  20.741  0.00  0.00    +0.000 A 
ATOM      3  O   UNL     1       0.498  11.970  21.503  0.00  0.00    +0.000 OA
ATOM      4  C   UNL     1      -1.745  12.350  20.870  0.00  0.00    +0.000 A 
ATOM      5  N   UNL     1      -2.203  13.042  21.890  0.00  0.00    +0.000 NA
ATOM      6  N   UNL     1      -3.503  13.380  21.597  0.00  0.00    +0.000 NA
ATOM      7  C   UNL     1      -3.805  12.899  20.406  0.00  0.00    +0.000 A 
ATOM      8  C   UNL     1      -5.168  12.881  19.824  0.00  0.00    +0.000 C 
ATOM      9  N   UNL     1      -2.681  12.294  19.873  0.00  0.00    +0.000 N 
ATOM     10  C   UNL     1      -2.463  11.574  18.690  0.00  0.00    +0.000 A 
ATOM     11  C   UNL     1      -3.326  11.668  17.594  0.00  0.00    +0.000 A 
ATOM     12  C   UNL     1      -3.210  10.756  16.555  0.00  0.00    +0.000 A 
ATOM     13  C   UNL     1      -2.244   9.757  16.622  0.00  0.00    +0.000 A 
ATOM     14  C   UNL     1      -1.295   9.763  17.650  0.00  0.00    +0.000 A 
ATOM     15  C   UNL     1      -1.343  10.725  18.664  0.00  0.00    +0.000 A 
ENDROOT
BRANCH   1  16
ATOM     16  C   UNL     1       1.053  10.397  19.363  0.00  0.00    +0.000 C 
BRANCH  16  18
ATOM     17  N   UNL     1       1.904   8.095  19.146  0.00  0.00    +0.000 N 
ATOM     18  C   UNL     1       1.258   9.000  19.980  0.00  0.00    +0.000 C 
ATOM     19  O   UNL     1       0.794   8.751  21.092  0.00  0.00    +0.000 OA
ATOM     20  H   UNL     1       2.147   8.422  18.213  0.00  0.00    +0.000 HD
BRANCH  17  25
ATOM     21  C   UNL     1       3.218   4.645  18.671  0.00  0.00    +0.000 A 
ATOM     22  C   UNL     1       2.863   4.031  19.873  0.00  0.00    +0.000 A 
ATOM     23  C   UNL     1       2.187   4.758  20.847  0.00  0.00    +0.000 A 
ATOM     24  C   UNL     1       1.865   6.105  20.629  0.00  0.00    +0.000 A 
ATOM     25  C   UNL     1       2.210   6.738  19.431  0.00  0.00    +0.000 A 
ATOM     26  C   UNL     1       2.896   5.996  18.457  0.00  0.00    +0.000 A 
BRANCH  21  28
ATOM     27  C   UNL     1       3.544   2.023  17.861  0.00  0.00    +0.000 C 
ATOM     28  S   UNL     1       4.135   3.690  17.470  0.00  0.00    +0.000 S 
ENDBRANCH  21  28
ENDBRANCH  17  25
ENDBRANCH  16  18
ENDBRANCH   1  16
TORSDOF 4
ENDMDL
