MODEL 1
REMARK VINA RESULT:      -7.2      0.000      0.000
REMARK  Name = 
REMARK  9 active torsions:
REMARK  status: ('A' for Active; 'I' for Inactive)
REMARK    1  A    between atoms: C_1  and  C_2
REMARK    2  A    between atoms: C_2  and  C_3
REMARK    3  A    between atoms: C_2  and  C_4
REMARK    4  A    between atoms: C_2  and  O_5
REMARK    5  A    between atoms: O_5  and  C_6
REMARK    6  A    between atoms: C_6  and  C_8
REMARK    7  A    between atoms: C_8  and  C_9
REMARK    8  A    between atoms: C_11  and  C_12
REMARK    9  A    between atoms: C_15  and  O_16
REMARK                            x       y       z     vdW  Elec       q    Type
REMARK                         _______ _______ _______ _____ _____    ______ ____
ROOT
ATOM      1  C   UNL     1       5.672   5.585  16.335  0.00  0.00    +0.000 C 
ATOM      2  C   UNL     1       4.381   5.319  17.077  0.00  0.00    +0.000 C 
ATOM      3  C   UNL     1       4.894   4.471  18.180  0.00  0.00    +0.000 C 
ATOM      4  N   UNL     1       6.134   4.120  18.071  0.00  0.00    +0.000 NA
ATOM      5  O   UNL     1       6.627   4.651  16.856  0.00  0.00    +0.000 OA
ENDROOT
BRANCH   3   6
ATOM      6  C   UNL     1       4.004   4.026  19.275  0.00  0.00    +0.000 A 
ATOM      7  C   UNL     1       4.262   2.812  19.927  0.00  0.00    +0.000 A 
ATOM      8  C   UNL     1       3.395   2.345  20.921  0.00  0.00    +0.000 A 
ATOM      9  C   UNL     1       2.270   3.093  21.257  0.00  0.00    +0.000 A 
ATOM     10  C   UNL     1       2.019   4.302  20.614  0.00  0.00    +0.000 A 
ATOM     11  F   UNL     1       0.935   5.027  20.924  0.00  0.00    +0.000 F 
ATOM     12  C   UNL     1       2.878   4.777  19.629  0.00  0.00    +0.000 A 
BRANCH   9  13
ATOM     13  O   UNL     1       1.395   2.659  22.209  0.00  0.00    +0.000 OA
ATOM     14  H   UNL     1       1.570   1.724  22.405  0.00  0.00    +0.000 HD
ENDBRANCH   9  13
ENDBRANCH   3   6
BRANCH   1  15
ATOM     15  C   UNL     1       5.527   5.378  14.830  0.00  0.00    +0.000 C 
BRANCH  15  16
ATOM     16  C   UNL     1       6.804   4.778  14.299  0.00  0.00    +0.000 C 
ATOM     17  O   UNL     1       7.887   5.333  14.400  0.00  0.00    +0.000 OA
BRANCH  16  18
ATOM     18  O   UNL     1       6.577   3.582  13.690  0.00  0.00    +0.000 OA
BRANCH  18  20
ATOM     19  C   UNL     1       7.112   4.683  11.553  0.00  0.00    +0.000 C 
ATOM     20  C   UNL     1       6.344   3.554  12.254  0.00  0.00    +0.000 C 
ATOM     21  C   UNL     1       4.842   3.586  11.933  0.00  0.00    +0.000 C 
ATOM     22  C   UNL     1       6.910   2.215  11.757  0.00  0.00    +0.000 C 
ENDBRANCH  18  20
ENDBRANCH  16  18
ENDBRANCH  15  16
ENDBRANCH   1  15
TORSDOF 6
ENDMDL
MODEL 2
REMARK VINA RESULT:      -7.1      1.816      2.709
REMARK  Name = 
REMARK  9 active torsions:
REMARK  status: ('A' for Active; 'I' for Inactive)
REMARK    1  A    between atoms: C_1  and  C_2
REMARK    2  A    between atoms: C_2  and  C_3
REMARK    3  A    between atoms: C_2  and  C_4
REMARK    4  A    between atoms: C_2  and  O_5
REMARK    5  A    between atoms: O_5  and  C_6
REMARK    6  A    between atoms: C_6  and  C_8
REMARK    7  A    between atoms: C_8  and  C_9
REMARK    8  A    between atoms: C_11  and  C_12
REMARK    9  A    between atoms: C_15  and  O_16
REMARK                            x       y       z     vdW  Elec       q    Type
REMARK                         _______ _______ _______ _____ _____    ______ ____
ROOT
ATOM      1  C   UNL     1       6.541   6.305  18.569  0.00  0.00    +0.000 C 
ATOM      2  C   UNL     1       5.115   5.958  18.205  0.00  0.00    +0.000 C 
ATOM      3  C   UNL     1       4.894   4.808  19.114  0.00  0.00    +0.000 C 
ATOM      4  N   UNL     1       5.947   4.397  19.744  0.00  0.00    +0.000 NA
ATOM      5  O   UNL     1       7.039   5.191  19.322  0.00  0.00    +0.000 OA
ENDROOT
BRANCH   3   6
ATOM      6  C   UNL     1       3.567   4.162  19.216  0.00  0.00    +0.000 A 
ATOM      7  C   UNL     1       2.786   3.999  18.063  0.00  0.00    +0.000 A 
ATOM      8  C   UNL     1       1.503   3.448  18.151  0.00  0.00    +0.000 A 
ATOM      9  C   UNL     1       1.004   3.066  19.393  0.00  0.00    +0.000 A 
ATOM     10  C   UNL     1       1.783   3.222  20.536  0.00  0.00    +0.000 A 
ATOM     11  F   UNL     1       1.311   2.864  21.738  0.00  0.00    +0.000 F 
ATOM     12  C   UNL     1       3.062   3.763  20.458  0.00  0.00    +0.000 A 
BRANCH   9  13
ATOM     13  O   UNL     1      -0.249   2.541  19.516  0.00  0.00    +0.000 OA
ATOM     14  H   UNL     1      -0.183   1.599  19.738  0.00  0.00    +0.000 HD
ENDBRANCH   9  13
ENDBRANCH   3   6
BRANCH   1  15
ATOM     15  C   UNL     1       7.417   6.519  17.338  0.00  0.00    +0.000 C 
BRANCH  15  16
ATOM     16  C   UNL     1       7.677   5.183  16.689  0.00  0.00    +0.000 C 
ATOM     17  O   UNL     1       8.077   4.212  17.314  0.00  0.00    +0.000 OA
BRANCH  16  18
ATOM     18  O   UNL     1       7.433   5.222  15.351  0.00  0.00    +0.000 OA
BRANCH  18  20
ATOM     19  C   UNL     1       5.730   3.500  15.799  0.00  0.00    +0.000 C 
ATOM     20  C   UNL     1       6.232   4.583  14.834  0.00  0.00    +0.000 C 
ATOM     21  C   UNL     1       6.457   4.039  13.416  0.00  0.00    +0.000 C 
ATOM     22  C   UNL     1       5.163   5.684  14.760  0.00  0.00    +0.000 C 
ENDBRANCH  18  20
ENDBRANCH  16  18
ENDBRANCH  15  16
ENDBRANCH   1  15
TORSDOF 6
ENDMDL
MODEL 3
REMARK VINA RESULT:      -7.0      4.723      6.615
REMARK  Name = 
REMARK  9 active torsions:
REMARK  status: ('A' for Active; 'I' for Inactive)
REMARK    1  A    between atoms: C_1  and  C_2
REMARK    2  A    between atoms: C_2  and  C_3
REMARK    3  A    between atoms: C_2  and  C_4
REMARK    4  A    between atoms: C_2  and  O_5
REMARK    5  A    between atoms: O_5  and  C_6
REMARK    6  A    between atoms: C_6  and  C_8
REMARK    7  A    between atoms: C_8  and  C_9
REMARK    8  A    between atoms: C_11  and  C_12
REMARK    9  A    between atoms: C_15  and  O_16
REMARK                            x       y       z     vdW  Elec       q    Type
REMARK                         _______ _______ _______ _____ _____    ______ ____
ROOT
ATOM      1  C   UNL     1       2.728   6.756  18.269  0.00  0.00    +0.000 C 
ATOM      2  C   UNL     1       2.210   7.133  19.639  0.00  0.00    +0.000 C 
ATOM      3  C   UNL     1       1.642   8.468  19.335  0.00  0.00    +0.000 C 
ATOM      4  N   UNL     1       1.900   8.917  18.150  0.00  0.00    +0.000 NA
ATOM      5  O   UNL     1       2.711   7.962  17.494  0.00  0.00    +0.000 OA
ENDROOT
BRANCH   3   6
ATOM      6  C   UNL     1       0.896   9.230  20.362  0.00  0.00    +0.000 A 
ATOM      7  C   UNL     1       0.210  10.396  19.996  0.00  0.00    +0.000 A 
ATOM      8  C   UNL     1      -0.447  11.163  20.964  0.00  0.00    +0.000 A 
ATOM      9  C   UNL     1      -0.412  10.762  22.297  0.00  0.00    +0.000 A 
ATOM     10  C   UNL     1       0.264   9.599  22.658  0.00  0.00    +0.000 A 
ATOM     11  F   UNL     1       0.311   9.207  23.938  0.00  0.00    +0.000 F 
ATOM     12  C   UNL     1       0.915   8.828  21.701  0.00  0.00    +0.000 A 
BRANCH   9  13
ATOM     13  O   UNL     1      -1.028  11.495  23.269  0.00  0.00    +0.000 OA
ATOM     14  H   UNL     1      -1.477  10.896  23.887  0.00  0.00    +0.000 HD
ENDBRANCH   9  13
ENDBRANCH   3   6
BRANCH   1  15
ATOM     15  C   UNL     1       4.151   6.205  18.321  0.00  0.00    +0.000 C 
BRANCH  15  16
ATOM     16  C   UNL     1       4.149   4.807  17.758  0.00  0.00    +0.000 C 
ATOM     17  O   UNL     1       5.156   4.268  17.323  0.00  0.00    +0.000 OA
BRANCH  16  18
ATOM     18  O   UNL     1       2.902   4.261  17.780  0.00  0.00    +0.000 OA
BRANCH  18  20
ATOM     19  C   UNL     1       3.203   3.368  20.056  0.00  0.00    +0.000 C 
ATOM     20  C   UNL     1       2.648   3.120  18.646  0.00  0.00    +0.000 C 
ATOM     21  C   UNL     1       3.187   1.821  18.029  0.00  0.00    +0.000 C 
ATOM     22  C   UNL     1       1.120   2.999  18.752  0.00  0.00    +0.000 C 
ENDBRANCH  18  20
ENDBRANCH  16  18
ENDBRANCH  15  16
ENDBRANCH   1  15
TORSDOF 6
ENDMDL
MODEL 4
REMARK VINA RESULT:      -6.9      3.085      7.370
REMARK  Name = 
REMARK  9 active torsions:
REMARK  status: ('A' for Active; 'I' for Inactive)
REMARK    1  A    between atoms: C_1  and  C_2
REMARK    2  A    between atoms: C_2  and  C_3
REMARK    3  A    between atoms: C_2  and  C_4
REMARK    4  A    between atoms: C_2  and  O_5
REMARK    5  A    between atoms: O_5  and  C_6
REMARK    6  A    between atoms: C_6  and  C_8
REMARK    7  A    between atoms: C_8  and  C_9
REMARK    8  A    between atoms: C_11  and  C_12
REMARK    9  A    between atoms: C_15  and  O_16
REMARK                            x       y       z     vdW  Elec       q    Type
REMARK                         _______ _______ _______ _____ _____    ______ ____
ROOT
ATOM      1  C   UNL     1       5.142   4.483  18.677  0.00  0.00    +0.000 C 
ATOM      2  C   UNL     1       4.868   4.657  17.200  0.00  0.00    +0.000 C 
ATOM      3  C   UNL     1       6.243   4.505  16.668  0.00  0.00    +0.000 C 
ATOM      4  N   UNL     1       7.175   4.451  17.564  0.00  0.00    +0.000 NA
ATOM      5  O   UNL     1       6.563   4.595  18.832  0.00  0.00    +0.000 OA
ENDROOT
BRANCH   3   6
ATOM      6  C   UNL     1       6.498   4.488  15.211  0.00  0.00    +0.000 A 
ATOM      7  C   UNL     1       5.733   3.654  14.384  0.00  0.00    +0.000 A 
ATOM      8  C   UNL     1       6.003   3.578  13.013  0.00  0.00    +0.000 A 
ATOM      9  C   UNL     1       7.040   4.334  12.475  0.00  0.00    +0.000 A 
ATOM     10  C   UNL     1       7.794   5.169  13.296  0.00  0.00    +0.000 A 
ATOM     11  F   UNL     1       8.799   5.896  12.790  0.00  0.00    +0.000 F 
ATOM     12  C   UNL     1       7.530   5.255  14.659  0.00  0.00    +0.000 A 
BRANCH   9  13
ATOM     13  O   UNL     1       7.341   4.271  11.146  0.00  0.00    +0.000 OA
ATOM     14  H   UNL     1       7.944   4.997  10.918  0.00  0.00    +0.000 HD
ENDBRANCH   9  13
ENDBRANCH   3   6
BRANCH   1  15
ATOM     15  C   UNL     1       4.452   5.550  19.523  0.00  0.00    +0.000 C 
BRANCH  15  16
ATOM     16  C   UNL     1       3.085   5.049  19.915  0.00  0.00    +0.000 C 
ATOM     17  O   UNL     1       2.210   5.785  20.346  0.00  0.00    +0.000 OA
BRANCH  16  18
ATOM     18  O   UNL     1       2.980   3.703  19.747  0.00  0.00    +0.000 OA
BRANCH  18  20
ATOM     19  C   UNL     1       2.437   1.906  18.153  0.00  0.00    +0.000 C 
ATOM     20  C   UNL     1       1.954   3.181  18.858  0.00  0.00    +0.000 C 
ATOM     21  C   UNL     1       1.481   4.251  17.864  0.00  0.00    +0.000 C 
ATOM     22  C   UNL     1       0.765   2.804  19.756  0.00  0.00    +0.000 C 
ENDBRANCH  18  20
ENDBRANCH  16  18
ENDBRANCH  15  16
ENDBRANCH   1  15
TORSDOF 6
ENDMDL
MODEL 5
REMARK VINA RESULT:      -6.9      3.050      3.554
REMARK  Name = 
REMARK  9 active torsions:
REMARK  status: ('A' for Active; 'I' for Inactive)
REMARK    1  A    between atoms: C_1  and  C_2
REMARK    2  A    between atoms: C_2  and  C_3
REMARK    3  A    between atoms: C_2  and  C_4
REMARK    4  A    between atoms: C_2  and  O_5
REMARK    5  A    between atoms: O_5  and  C_6
REMARK    6  A    between atoms: C_6  and  C_8
REMARK    7  A    between atoms: C_8  and  C_9
REMARK    8  A    between atoms: C_11  and  C_12
REMARK    9  A    between atoms: C_15  and  O_16
REMARK                            x       y       z     vdW  Elec       q    Type
REMARK                         _______ _______ _______ _____ _____    ______ ____
ROOT
ATOM      1  C   UNL     1       5.121   5.295  16.370  0.00  0.00    +0.000 C 
ATOM      2  C   UNL     1       4.582   6.644  16.790  0.00  0.00    +0.000 C 
ATOM      3  C   UNL     1       3.508   6.210  17.716  0.00  0.00    +0.000 C 
ATOM      4  N   UNL     1       3.281   4.937  17.734  0.00  0.00    +0.000 NA
ATOM      5  O   UNL     1       4.148   4.331  16.794  0.00  0.00    +0.000 OA
ENDROOT
BRANCH   3   6
ATOM      6  C   UNL     1       2.730   7.198  18.495  0.00  0.00    +0.000 A 
ATOM      7  C   UNL     1       2.384   6.914  19.824  0.00  0.00    +0.000 A 
ATOM      8  C   UNL     1       1.595   7.809  20.556  0.00  0.00    +0.000 A 
ATOM      9  C   UNL     1       1.150   8.982  19.954  0.00  0.00    +0.000 A 
ATOM     10  C   UNL     1       1.500   9.267  18.636  0.00  0.00    +0.000 A 
ATOM     11  F   UNL     1       1.072  10.389  18.044  0.00  0.00    +0.000 F 
ATOM     12  C   UNL     1       2.289   8.386  17.903  0.00  0.00    +0.000 A 
BRANCH   9  13
ATOM     13  O   UNL     1       0.366   9.868  20.633  0.00  0.00    +0.000 OA
ATOM     14  H   UNL     1      -0.105  10.432  19.998  0.00  0.00    +0.000 HD
ENDBRANCH   9  13
ENDBRANCH   3   6
BRANCH   1  15
ATOM     15  C   UNL     1       5.312   5.194  14.859  0.00  0.00    +0.000 C 
BRANCH  15  16
ATOM     16  C   UNL     1       6.577   4.422  14.582  0.00  0.00    +0.000 C 
ATOM     17  O   UNL     1       7.670   4.770  15.003  0.00  0.00    +0.000 OA
BRANCH  16  18
ATOM     18  O   UNL     1       6.336   3.333  13.801  0.00  0.00    +0.000 OA
BRANCH  18  20
ATOM     19  C   UNL     1       7.171   4.664  11.906  0.00  0.00    +0.000 C 
ATOM     20  C   UNL     1       6.279   3.499  12.357  0.00  0.00    +0.000 C 
ATOM     21  C   UNL     1       4.831   3.653  11.870  0.00  0.00    +0.000 C 
ATOM     22  C   UNL     1       6.850   2.205  11.757  0.00  0.00    +0.000 C 
ENDBRANCH  18  20
ENDBRANCH  16  18
ENDBRANCH  15  16
ENDBRANCH   1  15
TORSDOF 6
ENDMDL
MODEL 6
REMARK VINA RESULT:      -6.9      1.961      2.718
REMARK  Name = 
REMARK  9 active torsions:
REMARK  status: ('A' for Active; 'I' for Inactive)
REMARK    1  A    between atoms: C_1  and  C_2
REMARK    2  A    between atoms: C_2  and  C_3
REMARK    3  A    between atoms: C_2  and  C_4
REMARK    4  A    between atoms: C_2  and  O_5
REMARK    5  A    between atoms: O_5  and  C_6
REMARK    6  A    between atoms: C_6  and  C_8
REMARK    7  A    between atoms: C_8  and  C_9
REMARK    8  A    between atoms: C_11  and  C_12
REMARK    9  A    between atoms: C_15  and  O_16
REMARK                            x       y       z     vdW  Elec       q    Type
REMARK                         _______ _______ _______ _____ _____    ______ ____
ROOT
ATOM      1  C   UNL     1       6.665   6.424  18.437  0.00  0.00    +0.000 C 
ATOM      2  C   UNL     1       5.237   6.080  18.080  0.00  0.00    +0.000 C 
ATOM      3  C   UNL     1       4.966   5.038  19.100  0.00  0.00    +0.000 C 
ATOM      4  N   UNL     1       5.994   4.668  19.792  0.00  0.00    +0.000 NA
ATOM      5  O   UNL     1       7.117   5.382  19.312  0.00  0.00    +0.000 OA
ENDROOT
BRANCH   3   6
ATOM      6  C   UNL     1       3.619   4.443  19.241  0.00  0.00    +0.000 A 
ATOM      7  C   UNL     1       2.760   4.905  20.249  0.00  0.00    +0.000 A 
ATOM      8  C   UNL     1       1.507   4.310  20.437  0.00  0.00    +0.000 A 
ATOM      9  C   UNL     1       1.119   3.254  19.618  0.00  0.00    +0.000 A 
ATOM     10  C   UNL     1       1.970   2.801  18.612  0.00  0.00    +0.000 A 
ATOM     11  F   UNL     1       1.610   1.780  17.823  0.00  0.00    +0.000 F 
ATOM     12  C   UNL     1       3.215   3.389  18.415  0.00  0.00    +0.000 A 
BRANCH   9  13
ATOM     13  O   UNL     1      -0.088   2.640  19.784  0.00  0.00    +0.000 OA
ATOM     14  H   UNL     1      -0.786   3.196  19.402  0.00  0.00    +0.000 HD
ENDBRANCH   9  13
ENDBRANCH   3   6
BRANCH   1  15
ATOM     15  C   UNL     1       7.570   6.484  17.209  0.00  0.00    +0.000 C 
BRANCH  15  16
ATOM     16  C   UNL     1       7.753   5.087  16.674  0.00  0.00    +0.000 C 
ATOM     17  O   UNL     1       8.095   4.149  17.379  0.00  0.00    +0.000 OA
BRANCH  16  18
ATOM     18  O   UNL     1       7.516   5.029  15.335  0.00  0.00    +0.000 OA
BRANCH  18  20
ATOM     19  C   UNL     1       5.231   5.747  14.761  0.00  0.00    +0.000 C 
ATOM     20  C   UNL     1       6.215   4.574  14.869  0.00  0.00    +0.000 C 
ATOM     21  C   UNL     1       5.673   3.440  15.750  0.00  0.00    +0.000 C 
ATOM     22  C   UNL     1       6.441   4.014  13.456  0.00  0.00    +0.000 C 
ENDBRANCH  18  20
ENDBRANCH  16  18
ENDBRANCH  15  16
ENDBRANCH   1  15
TORSDOF 6
ENDMDL
MODEL 7
REMARK VINA RESULT:      -6.9      4.892      6.603
REMARK  Name = 
REMARK  9 active torsions:
REMARK  status: ('A' for Active; 'I' for Inactive)
REMARK    1  A    between atoms: C_1  and  C_2
REMARK    2  A    between atoms: C_2  and  C_3
REMARK    3  A    between atoms: C_2  and  C_4
REMARK    4  A    between atoms: C_2  and  O_5
REMARK    5  A    between atoms: O_5  and  C_6
REMARK    6  A    between atoms: C_6  and  C_8
REMARK    7  A    between atoms: C_8  and  C_9
REMARK    8  A    between atoms: C_11  and  C_12
REMARK    9  A    between atoms: C_15  and  O_16
REMARK                            x       y       z     vdW  Elec       q    Type
REMARK                         _______ _______ _______ _____ _____    ______ ____
ROOT
ATOM      1  C   UNL     1       2.634   7.140  17.948  0.00  0.00    +0.000 C 
ATOM      2  C   UNL     1       2.184   7.384  19.371  0.00  0.00    +0.000 C 
ATOM      3  C   UNL     1       1.597   8.738  19.222  0.00  0.00    +0.000 C 
ATOM      4  N   UNL     1       1.793   9.297  18.072  0.00  0.00    +0.000 NA
ATOM      5  O   UNL     1       2.574   8.413  17.290  0.00  0.00    +0.000 OA
ENDROOT
BRANCH   3   6
ATOM      6  C   UNL     1       0.902   9.395  20.350  0.00  0.00    +0.000 A 
ATOM      7  C   UNL     1       1.007   8.851  21.639  0.00  0.00    +0.000 A 
ATOM      8  C   UNL     1       0.305   9.423  22.706  0.00  0.00    +0.000 A 
ATOM      9  C   UNL     1      -0.501  10.535  22.480  0.00  0.00    +0.000 A 
ATOM     10  C   UNL     1      -0.598  11.078  21.202  0.00  0.00    +0.000 A 
ATOM     11  F   UNL     1      -1.377  12.144  20.971  0.00  0.00    +0.000 F 
ATOM     12  C   UNL     1       0.099  10.520  20.136  0.00  0.00    +0.000 A 
BRANCH   9  13
ATOM     13  O   UNL     1      -1.212  11.107  23.495  0.00  0.00    +0.000 OA
ATOM     14  H   UNL     1      -1.040  10.625  24.319  0.00  0.00    +0.000 HD
ENDBRANCH   9  13
ENDBRANCH   3   6
BRANCH   1  15
ATOM     15  C   UNL     1       4.059   6.597  17.877  0.00  0.00    +0.000 C 
BRANCH  15  16
ATOM     16  C   UNL     1       4.016   5.193  17.330  0.00  0.00    +0.000 C 
ATOM     17  O   UNL     1       4.966   4.676  16.763  0.00  0.00    +0.000 OA
BRANCH  16  18
ATOM     18  O   UNL     1       2.800   4.617  17.532  0.00  0.00    +0.000 OA
BRANCH  18  20
ATOM     19  C   UNL     1       3.688   3.715  19.645  0.00  0.00    +0.000 C 
ATOM     20  C   UNL     1       2.684   3.534  18.498  0.00  0.00    +0.000 C 
ATOM     21  C   UNL     1       2.819   2.164  17.818  0.00  0.00    +0.000 C 
ATOM     22  C   UNL     1       1.268   3.639  19.086  0.00  0.00    +0.000 C 
ENDBRANCH  18  20
ENDBRANCH  16  18
ENDBRANCH  15  16
ENDBRANCH   1  15
TORSDOF 6
ENDMDL
MODEL 8
REMARK VINA RESULT:      -6.8      3.628      6.445
REMARK  Name = 
REMARK  9 active torsions:
REMARK  status: ('A' for Active; 'I' for Inactive)
REMARK    1  A    between atoms: C_1  and  C_2
REMARK    2  A    between atoms: C_2  and  C_3
REMARK    3  A    between atoms: C_2  and  C_4
REMARK    4  A    between atoms: C_2  and  O_5
REMARK    5  A    between atoms: O_5  and  C_6
REMARK    6  A    between atoms: C_6  and  C_8
REMARK    7  A    between atoms: C_8  and  C_9
REMARK    8  A    between atoms: C_11  and  C_12
REMARK    9  A    between atoms: C_15  and  O_16
REMARK                            x       y       z     vdW  Elec       q    Type
REMARK                         _______ _______ _______ _____ _____    ______ ____
ROOT
ATOM      1  C   UNL     1       3.968   4.367  17.349  0.00  0.00    +0.000 C 
ATOM      2  C   UNL     1       2.722   5.159  17.674  0.00  0.00    +0.000 C 
ATOM      3  C   UNL     1       3.341   6.394  18.212  0.00  0.00    +0.000 C 
ATOM      4  N   UNL     1       4.623   6.338  18.378  0.00  0.00    +0.000 NA
ATOM      5  O   UNL     1       5.049   5.040  18.008  0.00  0.00    +0.000 OA
ENDROOT
BRANCH   3   6
ATOM      6  C   UNL     1       2.513   7.562  18.583  0.00  0.00    +0.000 A 
ATOM      7  C   UNL     1       2.347   8.612  17.668  0.00  0.00    +0.000 A 
ATOM      8  C   UNL     1       1.619   9.752  18.026  0.00  0.00    +0.000 A 
ATOM      9  C   UNL     1       1.062   9.840  19.298  0.00  0.00    +0.000 A 
ATOM     10  C   UNL     1       1.221   8.794  20.204  0.00  0.00    +0.000 A 
ATOM     11  F   UNL     1       0.696   8.870  21.434  0.00  0.00    +0.000 F 
ATOM     12  C   UNL     1       1.939   7.654  19.855  0.00  0.00    +0.000 A 
BRANCH   9  13
ATOM     13  O   UNL     1       0.361  10.944  19.685  0.00  0.00    +0.000 OA
ATOM     14  H   UNL     1      -0.512  10.936  19.261  0.00  0.00    +0.000 HD
ENDBRANCH   9  13
ENDBRANCH   3   6
BRANCH   1  15
ATOM     15  C   UNL     1       3.885   2.927  17.850  0.00  0.00    +0.000 C 
BRANCH  15  16
ATOM     16  C   UNL     1       4.139   2.916  19.336  0.00  0.00    +0.000 C 
ATOM     17  O   UNL     1       5.048   2.279  19.846  0.00  0.00    +0.000 OA
BRANCH  16  18
ATOM     18  O   UNL     1       3.225   3.672  20.003  0.00  0.00    +0.000 OA
BRANCH  18  20
ATOM     19  C   UNL     1       1.609   1.895  19.461  0.00  0.00    +0.000 C 
ATOM     20  C   UNL     1       1.955   3.072  20.383  0.00  0.00    +0.000 C 
ATOM     21  C   UNL     1       0.836   4.122  20.432  0.00  0.00    +0.000 C 
ATOM     22  C   UNL     1       2.154   2.520  21.803  0.00  0.00    +0.000 C 
ENDBRANCH  18  20
ENDBRANCH  16  18
ENDBRANCH  15  16
ENDBRANCH   1  15
TORSDOF 6
ENDMDL
MODEL 9
REMARK VINA RESULT:      -6.7      2.879      7.050
REMARK  Name = 
REMARK  9 active torsions:
REMARK  status: ('A' for Active; 'I' for Inactive)
REMARK    1  A    between atoms: C_1  and  C_2
REMARK    2  A    between atoms: C_2  and  C_3
REMARK    3  A    between atoms: C_2  and  C_4
REMARK    4  A    between atoms: C_2  and  O_5
REMARK    5  A    between atoms: O_5  and  C_6
REMARK    6  A    between atoms: C_6  and  C_8
REMARK    7  A    between atoms: C_8  and  C_9
REMARK    8  A    between atoms: C_11  and  C_12
REMARK    9  A    between atoms: C_15  and  O_16
REMARK                            x       y       z     vdW  Elec       q    Type
REMARK                         _______ _______ _______ _____ _____    ______ ____
ROOT
ATOM      1  C   UNL     1       2.479   2.288  18.821  0.00  0.00    +0.000 C 
ATOM      2  C   UNL     1       2.936   3.046  17.595  0.00  0.00    +0.000 C 
ATOM      3  C   UNL     1       4.382   3.164  17.896  0.00  0.00    +0.000 C 
ATOM      4  N   UNL     1       4.731   2.772  19.079  0.00  0.00    +0.000 NA
ATOM      5  O   UNL     1       3.560   2.365  19.760  0.00  0.00    +0.000 OA
ENDROOT
BRANCH   3   6
ATOM      6  C   UNL     1       5.318   3.755  16.914  0.00  0.00    +0.000 A 
ATOM      7  C   UNL     1       6.380   4.553  17.363  0.00  0.00    +0.000 A 
ATOM      8  C   UNL     1       7.236   5.171  16.445  0.00  0.00    +0.000 A 
ATOM      9  C   UNL     1       7.026   4.991  15.081  0.00  0.00    +0.000 A 
ATOM     10  C   UNL     1       5.976   4.191  14.636  0.00  0.00    +0.000 A 
ATOM     11  F   UNL     1       5.759   4.016  13.326  0.00  0.00    +0.000 F 
ATOM     12  C   UNL     1       5.123   3.569  15.541  0.00  0.00    +0.000 A 
BRANCH   9  13
ATOM     13  O   UNL     1       7.832   5.592  14.159  0.00  0.00    +0.000 OA
ATOM     14  H   UNL     1       8.651   5.885  14.590  0.00  0.00    +0.000 HD
ENDBRANCH   9  13
ENDBRANCH   3   6
BRANCH   1  15
ATOM     15  C   UNL     1       1.222   2.894  19.441  0.00  0.00    +0.000 C 
BRANCH  15  16
ATOM     16  C   UNL     1       1.584   4.211  20.079  0.00  0.00    +0.000 C 
ATOM     17  O   UNL     1       1.846   4.321  21.267  0.00  0.00    +0.000 OA
BRANCH  16  18
ATOM     18  O   UNL     1       1.552   5.228  19.174  0.00  0.00    +0.000 OA
BRANCH  18  20
ATOM     19  C   UNL     1       3.856   5.903  19.724  0.00  0.00    +0.000 C 
ATOM     20  C   UNL     1       2.439   6.367  19.363  0.00  0.00    +0.000 C 
ATOM     21  C   UNL     1       1.868   7.352  20.393  0.00  0.00    +0.000 C 
ATOM     22  C   UNL     1       2.506   7.082  18.004  0.00  0.00    +0.000 C 
ENDBRANCH  18  20
ENDBRANCH  16  18
ENDBRANCH  15  16
ENDBRANCH   1  15
TORSDOF 6
ENDMDL
