MODEL 1
REMARK VINA RESULT:      -7.5      0.000      0.000
REMARK  Name = 
REMARK  12 active torsions:
REMARK  status: ('A' for Active; 'I' for Inactive)
REMARK    1  A    between atoms: C_1  and  C_2
REMARK    2  A    between atoms: C_2  and  O_3
REMARK    3  A    between atoms: O_3  and  C_4
REMARK    4  A    between atoms: C_4  and  C_6
REMARK    5  A    between atoms: C_6  and  O_7
REMARK    6  A    between atoms: O_7  and  C_8
REMARK    7  A    between atoms: C_18  and  O_19
REMARK    8  A    between atoms: O_19  and  C_20
REMARK    9  A    between atoms: C_20  and  C_21
REMARK   10  A    between atoms: C_21  and  O_23
REMARK   11  A    between atoms: O_23  and  C_24
REMARK   12  A    between atoms: C_24  and  C_25
REMARK                            x       y       z     vdW  Elec       q    Type
REMARK                         _______ _______ _______ _____ _____    ______ ____
ROOT
ATOM      1  C   UNL     1       6.009   4.471  18.002  0.00  0.00    +0.000 A 
ATOM      2  C   UNL     1       5.292   4.056  19.133  0.00  0.00    +0.000 A 
ATOM      3  C   UNL     1       4.006   3.546  18.996  0.00  0.00    +0.000 A 
ATOM      4  C   UNL     1       3.267   3.031  20.135  0.00  0.00    +0.000 A 
ATOM      5  C   UNL     1       2.043   2.538  19.950  0.00  0.00    +0.000 A 
ATOM      6  C   UNL     1       1.395   2.499  18.626  0.00  0.00    +0.000 A 
ATOM      7  O   UNL     1       0.260   2.057  18.495  0.00  0.00    +0.000 OA
ATOM      8  O   UNL     1       2.127   2.990  17.555  0.00  0.00    +0.000 OA
ATOM      9  C   UNL     1       3.428   3.504  17.731  0.00  0.00    +0.000 A 
ATOM     10  C   UNL     1       4.103   3.953  16.598  0.00  0.00    +0.000 A 
ATOM     11  C   UNL     1       5.405   4.442  16.729  0.00  0.00    +0.000 A 
ENDROOT
BRANCH   1  12
ATOM     12  O   UNL     1       7.299   4.937  18.081  0.00  0.00    +0.000 OA
BRANCH  12  13
ATOM     13  C   UNL     1       7.467   6.117  18.862  0.00  0.00    +0.000 C 
BRANCH  13  14
ATOM     14  C   UNL     1       7.701   7.340  17.999  0.00  0.00    +0.000 C 
ATOM     15  O   UNL     1       7.209   7.560  16.901  0.00  0.00    +0.000 OA
BRANCH  14  16
ATOM     16  O   UNL     1       8.642   8.125  18.608  0.00  0.00    +0.000 OA
BRANCH  16  18
ATOM     17  C   UNL     1       9.256  10.299  19.374  0.00  0.00    +0.000 C 
ATOM     18  C   UNL     1       8.575   9.516  18.264  0.00  0.00    +0.000 C 
ENDBRANCH  16  18
ENDBRANCH  14  16
ENDBRANCH  13  14
ENDBRANCH  12  13
ENDBRANCH   1  12
BRANCH  11  19
ATOM     19  O   UNL     1       6.183   4.829  15.669  0.00  0.00    +0.000 OA
BRANCH  19  20
ATOM     20  C   UNL     1       6.393   3.873  14.635  0.00  0.00    +0.000 C 
BRANCH  20  21
ATOM     21  C   UNL     1       7.026   4.547  13.427  0.00  0.00    +0.000 C 
ATOM     22  O   UNL     1       7.823   5.473  13.451  0.00  0.00    +0.000 OA
BRANCH  21  23
ATOM     23  O   UNL     1       6.516   3.989  12.286  0.00  0.00    +0.000 OA
BRANCH  23  24
ATOM     24  C   UNL     1       5.403   3.107  12.497  0.00  0.00    +0.000 C 
ATOM     25  C   UNL     1       4.399   3.361  11.387  0.00  0.00    +0.000 C 
ENDBRANCH  23  24
ENDBRANCH  21  23
ENDBRANCH  20  21
ENDBRANCH  19  20
ENDBRANCH  11  19
TORSDOF 10
ENDMDL
MODEL 2
REMARK VINA RESULT:      -7.5      2.868      5.923
REMARK  Name = 
REMARK  12 active torsions:
REMARK  status: ('A' for Active; 'I' for Inactive)
REMARK    1  A    between atoms: C_1  and  C_2
REMARK    2  A    between atoms: C_2  and  O_3
REMARK    3  A    between atoms: O_3  and  C_4
REMARK    4  A    between atoms: C_4  and  C_6
REMARK    5  A    between atoms: C_6  and  O_7
REMARK    6  A    between atoms: O_7  and  C_8
REMARK    7  A    between atoms: C_18  and  O_19
REMARK    8  A    between atoms: O_19  and  C_20
REMARK    9  A    between atoms: C_20  and  C_21
REMARK   10  A    between atoms: C_21  and  O_23
REMARK   11  A    between atoms: O_23  and  C_24
REMARK   12  A    between atoms: C_24  and  C_25
REMARK                            x       y       z     vdW  Elec       q    Type
REMARK                         _______ _______ _______ _____ _____    ______ ____
ROOT
ATOM      1  C   UNL     1       4.433   4.460  18.955  0.00  0.00    +0.000 A 
ATOM      2  C   UNL     1       3.677   5.284  19.801  0.00  0.00    +0.000 A 
ATOM      3  C   UNL     1       3.079   6.435  19.301  0.00  0.00    +0.000 A 
ATOM      4  C   UNL     1       2.221   7.266  20.128  0.00  0.00    +0.000 A 
ATOM      5  C   UNL     1       1.658   8.351  19.599  0.00  0.00    +0.000 A 
ATOM      6  C   UNL     1       1.876   8.756  18.197  0.00  0.00    +0.000 A 
ATOM      7  O   UNL     1       1.358   9.771  17.749  0.00  0.00    +0.000 OA
ATOM      8  O   UNL     1       2.692   7.939  17.428  0.00  0.00    +0.000 OA
ATOM      9  C   UNL     1       3.287   6.780  17.970  0.00  0.00    +0.000 A 
ATOM     10  C   UNL     1       4.072   6.002  17.121  0.00  0.00    +0.000 A 
ATOM     11  C   UNL     1       4.654   4.832  17.613  0.00  0.00    +0.000 A 
ENDROOT
BRANCH   1  12
ATOM     12  O   UNL     1       5.004   3.288  19.390  0.00  0.00    +0.000 OA
BRANCH  12  13
ATOM     13  C   UNL     1       4.098   2.357  19.975  0.00  0.00    +0.000 C 
BRANCH  13  14
ATOM     14  C   UNL     1       3.194   1.719  18.940  0.00  0.00    +0.000 C 
ATOM     15  O   UNL     1       3.505   1.396  17.802  0.00  0.00    +0.000 OA
BRANCH  14  16
ATOM     16  O   UNL     1       1.929   1.649  19.457  0.00  0.00    +0.000 OA
BRANCH  16  18
ATOM     17  C   UNL     1       0.692   3.598  20.058  0.00  0.00    +0.000 C 
ATOM     18  C   UNL     1       1.015   2.624  18.938  0.00  0.00    +0.000 C 
ENDBRANCH  16  18
ENDBRANCH  14  16
ENDBRANCH  13  14
ENDBRANCH  12  13
ENDBRANCH   1  12
BRANCH  11  19
ATOM     19  O   UNL     1       5.373   3.956  16.842  0.00  0.00    +0.000 OA
BRANCH  19  20
ATOM     20  C   UNL     1       6.546   4.460  16.211  0.00  0.00    +0.000 C 
BRANCH  20  21
ATOM     21  C   UNL     1       7.508   4.999  17.258  0.00  0.00    +0.000 C 
ATOM     22  O   UNL     1       8.008   4.364  18.176  0.00  0.00    +0.000 OA
BRANCH  21  23
ATOM     23  O   UNL     1       7.688   6.340  17.050  0.00  0.00    +0.000 OA
BRANCH  23  24
ATOM     24  C   UNL     1       7.921   7.104  18.243  0.00  0.00    +0.000 C 
ATOM     25  C   UNL     1       7.985   8.567  17.845  0.00  0.00    +0.000 C 
ENDBRANCH  23  24
ENDBRANCH  21  23
ENDBRANCH  20  21
ENDBRANCH  19  20
ENDBRANCH  11  19
TORSDOF 10
ENDMDL
MODEL 3
REMARK VINA RESULT:      -7.4      1.411      5.370
REMARK  Name = 
REMARK  12 active torsions:
REMARK  status: ('A' for Active; 'I' for Inactive)
REMARK    1  A    between atoms: C_1  and  C_2
REMARK    2  A    between atoms: C_2  and  O_3
REMARK    3  A    between atoms: O_3  and  C_4
REMARK    4  A    between atoms: C_4  and  C_6
REMARK    5  A    between atoms: C_6  and  O_7
REMARK    6  A    between atoms: O_7  and  C_8
REMARK    7  A    between atoms: C_18  and  O_19
REMARK    8  A    between atoms: O_19  and  C_20
REMARK    9  A    between atoms: C_20  and  C_21
REMARK   10  A    between atoms: C_21  and  O_23
REMARK   11  A    between atoms: O_23  and  C_24
REMARK   12  A    between atoms: C_24  and  C_25
REMARK                            x       y       z     vdW  Elec       q    Type
REMARK                         _______ _______ _______ _____ _____    ______ ____
ROOT
ATOM      1  C   UNL     1       4.315   4.158  17.001  0.00  0.00    +0.000 A 
ATOM      2  C   UNL     1       2.978   3.792  17.212  0.00  0.00    +0.000 A 
ATOM      3  C   UNL     1       2.548   3.423  18.482  0.00  0.00    +0.000 A 
ATOM      4  C   UNL     1       1.154   3.118  18.753  0.00  0.00    +0.000 A 
ATOM      5  C   UNL     1       0.788   2.784  19.990  0.00  0.00    +0.000 A 
ATOM      6  C   UNL     1       1.748   2.700  21.106  0.00  0.00    +0.000 A 
ATOM      7  O   UNL     1       1.381   2.370  22.227  0.00  0.00    +0.000 OA
ATOM      8  O   UNL     1       3.071   3.005  20.821  0.00  0.00    +0.000 OA
ATOM      9  C   UNL     1       3.473   3.372  19.519  0.00  0.00    +0.000 A 
ATOM     10  C   UNL     1       4.816   3.687  19.325  0.00  0.00    +0.000 A 
ATOM     11  C   UNL     1       5.246   4.084  18.056  0.00  0.00    +0.000 A 
ENDROOT
BRANCH   1  12
ATOM     12  O   UNL     1       4.777   4.577  15.776  0.00  0.00    +0.000 OA
BRANCH  12  13
ATOM     13  C   UNL     1       5.784   3.751  15.198  0.00  0.00    +0.000 C 
BRANCH  13  14
ATOM     14  C   UNL     1       6.687   4.529  14.263  0.00  0.00    +0.000 C 
ATOM     15  O   UNL     1       7.704   5.135  14.570  0.00  0.00    +0.000 OA
BRANCH  14  16
ATOM     16  O   UNL     1       6.122   4.527  13.016  0.00  0.00    +0.000 OA
BRANCH  16  18
ATOM     17  C   UNL     1       4.770   3.102  11.664  0.00  0.00    +0.000 C 
ATOM     18  C   UNL     1       6.108   3.249  12.367  0.00  0.00    +0.000 C 
ENDBRANCH  16  18
ENDBRANCH  14  16
ENDBRANCH  13  14
ENDBRANCH  12  13
ENDBRANCH   1  12
BRANCH  11  19
ATOM     19  O   UNL     1       6.525   4.493  17.779  0.00  0.00    +0.000 OA
BRANCH  19  20
ATOM     20  C   UNL     1       6.798   5.886  17.886  0.00  0.00    +0.000 C 
BRANCH  20  21
ATOM     21  C   UNL     1       7.711   6.147  19.074  0.00  0.00    +0.000 C 
ATOM     22  O   UNL     1       7.686   5.562  20.147  0.00  0.00    +0.000 OA
BRANCH  21  23
ATOM     23  O   UNL     1       8.541   7.194  18.778  0.00  0.00    +0.000 OA
BRANCH  23  24
ATOM     24  C   UNL     1       7.967   8.189  17.917  0.00  0.00    +0.000 C 
ATOM     25  C   UNL     1       8.552   9.532  18.313  0.00  0.00    +0.000 C 
ENDBRANCH  23  24
ENDBRANCH  21  23
ENDBRANCH  20  21
ENDBRANCH  19  20
ENDBRANCH  11  19
TORSDOF 10
ENDMDL
MODEL 4
REMARK VINA RESULT:      -7.3      3.459      5.532
REMARK  Name = 
REMARK  12 active torsions:
REMARK  status: ('A' for Active; 'I' for Inactive)
REMARK    1  A    between atoms: C_1  and  C_2
REMARK    2  A    between atoms: C_2  and  O_3
REMARK    3  A    between atoms: O_3  and  C_4
REMARK    4  A    between atoms: C_4  and  C_6
REMARK    5  A    between atoms: C_6  and  O_7
REMARK    6  A    between atoms: O_7  and  C_8
REMARK    7  A    between atoms: C_18  and  O_19
REMARK    8  A    between atoms: O_19  and  C_20
REMARK    9  A    between atoms: C_20  and  C_21
REMARK   10  A    between atoms: C_21  and  O_23
REMARK   11  A    between atoms: O_23  and  C_24
REMARK   12  A    between atoms: C_24  and  C_25
REMARK                            x       y       z     vdW  Elec       q    Type
REMARK                         _______ _______ _______ _____ _____    ______ ____
ROOT
ATOM      1  C   UNL     1       4.221   5.925  17.693  0.00  0.00    +0.000 A 
ATOM      2  C   UNL     1       3.705   7.167  17.301  0.00  0.00    +0.000 A 
ATOM      3  C   UNL     1       2.807   7.840  18.122  0.00  0.00    +0.000 A 
ATOM      4  C   UNL     1       2.316   9.165  17.787  0.00  0.00    +0.000 A 
ATOM      5  C   UNL     1       1.470   9.776  18.614  0.00  0.00    +0.000 A 
ATOM      6  C   UNL     1       0.996   9.155  19.866  0.00  0.00    +0.000 A 
ATOM      7  O   UNL     1       0.201   9.738  20.594  0.00  0.00    +0.000 OA
ATOM      8  O   UNL     1       1.487   7.894  20.165  0.00  0.00    +0.000 OA
ATOM      9  C   UNL     1       2.394   7.238  19.306  0.00  0.00    +0.000 A 
ATOM     10  C   UNL     1       2.858   5.983  19.695  0.00  0.00    +0.000 A 
ATOM     11  C   UNL     1       3.779   5.316  18.885  0.00  0.00    +0.000 A 
ENDROOT
BRANCH   1  12
ATOM     12  O   UNL     1       5.147   5.243  16.938  0.00  0.00    +0.000 OA
BRANCH  12  13
ATOM     13  C   UNL     1       6.385   5.922  16.746  0.00  0.00    +0.000 C 
BRANCH  13  14
ATOM     14  C   UNL     1       7.375   5.620  17.852  0.00  0.00    +0.000 C 
ATOM     15  O   UNL     1       7.679   4.514  18.275  0.00  0.00    +0.000 OA
BRANCH  14  16
ATOM     16  O   UNL     1       7.808   6.807  18.379  0.00  0.00    +0.000 OA
BRANCH  16  18
ATOM     17  C   UNL     1       8.361   9.116  18.148  0.00  0.00    +0.000 C 
ATOM     18  C   UNL     1       7.618   7.945  17.527  0.00  0.00    +0.000 C 
ENDBRANCH  16  18
ENDBRANCH  14  16
ENDBRANCH  13  14
ENDBRANCH  12  13
ENDBRANCH   1  12
BRANCH  11  19
ATOM     19  O   UNL     1       4.359   4.119  19.217  0.00  0.00    +0.000 OA
BRANCH  19  20
ATOM     20  C   UNL     1       4.048   2.997  18.395  0.00  0.00    +0.000 C 
BRANCH  20  21
ATOM     21  C   UNL     1       2.543   2.780  18.361  0.00  0.00    +0.000 C 
ATOM     22  O   UNL     1       1.770   3.210  17.518  0.00  0.00    +0.000 OA
BRANCH  21  23
ATOM     23  O   UNL     1       2.170   2.067  19.468  0.00  0.00    +0.000 OA
BRANCH  23  24
ATOM     24  C   UNL     1       1.267   2.754  20.346  0.00  0.00    +0.000 C 
ATOM     25  C   UNL     1       1.989   2.982  21.661  0.00  0.00    +0.000 C 
ENDBRANCH  23  24
ENDBRANCH  21  23
ENDBRANCH  20  21
ENDBRANCH  19  20
ENDBRANCH  11  19
TORSDOF 10
ENDMDL
MODEL 5
REMARK VINA RESULT:      -7.3      1.148      5.492
REMARK  Name = 
REMARK  12 active torsions:
REMARK  status: ('A' for Active; 'I' for Inactive)
REMARK    1  A    between atoms: C_1  and  C_2
REMARK    2  A    between atoms: C_2  and  O_3
REMARK    3  A    between atoms: O_3  and  C_4
REMARK    4  A    between atoms: C_4  and  C_6
REMARK    5  A    between atoms: C_6  and  O_7
REMARK    6  A    between atoms: O_7  and  C_8
REMARK    7  A    between atoms: C_18  and  O_19
REMARK    8  A    between atoms: O_19  and  C_20
REMARK    9  A    between atoms: C_20  and  C_21
REMARK   10  A    between atoms: C_21  and  O_23
REMARK   11  A    between atoms: O_23  and  C_24
REMARK   12  A    between atoms: C_24  and  C_25
REMARK                            x       y       z     vdW  Elec       q    Type
REMARK                         _______ _______ _______ _____ _____    ______ ____
ROOT
ATOM      1  C   UNL     1       5.110   4.893  17.101  0.00  0.00    +0.000 A 
ATOM      2  C   UNL     1       3.739   4.604  17.076  0.00  0.00    +0.000 A 
ATOM      3  C   UNL     1       3.126   4.029  18.184  0.00  0.00    +0.000 A 
ATOM      4  C   UNL     1       1.694   3.792  18.222  0.00  0.00    +0.000 A 
ATOM      5  C   UNL     1       1.151   3.253  19.313  0.00  0.00    +0.000 A 
ATOM      6  C   UNL     1       1.951   2.874  20.493  0.00  0.00    +0.000 A 
ATOM      7  O   UNL     1       1.422   2.362  21.472  0.00  0.00    +0.000 OA
ATOM      8  O   UNL     1       3.314   3.119  20.432  0.00  0.00    +0.000 OA
ATOM      9  C   UNL     1       3.903   3.700  19.289  0.00  0.00    +0.000 A 
ATOM     10  C   UNL     1       5.276   3.936  19.321  0.00  0.00    +0.000 A 
ATOM     11  C   UNL     1       5.890   4.537  18.220  0.00  0.00    +0.000 A 
ENDROOT
BRANCH   1  12
ATOM     12  O   UNL     1       5.752   5.504  16.050  0.00  0.00    +0.000 OA
BRANCH  12  13
ATOM     13  C   UNL     1       5.356   5.053  14.758  0.00  0.00    +0.000 C 
BRANCH  13  14
ATOM     14  C   UNL     1       6.542   4.622  13.920  0.00  0.00    +0.000 C 
ATOM     15  O   UNL     1       7.501   5.314  13.607  0.00  0.00    +0.000 OA
BRANCH  14  16
ATOM     16  O   UNL     1       6.319   3.346  13.479  0.00  0.00    +0.000 OA
BRANCH  16  18
ATOM     17  C   UNL     1       4.750   3.206  11.688  0.00  0.00    +0.000 C 
ATOM     18  C   UNL     1       6.224   3.211  12.055  0.00  0.00    +0.000 C 
ENDBRANCH  16  18
ENDBRANCH  14  16
ENDBRANCH  13  14
ENDBRANCH  12  13
ENDBRANCH   1  12
BRANCH  11  19
ATOM     19  O   UNL     1       7.215   4.886  18.183  0.00  0.00    +0.000 OA
BRANCH  19  20
ATOM     20  C   UNL     1       7.615   6.002  18.974  0.00  0.00    +0.000 C 
BRANCH  20  21
ATOM     21  C   UNL     1       7.944   7.183  18.075  0.00  0.00    +0.000 C 
ATOM     22  O   UNL     1       7.709   7.269  16.878  0.00  0.00    +0.000 OA
BRANCH  21  23
ATOM     23  O   UNL     1       8.608   8.130  18.807  0.00  0.00    +0.000 OA
BRANCH  23  24
ATOM     24  C   UNL     1       8.530   9.461  18.275  0.00  0.00    +0.000 C 
ATOM     25  C   UNL     1       9.285  10.378  19.220  0.00  0.00    +0.000 C 
ENDBRANCH  23  24
ENDBRANCH  21  23
ENDBRANCH  20  21
ENDBRANCH  19  20
ENDBRANCH  11  19
TORSDOF 10
ENDMDL
MODEL 6
REMARK VINA RESULT:      -7.2      3.021      5.106
REMARK  Name = 
REMARK  12 active torsions:
REMARK  status: ('A' for Active; 'I' for Inactive)
REMARK    1  A    between atoms: C_1  and  C_2
REMARK    2  A    between atoms: C_2  and  O_3
REMARK    3  A    between atoms: O_3  and  C_4
REMARK    4  A    between atoms: C_4  and  C_6
REMARK    5  A    between atoms: C_6  and  O_7
REMARK    6  A    between atoms: O_7  and  C_8
REMARK    7  A    between atoms: C_18  and  O_19
REMARK    8  A    between atoms: O_19  and  C_20
REMARK    9  A    between atoms: C_20  and  C_21
REMARK   10  A    between atoms: C_21  and  O_23
REMARK   11  A    between atoms: O_23  and  C_24
REMARK   12  A    between atoms: C_24  and  C_25
REMARK                            x       y       z     vdW  Elec       q    Type
REMARK                         _______ _______ _______ _____ _____    ______ ____
ROOT
ATOM      1  C   UNL     1       4.818   4.847  18.702  0.00  0.00    +0.000 A 
ATOM      2  C   UNL     1       3.864   5.524  19.474  0.00  0.00    +0.000 A 
ATOM      3  C   UNL     1       3.262   6.679  18.985  0.00  0.00    +0.000 A 
ATOM      4  C   UNL     1       2.211   7.358  19.722  0.00  0.00    +0.000 A 
ATOM      5  C   UNL     1       1.654   8.452  19.204  0.00  0.00    +0.000 A 
ATOM      6  C   UNL     1       2.068   9.014  17.905  0.00  0.00    +0.000 A 
ATOM      7  O   UNL     1       1.548  10.034  17.468  0.00  0.00    +0.000 OA
ATOM      8  O   UNL     1       3.068   8.340  17.219  0.00  0.00    +0.000 OA
ATOM      9  C   UNL     1       3.660   7.174  17.748  0.00  0.00    +0.000 A 
ATOM     10  C   UNL     1       4.639   6.544  16.982  0.00  0.00    +0.000 A 
ATOM     11  C   UNL     1       5.227   5.371  17.459  0.00  0.00    +0.000 A 
ENDROOT
BRANCH   1  12
ATOM     12  O   UNL     1       5.406   3.677  19.121  0.00  0.00    +0.000 OA
BRANCH  12  13
ATOM     13  C   UNL     1       4.520   2.568  19.245  0.00  0.00    +0.000 C 
BRANCH  13  14
ATOM     14  C   UNL     1       4.404   2.092  20.679  0.00  0.00    +0.000 C 
ATOM     15  O   UNL     1       5.235   1.443  21.299  0.00  0.00    +0.000 OA
BRANCH  14  16
ATOM     16  O   UNL     1       3.162   2.425  21.146  0.00  0.00    +0.000 OA
BRANCH  16  18
ATOM     17  C   UNL     1       1.115   3.507  20.576  0.00  0.00    +0.000 C 
ATOM     18  C   UNL     1       2.137   2.471  20.143  0.00  0.00    +0.000 C 
ENDBRANCH  16  18
ENDBRANCH  14  16
ENDBRANCH  13  14
ENDBRANCH  12  13
ENDBRANCH   1  12
BRANCH  11  19
ATOM     19  O   UNL     1       6.137   4.631  16.748  0.00  0.00    +0.000 OA
BRANCH  19  20
ATOM     20  C   UNL     1       5.742   4.187  15.454  0.00  0.00    +0.000 C 
BRANCH  20  21
ATOM     21  C   UNL     1       6.778   4.609  14.423  0.00  0.00    +0.000 C 
ATOM     22  O   UNL     1       7.678   5.418  14.591  0.00  0.00    +0.000 OA
BRANCH  21  23
ATOM     23  O   UNL     1       6.510   3.978  13.238  0.00  0.00    +0.000 OA
BRANCH  23  24
ATOM     24  C   UNL     1       5.194   3.412  13.145  0.00  0.00    +0.000 C 
ATOM     25  C   UNL     1       4.821   3.357  11.675  0.00  0.00    +0.000 C 
ENDBRANCH  23  24
ENDBRANCH  21  23
ENDBRANCH  20  21
ENDBRANCH  19  20
ENDBRANCH  11  19
TORSDOF 10
ENDMDL
MODEL 7
REMARK VINA RESULT:      -7.2      2.892      5.711
REMARK  Name = 
REMARK  12 active torsions:
REMARK  status: ('A' for Active; 'I' for Inactive)
REMARK    1  A    between atoms: C_1  and  C_2
REMARK    2  A    between atoms: C_2  and  O_3
REMARK    3  A    between atoms: O_3  and  C_4
REMARK    4  A    between atoms: C_4  and  C_6
REMARK    5  A    between atoms: C_6  and  O_7
REMARK    6  A    between atoms: O_7  and  C_8
REMARK    7  A    between atoms: C_18  and  O_19
REMARK    8  A    between atoms: O_19  and  C_20
REMARK    9  A    between atoms: C_20  and  C_21
REMARK   10  A    between atoms: C_21  and  O_23
REMARK   11  A    between atoms: O_23  and  C_24
REMARK   12  A    between atoms: C_24  and  C_25
REMARK                            x       y       z     vdW  Elec       q    Type
REMARK                         _______ _______ _______ _____ _____    ______ ____
ROOT
ATOM      1  C   UNL     1       4.406   4.529  18.984  0.00  0.00    +0.000 A 
ATOM      2  C   UNL     1       3.636   5.365  19.805  0.00  0.00    +0.000 A 
ATOM      3  C   UNL     1       3.046   6.509  19.280  0.00  0.00    +0.000 A 
ATOM      4  C   UNL     1       2.175   7.351  20.081  0.00  0.00    +0.000 A 
ATOM      5  C   UNL     1       1.621   8.428  19.527  0.00  0.00    +0.000 A 
ATOM      6  C   UNL     1       1.861   8.813  18.124  0.00  0.00    +0.000 A 
ATOM      7  O   UNL     1       1.350   9.822  17.653  0.00  0.00    +0.000 OA
ATOM      8  O   UNL     1       2.690   7.986  17.380  0.00  0.00    +0.000 OA
ATOM      9  C   UNL     1       3.276   6.835  17.947  0.00  0.00    +0.000 A 
ATOM     10  C   UNL     1       4.074   6.045  17.123  0.00  0.00    +0.000 A 
ATOM     11  C   UNL     1       4.648   4.882  17.640  0.00  0.00    +0.000 A 
ENDROOT
BRANCH   1  12
ATOM     12  O   UNL     1       4.970   3.364  19.444  0.00  0.00    +0.000 OA
BRANCH  12  13
ATOM     13  C   UNL     1       4.049   2.423  19.989  0.00  0.00    +0.000 C 
BRANCH  13  14
ATOM     14  C   UNL     1       3.208   1.766  18.914  0.00  0.00    +0.000 C 
ATOM     15  O   UNL     1       3.589   1.409  17.808  0.00  0.00    +0.000 OA
BRANCH  14  16
ATOM     16  O   UNL     1       1.910   1.722  19.347  0.00  0.00    +0.000 OA
BRANCH  16  18
ATOM     17  C   UNL     1       0.726   3.611  20.194  0.00  0.00    +0.000 C 
ATOM     18  C   UNL     1       1.106   2.839  18.943  0.00  0.00    +0.000 C 
ENDBRANCH  16  18
ENDBRANCH  14  16
ENDBRANCH  13  14
ENDBRANCH  12  13
ENDBRANCH   1  12
BRANCH  11  19
ATOM     19  O   UNL     1       5.379   3.995  16.893  0.00  0.00    +0.000 OA
BRANCH  19  20
ATOM     20  C   UNL     1       5.742   4.400  15.577  0.00  0.00    +0.000 C 
BRANCH  20  21
ATOM     21  C   UNL     1       7.141   4.995  15.584  0.00  0.00    +0.000 C 
ATOM     22  O   UNL     1       7.771   5.374  14.607  0.00  0.00    +0.000 OA
BRANCH  21  23
ATOM     23  O   UNL     1       7.623   4.988  16.865  0.00  0.00    +0.000 OA
BRANCH  23  24
ATOM     24  C   UNL     1       7.675   6.278  17.492  0.00  0.00    +0.000 C 
ATOM     25  C   UNL     1       7.858   6.057  18.982  0.00  0.00    +0.000 C 
ENDBRANCH  23  24
ENDBRANCH  21  23
ENDBRANCH  20  21
ENDBRANCH  19  20
ENDBRANCH  11  19
TORSDOF 10
ENDMDL
MODEL 8
REMARK VINA RESULT:      -7.1      4.165      7.039
REMARK  Name = 
REMARK  12 active torsions:
REMARK  status: ('A' for Active; 'I' for Inactive)
REMARK    1  A    between atoms: C_1  and  C_2
REMARK    2  A    between atoms: C_2  and  O_3
REMARK    3  A    between atoms: O_3  and  C_4
REMARK    4  A    between atoms: C_4  and  C_6
REMARK    5  A    between atoms: C_6  and  O_7
REMARK    6  A    between atoms: O_7  and  C_8
REMARK    7  A    between atoms: C_18  and  O_19
REMARK    8  A    between atoms: O_19  and  C_20
REMARK    9  A    between atoms: C_20  and  C_21
REMARK   10  A    between atoms: C_21  and  O_23
REMARK   11  A    between atoms: O_23  and  C_24
REMARK   12  A    between atoms: C_24  and  C_25
REMARK                            x       y       z     vdW  Elec       q    Type
REMARK                         _______ _______ _______ _____ _____    ______ ____
ROOT
ATOM      1  C   UNL     1       2.880   6.867  18.548  0.00  0.00    +0.000 A 
ATOM      2  C   UNL     1       3.874   7.087  17.585  0.00  0.00    +0.000 A 
ATOM      3  C   UNL     1       5.036   6.322  17.594  0.00  0.00    +0.000 A 
ATOM      4  C   UNL     1       6.049   6.467  16.564  0.00  0.00    +0.000 A 
ATOM      5  C   UNL     1       7.137   5.700  16.607  0.00  0.00    +0.000 A 
ATOM      6  C   UNL     1       7.365   4.706  17.671  0.00  0.00    +0.000 A 
ATOM      7  O   UNL     1       8.387   4.031  17.691  0.00  0.00    +0.000 OA
ATOM      8  O   UNL     1       6.378   4.582  18.637  0.00  0.00    +0.000 OA
ATOM      9  C   UNL     1       5.214   5.378  18.600  0.00  0.00    +0.000 A 
ATOM     10  C   UNL     1       4.260   5.173  19.594  0.00  0.00    +0.000 A 
ATOM     11  C   UNL     1       3.081   5.921  19.573  0.00  0.00    +0.000 A 
ENDROOT
BRANCH   1  12
ATOM     12  O   UNL     1       1.695   7.564  18.552  0.00  0.00    +0.000 OA
BRANCH  12  13
ATOM     13  C   UNL     1       1.818   8.961  18.804  0.00  0.00    +0.000 C 
BRANCH  13  14
ATOM     14  C   UNL     1       0.622   9.509  19.556  0.00  0.00    +0.000 C 
ATOM     15  O   UNL     1      -0.301  10.157  19.081  0.00  0.00    +0.000 OA
BRANCH  14  16
ATOM     16  O   UNL     1       0.790   9.243  20.888  0.00  0.00    +0.000 OA
BRANCH  16  18
ATOM     17  C   UNL     1       0.098   9.450  23.160  0.00  0.00    +0.000 C 
ATOM     18  C   UNL     1      -0.339   9.567  21.710  0.00  0.00    +0.000 C 
ENDBRANCH  16  18
ENDBRANCH  14  16
ENDBRANCH  13  14
ENDBRANCH  12  13
ENDBRANCH   1  12
BRANCH  11  19
ATOM     19  O   UNL     1       2.047   5.738  20.455  0.00  0.00    +0.000 OA
BRANCH  19  20
ATOM     20  C   UNL     1       1.185   4.629  20.222  0.00  0.00    +0.000 C 
BRANCH  20  21
ATOM     21  C   UNL     1       1.699   3.407  20.967  0.00  0.00    +0.000 C 
ATOM     22  O   UNL     1       2.145   3.388  22.105  0.00  0.00    +0.000 OA
BRANCH  21  23
ATOM     23  O   UNL     1       1.642   2.320  20.136  0.00  0.00    +0.000 OA
BRANCH  23  24
ATOM     24  C   UNL     1       1.370   2.632  18.762  0.00  0.00    +0.000 C 
ATOM     25  C   UNL     1       2.557   2.163  17.941  0.00  0.00    +0.000 C 
ENDBRANCH  23  24
ENDBRANCH  21  23
ENDBRANCH  20  21
ENDBRANCH  19  20
ENDBRANCH  11  19
TORSDOF 10
ENDMDL
MODEL 9
REMARK VINA RESULT:      -7.1      3.434      6.123
REMARK  Name = 
REMARK  12 active torsions:
REMARK  status: ('A' for Active; 'I' for Inactive)
REMARK    1  A    between atoms: C_1  and  C_2
REMARK    2  A    between atoms: C_2  and  O_3
REMARK    3  A    between atoms: O_3  and  C_4
REMARK    4  A    between atoms: C_4  and  C_6
REMARK    5  A    between atoms: C_6  and  O_7
REMARK    6  A    between atoms: O_7  and  C_8
REMARK    7  A    between atoms: C_18  and  O_19
REMARK    8  A    between atoms: O_19  and  C_20
REMARK    9  A    between atoms: C_20  and  C_21
REMARK   10  A    between atoms: C_21  and  O_23
REMARK   11  A    between atoms: O_23  and  C_24
REMARK   12  A    between atoms: C_24  and  C_25
REMARK                            x       y       z     vdW  Elec       q    Type
REMARK                         _______ _______ _______ _____ _____    ______ ____
ROOT
ATOM      1  C   UNL     1       3.835   5.316  18.748  0.00  0.00    +0.000 A 
ATOM      2  C   UNL     1       3.127   5.964  19.770  0.00  0.00    +0.000 A 
ATOM      3  C   UNL     1       2.485   7.171  19.517  0.00  0.00    +0.000 A 
ATOM      4  C   UNL     1       1.675   7.828  20.527  0.00  0.00    +0.000 A 
ATOM      5  C   UNL     1       1.067   8.976  20.232  0.00  0.00    +0.000 A 
ATOM      6  C   UNL     1       1.189   9.621  18.911  0.00  0.00    +0.000 A 
ATOM      7  O   UNL     1       0.632  10.687  18.680  0.00  0.00    +0.000 OA
ATOM      8  O   UNL     1       1.962   8.968  17.963  0.00  0.00    +0.000 OA
ATOM      9  C   UNL     1       2.603   7.746  18.256  0.00  0.00    +0.000 A 
ATOM     10  C   UNL     1       3.339   7.144  17.237  0.00  0.00    +0.000 A 
ATOM     11  C   UNL     1       3.963   5.919  17.481  0.00  0.00    +0.000 A 
ENDROOT
BRANCH   1  12
ATOM     12  O   UNL     1       4.446   4.099  18.936  0.00  0.00    +0.000 OA
BRANCH  12  13
ATOM     13  C   UNL     1       3.729   3.186  19.762  0.00  0.00    +0.000 C 
BRANCH  13  14
ATOM     14  C   UNL     1       3.103   2.065  18.957  0.00  0.00    +0.000 C 
ATOM     15  O   UNL     1       3.569   1.542  17.954  0.00  0.00    +0.000 OA
BRANCH  14  16
ATOM     16  O   UNL     1       1.870   1.791  19.483  0.00  0.00    +0.000 OA
BRANCH  16  18
ATOM     17  C   UNL     1       1.249   2.637  21.626  0.00  0.00    +0.000 C 
ATOM     18  C   UNL     1       1.235   2.903  20.130  0.00  0.00    +0.000 C 
ENDBRANCH  16  18
ENDBRANCH  14  16
ENDBRANCH  13  14
ENDBRANCH  12  13
ENDBRANCH   1  12
BRANCH  11  19
ATOM     19  O   UNL     1       4.640   5.206  16.525  0.00  0.00    +0.000 OA
BRANCH  19  20
ATOM     20  C   UNL     1       5.664   5.889  15.809  0.00  0.00    +0.000 C 
BRANCH  20  21
ATOM     21  C   UNL     1       7.020   5.585  16.426  0.00  0.00    +0.000 C 
ATOM     22  O   UNL     1       7.418   4.489  16.796  0.00  0.00    +0.000 OA
BRANCH  21  23
ATOM     23  O   UNL     1       7.721   6.753  16.563  0.00  0.00    +0.000 OA
BRANCH  23  24
ATOM     24  C   UNL     1       7.645   7.346  17.868  0.00  0.00    +0.000 C 
ATOM     25  C   UNL     1       7.900   8.834  17.711  0.00  0.00    +0.000 C 
ENDBRANCH  23  24
ENDBRANCH  21  23
ENDBRANCH  20  21
ENDBRANCH  19  20
ENDBRANCH  11  19
TORSDOF 10
ENDMDL
