MODEL 1
REMARK VINA RESULT:      -7.7      0.000      0.000
REMARK  Name = 
REMARK  14 active torsions:
REMARK  status: ('A' for Active; 'I' for Inactive)
REMARK    1  A    between atoms: C_1  and  C_2
REMARK    2  A    between atoms: C_2  and  C_12
REMARK    3  A    between atoms: C_3  and  C_4
REMARK    4  A    between atoms: C_5  and  C_6
REMARK    5  A    between atoms: C_6  and  C_7
REMARK    6  A    between atoms: C_8  and  C_9
REMARK    7  A    between atoms: C_9  and  O_11
REMARK    8  A    between atoms: C_14  and  C_15
REMARK    9  A    between atoms: C_23  and  C_24
REMARK   10  A    between atoms: C_24  and  C_25
REMARK   11  A    between atoms: C_24  and  C_26
REMARK   12  A    between atoms: C_27  and  O_28
REMARK   13  A    between atoms: O_28  and  C_29
REMARK   14  A    between atoms: C_29  and  C_30
REMARK                            x       y       z     vdW  Elec       q    Type
REMARK                         _______ _______ _______ _____ _____    ______ ____
ROOT
ATOM      1  C   UNL     1       5.224   5.002  18.661  0.00  0.00    +0.000 A 
ATOM      2  C   UNL     1       4.503   6.193  18.472  0.00  0.00    +0.000 A 
ATOM      3  C   UNL     1       3.123   6.283  18.676  0.00  0.00    +0.000 A 
ATOM      4  C   UNL     1       2.434   5.082  18.902  0.00  0.00    +0.000 A 
ATOM      5  C   UNL     1       3.090   3.832  19.002  0.00  0.00    +0.000 A 
ATOM      6  C   UNL     1       4.510   3.813  18.972  0.00  0.00    +0.000 A 
ENDROOT
BRANCH   3   7
ATOM      7  C   UNL     1       2.456   7.606  18.762  0.00  0.00    +0.000 A 
ATOM      8  C   UNL     1       2.393   8.497  17.675  0.00  0.00    +0.000 A 
ATOM      9  C   UNL     1       1.698   9.709  17.773  0.00  0.00    +0.000 A 
ATOM     10  C   UNL     1       1.066  10.048  18.961  0.00  0.00    +0.000 A 
ATOM     11  F   UNL     1       0.396  11.205  19.052  0.00  0.00    +0.000 F 
ATOM     12  C   UNL     1       1.106   9.198  20.052  0.00  0.00    +0.000 A 
ATOM     13  C   UNL     1       1.788   7.984  19.948  0.00  0.00    +0.000 A 
ENDBRANCH   3   7
BRANCH   1  15
ATOM     14  C   UNL     1       7.380   5.550  19.901  0.00  0.00    +0.000 C 
ATOM     15  C   UNL     1       6.701   5.186  18.610  0.00  0.00    +0.000 C 
ATOM     16  C   UNL     1       7.421   4.976  17.485  0.00  0.00    +0.000 C 
BRANCH  16  17
ATOM     17  C   UNL     1       6.897   4.504  16.220  0.00  0.00    +0.000 C 
ATOM     18  C   UNL     1       7.268   4.989  15.024  0.00  0.00    +0.000 C 
BRANCH  18  19
ATOM     19  C   UNL     1       6.829   4.499  13.714  0.00  0.00    +0.000 C 
ATOM     20  C   UNL     1       7.512   5.002  12.462  0.00  0.00    +0.000 C 
ATOM     21  C   UNL     1       5.785   3.643  13.649  0.00  0.00    +0.000 C 
BRANCH  21  22
ATOM     22  C   UNL     1       5.185   3.165  12.379  0.00  0.00    +0.000 C 
ATOM     23  O   UNL     1       4.208   3.629  11.835  0.00  0.00    +0.000 OA
BRANCH  22  24
ATOM     24  O   UNL     1       5.850   2.098  11.882  0.00  0.00    +0.000 OA
ATOM     25  H   UNL     1       5.776   1.275  12.402  0.00  0.00    +0.000 HD
ENDBRANCH  22  24
ENDBRANCH  21  22
ENDBRANCH  18  19
ENDBRANCH  16  17
ENDBRANCH   1  15
BRANCH   5  26
ATOM     26  C   UNL     1       2.251   2.573  19.243  0.00  0.00    +0.000 C 
ATOM     27  C   UNL     1       1.650   2.583  20.651  0.00  0.00    +0.000 C 
ATOM     28  C   UNL     1       1.116   2.353  18.219  0.00  0.00    +0.000 C 
ENDBRANCH   5  26
BRANCH   6  29
ATOM     29  O   UNL     1       5.115   2.596  19.257  0.00  0.00    +0.000 OA
BRANCH  29  30
ATOM     30  C   UNL     1       5.206   2.334  20.670  0.00  0.00    +0.000 C 
BRANCH  30  31
ATOM     31  C   UNL     1       5.161   0.876  21.061  0.00  0.00    +0.000 C 
ATOM     32  F   UNL     1       5.569   0.134  19.987  0.00  0.00    +0.000 F 
ATOM     33  F   UNL     1       6.048   0.618  22.052  0.00  0.00    +0.000 F 
ENDBRANCH  30  31
ENDBRANCH  29  30
ENDBRANCH   6  29
TORSDOF 10
ENDMDL
MODEL 2
REMARK VINA RESULT:      -7.4      1.077      1.271
REMARK  Name = 
REMARK  14 active torsions:
REMARK  status: ('A' for Active; 'I' for Inactive)
REMARK    1  A    between atoms: C_1  and  C_2
REMARK    2  A    between atoms: C_2  and  C_12
REMARK    3  A    between atoms: C_3  and  C_4
REMARK    4  A    between atoms: C_5  and  C_6
REMARK    5  A    between atoms: C_6  and  C_7
REMARK    6  A    between atoms: C_8  and  C_9
REMARK    7  A    between atoms: C_9  and  O_11
REMARK    8  A    between atoms: C_14  and  C_15
REMARK    9  A    between atoms: C_23  and  C_24
REMARK   10  A    between atoms: C_24  and  C_25
REMARK   11  A    between atoms: C_24  and  C_26
REMARK   12  A    between atoms: C_27  and  O_28
REMARK   13  A    between atoms: O_28  and  C_29
REMARK   14  A    between atoms: C_29  and  C_30
REMARK                            x       y       z     vdW  Elec       q    Type
REMARK                         _______ _______ _______ _____ _____    ______ ____
ROOT
ATOM      1  C   UNL     1       4.739   5.627  18.068  0.00  0.00    +0.000 A 
ATOM      2  C   UNL     1       4.107   6.882  18.084  0.00  0.00    +0.000 A 
ATOM      3  C   UNL     1       2.728   7.032  18.259  0.00  0.00    +0.000 A 
ATOM      4  C   UNL     1       1.953   5.864  18.233  0.00  0.00    +0.000 A 
ATOM      5  C   UNL     1       2.520   4.572  18.116  0.00  0.00    +0.000 A 
ATOM      6  C   UNL     1       3.936   4.456  18.127  0.00  0.00    +0.000 A 
ENDROOT
BRANCH   3   7
ATOM      7  C   UNL     1       2.146   8.361  18.572  0.00  0.00    +0.000 A 
ATOM      8  C   UNL     1       2.203   9.444  17.676  0.00  0.00    +0.000 A 
ATOM      9  C   UNL     1       1.585  10.665  17.978  0.00  0.00    +0.000 A 
ATOM     10  C   UNL     1       0.912  10.818  19.181  0.00  0.00    +0.000 A 
ATOM     11  F   UNL     1       0.316  11.985  19.468  0.00  0.00    +0.000 F 
ATOM     12  C   UNL     1       0.835   9.776  20.088  0.00  0.00    +0.000 A 
ATOM     13  C   UNL     1       1.440   8.556  19.780  0.00  0.00    +0.000 A 
ENDBRANCH   3   7
BRANCH   1  15
ATOM     14  C   UNL     1       6.865   5.869  19.450  0.00  0.00    +0.000 C 
ATOM     15  C   UNL     1       6.226   5.709  18.098  0.00  0.00    +0.000 C 
ATOM     16  C   UNL     1       6.984   5.582  16.986  0.00  0.00    +0.000 C 
BRANCH  16  17
ATOM     17  C   UNL     1       6.491   5.301  15.653  0.00  0.00    +0.000 C 
ATOM     18  C   UNL     1       7.194   4.651  14.712  0.00  0.00    +0.000 C 
BRANCH  18  19
ATOM     19  C   UNL     1       6.718   4.274  13.378  0.00  0.00    +0.000 C 
ATOM     20  C   UNL     1       7.331   4.921  12.157  0.00  0.00    +0.000 C 
ATOM     21  C   UNL     1       5.703   3.388  13.269  0.00  0.00    +0.000 C 
BRANCH  21  22
ATOM     22  C   UNL     1       5.068   3.013  11.982  0.00  0.00    +0.000 C 
ATOM     23  O   UNL     1       4.171   3.612  11.429  0.00  0.00    +0.000 OA
BRANCH  22  24
ATOM     24  O   UNL     1       5.593   1.874  11.477  0.00  0.00    +0.000 OA
ATOM     25  H   UNL     1       5.930   1.933  10.563  0.00  0.00    +0.000 HD
ENDBRANCH  22  24
ENDBRANCH  21  22
ENDBRANCH  18  19
ENDBRANCH  16  17
ENDBRANCH   1  15
BRANCH   5  26
ATOM     26  C   UNL     1       1.590   3.355  18.089  0.00  0.00    +0.000 C 
ATOM     27  C   UNL     1       2.322   2.127  17.541  0.00  0.00    +0.000 C 
ATOM     28  C   UNL     1       0.965   2.995  19.454  0.00  0.00    +0.000 C 
ENDBRANCH   5  26
BRANCH   6  29
ATOM     29  O   UNL     1       4.446   3.166  18.196  0.00  0.00    +0.000 OA
BRANCH  29  30
ATOM     30  C   UNL     1       5.100   2.891  19.449  0.00  0.00    +0.000 C 
BRANCH  30  31
ATOM     31  C   UNL     1       4.363   1.946  20.369  0.00  0.00    +0.000 C 
ATOM     32  F   UNL     1       5.277   1.372  21.209  0.00  0.00    +0.000 F 
ATOM     33  F   UNL     1       3.501   2.625  21.162  0.00  0.00    +0.000 F 
ENDBRANCH  30  31
ENDBRANCH  29  30
ENDBRANCH   6  29
TORSDOF 10
ENDMDL
MODEL 3
REMARK VINA RESULT:      -7.3      0.735      1.196
REMARK  Name = 
REMARK  14 active torsions:
REMARK  status: ('A' for Active; 'I' for Inactive)
REMARK    1  A    between atoms: C_1  and  C_2
REMARK    2  A    between atoms: C_2  and  C_12
REMARK    3  A    between atoms: C_3  and  C_4
REMARK    4  A    between atoms: C_5  and  C_6
REMARK    5  A    between atoms: C_6  and  C_7
REMARK    6  A    between atoms: C_8  and  C_9
REMARK    7  A    between atoms: C_9  and  O_11
REMARK    8  A    between atoms: C_14  and  C_15
REMARK    9  A    between atoms: C_23  and  C_24
REMARK   10  A    between atoms: C_24  and  C_25
REMARK   11  A    between atoms: C_24  and  C_26
REMARK   12  A    between atoms: C_27  and  O_28
REMARK   13  A    between atoms: O_28  and  C_29
REMARK   14  A    between atoms: C_29  and  C_30
REMARK                            x       y       z     vdW  Elec       q    Type
REMARK                         _______ _______ _______ _____ _____    ______ ____
ROOT
ATOM      1  C   UNL     1       5.044   5.202  18.348  0.00  0.00    +0.000 A 
ATOM      2  C   UNL     1       4.331   6.409  18.258  0.00  0.00    +0.000 A 
ATOM      3  C   UNL     1       2.951   6.490  18.471  0.00  0.00    +0.000 A 
ATOM      4  C   UNL     1       2.256   5.278  18.598  0.00  0.00    +0.000 A 
ATOM      5  C   UNL     1       2.904   4.021  18.594  0.00  0.00    +0.000 A 
ATOM      6  C   UNL     1       4.324   3.996  18.560  0.00  0.00    +0.000 A 
ENDROOT
BRANCH   3   7
ATOM      7  C   UNL     1       2.292   7.805  18.667  0.00  0.00    +0.000 A 
ATOM      8  C   UNL     1       1.634   8.154  19.860  0.00  0.00    +0.000 A 
ATOM      9  C   UNL     1       1.080   9.429  20.034  0.00  0.00    +0.000 A 
ATOM     10  C   UNL     1       1.171  10.365  19.014  0.00  0.00    +0.000 A 
ATOM     11  F   UNL     1       0.645  11.587  19.183  0.00  0.00    +0.000 F 
ATOM     12  C   UNL     1       1.809  10.059  17.826  0.00  0.00    +0.000 A 
ATOM     13  C   UNL     1       2.372   8.792  17.659  0.00  0.00    +0.000 A 
ENDBRANCH   3   7
BRANCH   1  15
ATOM     14  C   UNL     1       7.185   5.792  19.594  0.00  0.00    +0.000 C 
ATOM     15  C   UNL     1       6.523   5.380  18.309  0.00  0.00    +0.000 C 
ATOM     16  C   UNL     1       7.257   5.126  17.203  0.00  0.00    +0.000 C 
BRANCH  16  17
ATOM     17  C   UNL     1       6.749   4.608  15.949  0.00  0.00    +0.000 C 
ATOM     18  C   UNL     1       7.184   5.000  14.742  0.00  0.00    +0.000 C 
BRANCH  18  19
ATOM     19  C   UNL     1       6.762   4.456  13.448  0.00  0.00    +0.000 C 
ATOM     20  C   UNL     1       7.462   4.905  12.185  0.00  0.00    +0.000 C 
ATOM     21  C   UNL     1       5.718   3.599  13.405  0.00  0.00    +0.000 C 
BRANCH  21  22
ATOM     22  C   UNL     1       5.133   3.069  12.149  0.00  0.00    +0.000 C 
ATOM     23  O   UNL     1       4.179   3.526  11.559  0.00  0.00    +0.000 OA
BRANCH  22  24
ATOM     24  O   UNL     1       5.783   1.962  11.722  0.00  0.00    +0.000 OA
ATOM     25  H   UNL     1       5.377   1.111  11.976  0.00  0.00    +0.000 HD
ENDBRANCH  22  24
ENDBRANCH  21  22
ENDBRANCH  18  19
ENDBRANCH  16  17
ENDBRANCH   1  15
BRANCH   5  26
ATOM     26  C   UNL     1       2.057   2.751  18.731  0.00  0.00    +0.000 C 
ATOM     27  C   UNL     1       0.628   3.097  19.157  0.00  0.00    +0.000 C 
ATOM     28  C   UNL     1       2.001   1.878  17.459  0.00  0.00    +0.000 C 
ENDBRANCH   5  26
BRANCH   6  29
ATOM     29  O   UNL     1       4.921   2.756  18.743  0.00  0.00    +0.000 OA
BRANCH  29  30
ATOM     30  C   UNL     1       5.364   2.543  20.096  0.00  0.00    +0.000 C 
BRANCH  30  31
ATOM     31  C   UNL     1       4.568   1.530  20.885  0.00  0.00    +0.000 C 
ATOM     32  F   UNL     1       5.394   0.978  21.825  0.00  0.00    +0.000 F 
ATOM     33  F   UNL     1       3.571   2.136  21.574  0.00  0.00    +0.000 F 
ENDBRANCH  30  31
ENDBRANCH  29  30
ENDBRANCH   6  29
TORSDOF 10
ENDMDL
MODEL 4
REMARK VINA RESULT:      -6.9      1.172      1.643
REMARK  Name = 
REMARK  14 active torsions:
REMARK  status: ('A' for Active; 'I' for Inactive)
REMARK    1  A    between atoms: C_1  and  C_2
REMARK    2  A    between atoms: C_2  and  C_12
REMARK    3  A    between atoms: C_3  and  C_4
REMARK    4  A    between atoms: C_5  and  C_6
REMARK    5  A    between atoms: C_6  and  C_7
REMARK    6  A    between atoms: C_8  and  C_9
REMARK    7  A    between atoms: C_9  and  O_11
REMARK    8  A    between atoms: C_14  and  C_15
REMARK    9  A    between atoms: C_23  and  C_24
REMARK   10  A    between atoms: C_24  and  C_25
REMARK   11  A    between atoms: C_24  and  C_26
REMARK   12  A    between atoms: C_27  and  O_28
REMARK   13  A    between atoms: O_28  and  C_29
REMARK   14  A    between atoms: C_29  and  C_30
REMARK                            x       y       z     vdW  Elec       q    Type
REMARK                         _______ _______ _______ _____ _____    ______ ____
ROOT
ATOM      1  C   UNL     1       4.691   5.456  18.047  0.00  0.00    +0.000 A 
ATOM      2  C   UNL     1       4.093   6.727  18.059  0.00  0.00    +0.000 A 
ATOM      3  C   UNL     1       2.714   6.913  18.197  0.00  0.00    +0.000 A 
ATOM      4  C   UNL     1       1.909   5.765  18.138  0.00  0.00    +0.000 A 
ATOM      5  C   UNL     1       2.444   4.461  18.023  0.00  0.00    +0.000 A 
ATOM      6  C   UNL     1       3.856   4.307  18.071  0.00  0.00    +0.000 A 
ENDROOT
BRANCH   3   7
ATOM      7  C   UNL     1       2.159   8.254  18.508  0.00  0.00    +0.000 A 
ATOM      8  C   UNL     1       1.451   8.525  19.693  0.00  0.00    +0.000 A 
ATOM      9  C   UNL     1       0.999   9.819  19.984  0.00  0.00    +0.000 A 
ATOM     10  C   UNL     1       1.241  10.852  19.090  0.00  0.00    +0.000 A 
ATOM     11  F   UNL     1       0.813  12.091  19.371  0.00  0.00    +0.000 F 
ATOM     12  C   UNL     1       1.933  10.623  17.914  0.00  0.00    +0.000 A 
ATOM     13  C   UNL     1       2.395   9.336  17.632  0.00  0.00    +0.000 A 
ENDBRANCH   3   7
BRANCH   1  15
ATOM     14  C   UNL     1       6.779   5.903  19.435  0.00  0.00    +0.000 C 
ATOM     15  C   UNL     1       6.179   5.498  18.118  0.00  0.00    +0.000 C 
ATOM     16  C   UNL     1       6.967   5.131  17.083  0.00  0.00    +0.000 C 
BRANCH  16  17
ATOM     17  C   UNL     1       6.507   4.608  15.812  0.00  0.00    +0.000 C 
ATOM     18  C   UNL     1       7.053   4.923  14.627  0.00  0.00    +0.000 C 
BRANCH  18  19
ATOM     19  C   UNL     1       6.679   4.366  13.324  0.00  0.00    +0.000 C 
ATOM     20  C   UNL     1       7.448   4.778  12.088  0.00  0.00    +0.000 C 
ATOM     21  C   UNL     1       5.619   3.532  13.246  0.00  0.00    +0.000 C 
BRANCH  21  22
ATOM     22  C   UNL     1       5.083   2.993  11.971  0.00  0.00    +0.000 C 
ATOM     23  O   UNL     1       4.171   3.464  11.327  0.00  0.00    +0.000 OA
BRANCH  22  24
ATOM     24  O   UNL     1       5.722   1.862  11.597  0.00  0.00    +0.000 OA
ATOM     25  H   UNL     1       6.254   1.428  12.292  0.00  0.00    +0.000 HD
ENDBRANCH  22  24
ENDBRANCH  21  22
ENDBRANCH  18  19
ENDBRANCH  16  17
ENDBRANCH   1  15
BRANCH   5  26
ATOM     26  C   UNL     1       1.484   3.269  17.958  0.00  0.00    +0.000 C 
ATOM     27  C   UNL     1       2.195   2.030  17.406  0.00  0.00    +0.000 C 
ATOM     28  C   UNL     1       0.821   2.906  19.304  0.00  0.00    +0.000 C 
ENDBRANCH   5  26
BRANCH   6  29
ATOM     29  O   UNL     1       4.330   3.003  18.140  0.00  0.00    +0.000 OA
BRANCH  29  30
ATOM     30  C   UNL     1       5.051   2.735  19.358  0.00  0.00    +0.000 C 
BRANCH  30  31
ATOM     31  C   UNL     1       4.225   2.161  20.485  0.00  0.00    +0.000 C 
ATOM     32  F   UNL     1       3.439   3.161  20.987  0.00  0.00    +0.000 F 
ATOM     33  F   UNL     1       3.375   1.213  20.023  0.00  0.00    +0.000 F 
ENDBRANCH  30  31
ENDBRANCH  29  30
ENDBRANCH   6  29
TORSDOF 10
ENDMDL
MODEL 5
REMARK VINA RESULT:      -6.7      6.449     11.179
REMARK  Name = 
REMARK  14 active torsions:
REMARK  status: ('A' for Active; 'I' for Inactive)
REMARK    1  A    between atoms: C_1  and  C_2
REMARK    2  A    between atoms: C_2  and  C_12
REMARK    3  A    between atoms: C_3  and  C_4
REMARK    4  A    between atoms: C_5  and  C_6
REMARK    5  A    between atoms: C_6  and  C_7
REMARK    6  A    between atoms: C_8  and  C_9
REMARK    7  A    between atoms: C_9  and  O_11
REMARK    8  A    between atoms: C_14  and  C_15
REMARK    9  A    between atoms: C_23  and  C_24
REMARK   10  A    between atoms: C_24  and  C_25
REMARK   11  A    between atoms: C_24  and  C_26
REMARK   12  A    between atoms: C_27  and  O_28
REMARK   13  A    between atoms: O_28  and  C_29
REMARK   14  A    between atoms: C_29  and  C_30
REMARK                            x       y       z     vdW  Elec       q    Type
REMARK                         _______ _______ _______ _____ _____    ______ ____
ROOT
ATOM      1  C   UNL     1      -1.180  11.823  20.789  0.00  0.00    +0.000 A 
ATOM      2  C   UNL     1      -0.296  10.744  20.619  0.00  0.00    +0.000 A 
ATOM      3  C   UNL     1      -0.227  10.003  19.435  0.00  0.00    +0.000 A 
ATOM      4  C   UNL     1      -1.211  10.257  18.468  0.00  0.00    +0.000 A 
ATOM      5  C   UNL     1      -2.194  11.262  18.623  0.00  0.00    +0.000 A 
ATOM      6  C   UNL     1      -2.113  12.112  19.759  0.00  0.00    +0.000 A 
ENDROOT
BRANCH   3   7
ATOM      7  C   UNL     1       0.910   9.083  19.185  0.00  0.00    +0.000 A 
ATOM      8  C   UNL     1       1.337   8.130  20.127  0.00  0.00    +0.000 A 
ATOM      9  C   UNL     1       2.372   7.233  19.831  0.00  0.00    +0.000 A 
ATOM     10  C   UNL     1       2.997   7.285  18.593  0.00  0.00    +0.000 A 
ATOM     11  F   UNL     1       3.983   6.424  18.308  0.00  0.00    +0.000 F 
ATOM     12  C   UNL     1       2.606   8.210  17.641  0.00  0.00    +0.000 A 
ATOM     13  C   UNL     1       1.565   9.094  17.933  0.00  0.00    +0.000 A 
ENDBRANCH   3   7
BRANCH   1  15
ATOM     14  C   UNL     1      -1.767  12.253  23.230  0.00  0.00    +0.000 C 
ATOM     15  C   UNL     1      -0.930  12.606  22.032  0.00  0.00    +0.000 C 
ATOM     16  C   UNL     1       0.040  13.543  22.119  0.00  0.00    +0.000 C 
BRANCH  16  17
ATOM     17  C   UNL     1       0.987  13.881  21.075  0.00  0.00    +0.000 C 
ATOM     18  C   UNL     1       0.719  14.714  20.057  0.00  0.00    +0.000 C 
BRANCH  18  19
ATOM     19  C   UNL     1       1.659  15.149  19.020  0.00  0.00    +0.000 C 
ATOM     20  C   UNL     1       2.387  14.115  18.191  0.00  0.00    +0.000 C 
ATOM     21  C   UNL     1       1.895  16.470  18.860  0.00  0.00    +0.000 C 
BRANCH  21  22
ATOM     22  C   UNL     1       2.902  17.023  17.921  0.00  0.00    +0.000 C 
ATOM     23  O   UNL     1       2.693  17.379  16.782  0.00  0.00    +0.000 OA
BRANCH  22  24
ATOM     24  O   UNL     1       4.134  17.067  18.477  0.00  0.00    +0.000 OA
ATOM     25  H   UNL     1       4.878  17.121  17.847  0.00  0.00    +0.000 HD
ENDBRANCH  22  24
ENDBRANCH  21  22
ENDBRANCH  18  19
ENDBRANCH  16  17
ENDBRANCH   1  15
BRANCH   5  26
ATOM     26  C   UNL     1      -3.233  11.459  17.514  0.00  0.00    +0.000 C 
ATOM     27  C   UNL     1      -2.666  11.029  16.158  0.00  0.00    +0.000 C 
ATOM     28  C   UNL     1      -4.570  10.724  17.752  0.00  0.00    +0.000 C 
ENDBRANCH   5  26
BRANCH   6  29
ATOM     29  O   UNL     1      -2.982  13.196  19.777  0.00  0.00    +0.000 OA
BRANCH  29  30
ATOM     30  C   UNL     1      -4.163  12.952  20.563  0.00  0.00    +0.000 C 
BRANCH  30  31
ATOM     31  C   UNL     1      -4.522  14.040  21.547  0.00  0.00    +0.000 C 
ATOM     32  F   UNL     1      -4.859  13.448  22.732  0.00  0.00    +0.000 F 
ATOM     33  F   UNL     1      -3.447  14.820  21.812  0.00  0.00    +0.000 F 
ENDBRANCH  30  31
ENDBRANCH  29  30
ENDBRANCH   6  29
TORSDOF 10
ENDMDL
MODEL 6
REMARK VINA RESULT:      -6.7      6.188     12.082
REMARK  Name = 
REMARK  14 active torsions:
REMARK  status: ('A' for Active; 'I' for Inactive)
REMARK    1  A    between atoms: C_1  and  C_2
REMARK    2  A    between atoms: C_2  and  C_12
REMARK    3  A    between atoms: C_3  and  C_4
REMARK    4  A    between atoms: C_5  and  C_6
REMARK    5  A    between atoms: C_6  and  C_7
REMARK    6  A    between atoms: C_8  and  C_9
REMARK    7  A    between atoms: C_9  and  O_11
REMARK    8  A    between atoms: C_14  and  C_15
REMARK    9  A    between atoms: C_23  and  C_24
REMARK   10  A    between atoms: C_24  and  C_25
REMARK   11  A    between atoms: C_24  and  C_26
REMARK   12  A    between atoms: C_27  and  O_28
REMARK   13  A    between atoms: O_28  and  C_29
REMARK   14  A    between atoms: C_29  and  C_30
REMARK                            x       y       z     vdW  Elec       q    Type
REMARK                         _______ _______ _______ _____ _____    ______ ____
ROOT
ATOM      1  C   UNL     1       0.501  12.306  20.139  0.00  0.00    +0.000 A 
ATOM      2  C   UNL     1       1.040  11.016  20.275  0.00  0.00    +0.000 A 
ATOM      3  C   UNL     1       0.646   9.943  19.469  0.00  0.00    +0.000 A 
ATOM      4  C   UNL     1      -0.456  10.152  18.627  0.00  0.00    +0.000 A 
ATOM      5  C   UNL     1      -1.110  11.401  18.520  0.00  0.00    +0.000 A 
ATOM      6  C   UNL     1      -0.561  12.510  19.218  0.00  0.00    +0.000 A 
ENDROOT
BRANCH   3   7
ATOM      7  C   UNL     1       1.442   8.691  19.435  0.00  0.00    +0.000 A 
ATOM      8  C   UNL     1       1.461   7.775  20.502  0.00  0.00    +0.000 A 
ATOM      9  C   UNL     1       2.171   6.571  20.409  0.00  0.00    +0.000 A 
ATOM     10  C   UNL     1       2.878   6.274  19.252  0.00  0.00    +0.000 A 
ATOM     11  F   UNL     1       3.553   5.120  19.161  0.00  0.00    +0.000 F 
ATOM     12  C   UNL     1       2.884   7.151  18.182  0.00  0.00    +0.000 A 
ATOM     13  C   UNL     1       2.165   8.345  18.272  0.00  0.00    +0.000 A 
ENDBRANCH   3   7
BRANCH   1  15
ATOM     14  C   UNL     1       2.665  13.573  20.590  0.00  0.00    +0.000 C 
ATOM     15  C   UNL     1       1.221  13.339  20.937  0.00  0.00    +0.000 C 
ATOM     16  C   UNL     1       0.607  14.083  21.883  0.00  0.00    +0.000 C 
BRANCH  16  17
ATOM     17  C   UNL     1      -0.802  14.035  22.218  0.00  0.00    +0.000 C 
ATOM     18  C   UNL     1      -1.278  13.670  23.419  0.00  0.00    +0.000 C 
BRANCH  18  19
ATOM     19  C   UNL     1      -2.683  13.677  23.834  0.00  0.00    +0.000 C 
ATOM     20  C   UNL     1      -3.239  14.876  24.568  0.00  0.00    +0.000 C 
ATOM     21  C   UNL     1      -3.444  12.586  23.595  0.00  0.00    +0.000 C 
BRANCH  21  22
ATOM     22  C   UNL     1      -4.844  12.435  24.063  0.00  0.00    +0.000 C 
ATOM     23  O   UNL     1      -5.840  12.710  23.429  0.00  0.00    +0.000 OA
BRANCH  22  24
ATOM     24  O   UNL     1      -4.901  11.964  25.329  0.00  0.00    +0.000 OA
ATOM     25  H   UNL     1      -4.122  11.457  25.626  0.00  0.00    +0.000 HD
ENDBRANCH  22  24
ENDBRANCH  21  22
ENDBRANCH  18  19
ENDBRANCH  16  17
ENDBRANCH   1  15
BRANCH   5  26
ATOM     26  C   UNL     1      -2.313  11.530  17.578  0.00  0.00    +0.000 C 
ATOM     27  C   UNL     1      -2.308  10.406  16.538  0.00  0.00    +0.000 C 
ATOM     28  C   UNL     1      -3.683  11.547  18.288  0.00  0.00    +0.000 C 
ENDBRANCH   5  26
BRANCH   6  29
ATOM     29  O   UNL     1      -1.122  13.750  18.940  0.00  0.00    +0.000 OA
BRANCH  29  30
ATOM     30  C   UNL     1      -0.191  14.657  18.319  0.00  0.00    +0.000 C 
BRANCH  30  31
ATOM     31  C   UNL     1      -0.281  16.092  18.782  0.00  0.00    +0.000 C 
ATOM     32  F   UNL     1       0.955  16.475  19.224  0.00  0.00    +0.000 F 
ATOM     33  F   UNL     1      -0.578  16.913  17.746  0.00  0.00    +0.000 F 
ENDBRANCH  30  31
ENDBRANCH  29  30
ENDBRANCH   6  29
TORSDOF 10
ENDMDL
MODEL 7
REMARK VINA RESULT:      -6.6      1.442      1.692
REMARK  Name = 
REMARK  14 active torsions:
REMARK  status: ('A' for Active; 'I' for Inactive)
REMARK    1  A    between atoms: C_1  and  C_2
REMARK    2  A    between atoms: C_2  and  C_12
REMARK    3  A    between atoms: C_3  and  C_4
REMARK    4  A    between atoms: C_5  and  C_6
REMARK    5  A    between atoms: C_6  and  C_7
REMARK    6  A    between atoms: C_8  and  C_9
REMARK    7  A    between atoms: C_9  and  O_11
REMARK    8  A    between atoms: C_14  and  C_15
REMARK    9  A    between atoms: C_23  and  C_24
REMARK   10  A    between atoms: C_24  and  C_25
REMARK   11  A    between atoms: C_24  and  C_26
REMARK   12  A    between atoms: C_27  and  O_28
REMARK   13  A    between atoms: O_28  and  C_29
REMARK   14  A    between atoms: C_29  and  C_30
REMARK                            x       y       z     vdW  Elec       q    Type
REMARK                         _______ _______ _______ _____ _____    ______ ____
ROOT
ATOM      1  C   UNL     1       4.945   5.083  18.924  0.00  0.00    +0.000 A 
ATOM      2  C   UNL     1       4.242   6.268  18.650  0.00  0.00    +0.000 A 
ATOM      3  C   UNL     1       2.917   6.471  19.048  0.00  0.00    +0.000 A 
ATOM      4  C   UNL     1       2.236   5.365  19.577  0.00  0.00    +0.000 A 
ATOM      5  C   UNL     1       2.858   4.111  19.784  0.00  0.00    +0.000 A 
ATOM      6  C   UNL     1       4.253   4.004  19.537  0.00  0.00    +0.000 A 
ENDROOT
BRANCH   3   7
ATOM      7  C   UNL     1       2.316   7.828  19.012  0.00  0.00    +0.000 A 
ATOM      8  C   UNL     1       2.457   8.691  17.910  0.00  0.00    +0.000 A 
ATOM      9  C   UNL     1       1.820   9.939  17.884  0.00  0.00    +0.000 A 
ATOM     10  C   UNL     1       1.044  10.340  18.961  0.00  0.00    +0.000 A 
ATOM     11  F   UNL     1       0.432  11.532  18.934  0.00  0.00    +0.000 F 
ATOM     12  C   UNL     1       0.883   9.519  20.063  0.00  0.00    +0.000 A 
ATOM     13  C   UNL     1       1.507   8.271  20.082  0.00  0.00    +0.000 A 
ENDBRANCH   3   7
BRANCH   1  15
ATOM     14  C   UNL     1       7.306   5.574  19.742  0.00  0.00    +0.000 C 
ATOM     15  C   UNL     1       6.399   5.168  18.614  0.00  0.00    +0.000 C 
ATOM     16  C   UNL     1       6.906   4.838  17.405  0.00  0.00    +0.000 C 
BRANCH  16  17
ATOM     17  C   UNL     1       6.150   4.317  16.284  0.00  0.00    +0.000 C 
ATOM     18  C   UNL     1       6.536   4.423  15.002  0.00  0.00    +0.000 C 
BRANCH  18  19
ATOM     19  C   UNL     1       5.852   3.850  13.839  0.00  0.00    +0.000 C 
ATOM     20  C   UNL     1       4.345   3.937  13.742  0.00  0.00    +0.000 C 
ATOM     21  C   UNL     1       6.581   3.210  12.899  0.00  0.00    +0.000 C 
BRANCH  21  22
ATOM     22  C   UNL     1       5.991   2.500  11.737  0.00  0.00    +0.000 C 
ATOM     23  O   UNL     1       4.909   2.725  11.239  0.00  0.00    +0.000 OA
BRANCH  22  24
ATOM     24  O   UNL     1       6.803   1.517  11.285  0.00  0.00    +0.000 OA
ATOM     25  H   UNL     1       7.651   1.420  11.759  0.00  0.00    +0.000 HD
ENDBRANCH  22  24
ENDBRANCH  21  22
ENDBRANCH  18  19
ENDBRANCH  16  17
ENDBRANCH   1  15
BRANCH   5  26
ATOM     26  C   UNL     1       2.028   2.959  20.360  0.00  0.00    +0.000 C 
ATOM     27  C   UNL     1       1.965   3.049  21.888  0.00  0.00    +0.000 C 
ATOM     28  C   UNL     1       0.591   2.865  19.806  0.00  0.00    +0.000 C 
ENDBRANCH   5  26
BRANCH   6  29
ATOM     29  O   UNL     1       4.856   2.815  19.926  0.00  0.00    +0.000 OA
BRANCH  29  30
ATOM     30  C   UNL     1       4.329   1.668  19.233  0.00  0.00    +0.000 C 
BRANCH  30  31
ATOM     31  C   UNL     1       3.965   1.899  17.785  0.00  0.00    +0.000 C 
ATOM     32  F   UNL     1       4.665   1.005  17.023  0.00  0.00    +0.000 F 
ATOM     33  F   UNL     1       2.655   1.628  17.571  0.00  0.00    +0.000 F 
ENDBRANCH  30  31
ENDBRANCH  29  30
ENDBRANCH   6  29
TORSDOF 10
ENDMDL
MODEL 8
REMARK VINA RESULT:      -6.6      6.138     11.100
REMARK  Name = 
REMARK  14 active torsions:
REMARK  status: ('A' for Active; 'I' for Inactive)
REMARK    1  A    between atoms: C_1  and  C_2
REMARK    2  A    between atoms: C_2  and  C_12
REMARK    3  A    between atoms: C_3  and  C_4
REMARK    4  A    between atoms: C_5  and  C_6
REMARK    5  A    between atoms: C_6  and  C_7
REMARK    6  A    between atoms: C_8  and  C_9
REMARK    7  A    between atoms: C_9  and  O_11
REMARK    8  A    between atoms: C_14  and  C_15
REMARK    9  A    between atoms: C_23  and  C_24
REMARK   10  A    between atoms: C_24  and  C_25
REMARK   11  A    between atoms: C_24  and  C_26
REMARK   12  A    between atoms: C_27  and  O_28
REMARK   13  A    between atoms: O_28  and  C_29
REMARK   14  A    between atoms: C_29  and  C_30
REMARK                            x       y       z     vdW  Elec       q    Type
REMARK                         _______ _______ _______ _____ _____    ______ ____
ROOT
ATOM      1  C   UNL     1      -1.233  11.776  20.830  0.00  0.00    +0.000 A 
ATOM      2  C   UNL     1      -0.332  10.715  20.634  0.00  0.00    +0.000 A 
ATOM      3  C   UNL     1      -0.242  10.013  19.428  0.00  0.00    +0.000 A 
ATOM      4  C   UNL     1      -1.222  10.281  18.462  0.00  0.00    +0.000 A 
ATOM      5  C   UNL     1      -2.221  11.266  18.639  0.00  0.00    +0.000 A 
ATOM      6  C   UNL     1      -2.163  12.082  19.801  0.00  0.00    +0.000 A 
ENDROOT
BRANCH   3   7
ATOM      7  C   UNL     1       0.911   9.118  19.160  0.00  0.00    +0.000 A 
ATOM      8  C   UNL     1       1.350   8.149  20.080  0.00  0.00    +0.000 A 
ATOM      9  C   UNL     1       2.400   7.276  19.766  0.00  0.00    +0.000 A 
ATOM     10  C   UNL     1       3.029   7.370  18.532  0.00  0.00    +0.000 A 
ATOM     11  F   UNL     1       4.030   6.531  18.229  0.00  0.00    +0.000 F 
ATOM     12  C   UNL     1       2.626   8.311  17.601  0.00  0.00    +0.000 A 
ATOM     13  C   UNL     1       1.570   9.170  17.911  0.00  0.00    +0.000 A 
ENDBRANCH   3   7
BRANCH   1  15
ATOM     14  C   UNL     1      -1.695  11.995  23.325  0.00  0.00    +0.000 C 
ATOM     15  C   UNL     1      -1.005  12.523  22.098  0.00  0.00    +0.000 C 
ATOM     16  C   UNL     1      -0.172  13.585  22.177  0.00  0.00    +0.000 C 
BRANCH  16  17
ATOM     17  C   UNL     1       0.640  14.106  21.096  0.00  0.00    +0.000 C 
ATOM     18  C   UNL     1       1.933  14.444  21.222  0.00  0.00    +0.000 C 
BRANCH  18  19
ATOM     19  C   UNL     1       2.819  14.902  20.148  0.00  0.00    +0.000 C 
ATOM     20  C   UNL     1       4.315  14.916  20.369  0.00  0.00    +0.000 C 
ATOM     21  C   UNL     1       2.276  15.351  18.995  0.00  0.00    +0.000 C 
BRANCH  21  22
ATOM     22  C   UNL     1       3.063  15.937  17.882  0.00  0.00    +0.000 C 
ATOM     23  O   UNL     1       3.262  17.118  17.696  0.00  0.00    +0.000 OA
BRANCH  22  24
ATOM     24  O   UNL     1       3.535  14.985  17.046  0.00  0.00    +0.000 OA
ATOM     25  H   UNL     1       3.317  14.065  17.289  0.00  0.00    +0.000 HD
ENDBRANCH  22  24
ENDBRANCH  21  22
ENDBRANCH  18  19
ENDBRANCH  16  17
ENDBRANCH   1  15
BRANCH   5  26
ATOM     26  C   UNL     1      -3.255  11.481  17.528  0.00  0.00    +0.000 C 
ATOM     27  C   UNL     1      -2.700  11.024  16.176  0.00  0.00    +0.000 C 
ATOM     28  C   UNL     1      -4.611  10.785  17.771  0.00  0.00    +0.000 C 
ENDBRANCH   5  26
BRANCH   6  29
ATOM     29  O   UNL     1      -3.047  13.152  19.846  0.00  0.00    +0.000 OA
BRANCH  29  30
ATOM     30  C   UNL     1      -4.145  12.931  20.751  0.00  0.00    +0.000 C 
BRANCH  30  31
ATOM     31  C   UNL     1      -5.422  13.664  20.409  0.00  0.00    +0.000 C 
ATOM     32  F   UNL     1      -5.592  13.612  19.053  0.00  0.00    +0.000 F 
ATOM     33  F   UNL     1      -6.494  13.034  20.945  0.00  0.00    +0.000 F 
ENDBRANCH  30  31
ENDBRANCH  29  30
ENDBRANCH   6  29
TORSDOF 10
ENDMDL
MODEL 9
REMARK VINA RESULT:      -6.5      5.926     10.769
REMARK  Name = 
REMARK  14 active torsions:
REMARK  status: ('A' for Active; 'I' for Inactive)
REMARK    1  A    between atoms: C_1  and  C_2
REMARK    2  A    between atoms: C_2  and  C_12
REMARK    3  A    between atoms: C_3  and  C_4
REMARK    4  A    between atoms: C_5  and  C_6
REMARK    5  A    between atoms: C_6  and  C_7
REMARK    6  A    between atoms: C_8  and  C_9
REMARK    7  A    between atoms: C_9  and  O_11
REMARK    8  A    between atoms: C_14  and  C_15
REMARK    9  A    between atoms: C_23  and  C_24
REMARK   10  A    between atoms: C_24  and  C_25
REMARK   11  A    between atoms: C_24  and  C_26
REMARK   12  A    between atoms: C_27  and  O_28
REMARK   13  A    between atoms: O_28  and  C_29
REMARK   14  A    between atoms: C_29  and  C_30
REMARK                            x       y       z     vdW  Elec       q    Type
REMARK                         _______ _______ _______ _____ _____    ______ ____
ROOT
ATOM      1  C   UNL     1      -1.152  11.625  20.794  0.00  0.00    +0.000 A 
ATOM      2  C   UNL     1      -0.258  10.563  20.582  0.00  0.00    +0.000 A 
ATOM      3  C   UNL     1      -0.151   9.897  19.356  0.00  0.00    +0.000 A 
ATOM      4  C   UNL     1      -1.110  10.205  18.380  0.00  0.00    +0.000 A 
ATOM      5  C   UNL     1      -2.103  11.194  18.569  0.00  0.00    +0.000 A 
ATOM      6  C   UNL     1      -2.060  11.973  19.757  0.00  0.00    +0.000 A 
ENDROOT
BRANCH   3   7
ATOM      7  C   UNL     1       0.999   9.000  19.081  0.00  0.00    +0.000 A 
ATOM      8  C   UNL     1       1.446   8.036  20.003  0.00  0.00    +0.000 A 
ATOM      9  C   UNL     1       2.492   7.161  19.683  0.00  0.00    +0.000 A 
ATOM     10  C   UNL     1       3.109   7.247  18.443  0.00  0.00    +0.000 A 
ATOM     11  F   UNL     1       4.107   6.406  18.135  0.00  0.00    +0.000 F 
ATOM     12  C   UNL     1       2.698   8.183  17.511  0.00  0.00    +0.000 A 
ATOM     13  C   UNL     1       1.646   9.045  17.826  0.00  0.00    +0.000 A 
ENDBRANCH   3   7
BRANCH   1  15
ATOM     14  C   UNL     1      -1.532  11.685  23.311  0.00  0.00    +0.000 C 
ATOM     15  C   UNL     1      -0.942  12.331  22.089  0.00  0.00    +0.000 C 
ATOM     16  C   UNL     1      -0.205  13.459  22.191  0.00  0.00    +0.000 C 
BRANCH  16  17
ATOM     17  C   UNL     1       0.513  14.103  21.109  0.00  0.00    +0.000 C 
ATOM     18  C   UNL     1       1.668  13.648  20.597  0.00  0.00    +0.000 C 
BRANCH  18  19
ATOM     19  C   UNL     1       2.394  14.213  19.457  0.00  0.00    +0.000 C 
ATOM     20  C   UNL     1       1.750  14.217  18.089  0.00  0.00    +0.000 C 
ATOM     21  C   UNL     1       3.650  14.677  19.643  0.00  0.00    +0.000 C 
BRANCH  21  22
ATOM     22  C   UNL     1       4.520  15.171  18.547  0.00  0.00    +0.000 C 
ATOM     23  O   UNL     1       4.754  16.332  18.293  0.00  0.00    +0.000 OA
BRANCH  22  24
ATOM     24  O   UNL     1       5.027  14.155  17.813  0.00  0.00    +0.000 OA
ATOM     25  H   UNL     1       5.769  13.669  18.220  0.00  0.00    +0.000 HD
ENDBRANCH  22  24
ENDBRANCH  21  22
ENDBRANCH  18  19
ENDBRANCH  16  17
ENDBRANCH   1  15
BRANCH   5  26
ATOM     26  C   UNL     1      -3.113  11.454  17.447  0.00  0.00    +0.000 C 
ATOM     27  C   UNL     1      -2.557  10.987  16.099  0.00  0.00    +0.000 C 
ATOM     28  C   UNL     1      -4.497  10.805  17.667  0.00  0.00    +0.000 C 
ENDBRANCH   5  26
BRANCH   6  29
ATOM     29  O   UNL     1      -2.935  13.049  19.819  0.00  0.00    +0.000 OA
BRANCH  29  30
ATOM     30  C   UNL     1      -4.107  12.772  20.608  0.00  0.00    +0.000 C 
BRANCH  30  31
ATOM     31  C   UNL     1      -4.381  13.751  21.725  0.00  0.00    +0.000 C 
ATOM     32  F   UNL     1      -4.436  13.052  22.900  0.00  0.00    +0.000 F 
ATOM     33  F   UNL     1      -3.354  14.625  21.859  0.00  0.00    +0.000 F 
ENDBRANCH  30  31
ENDBRANCH  29  30
ENDBRANCH   6  29
TORSDOF 10
ENDMDL
