MODEL 1
REMARK VINA RESULT:      -8.1      0.000      0.000
REMARK  Name = 
REMARK  8 active torsions:
REMARK  status: ('A' for Active; 'I' for Inactive)
REMARK    1  A    between atoms: C_1  and  C_2
REMARK    2  A    between atoms: C_2  and  C_3
REMARK    3  A    between atoms: C_2  and  C_4
REMARK    4  A    between atoms: C_4  and  C_5
REMARK    5  A    between atoms: C_5  and  C_6
REMARK    6  A    between atoms: C_11  and  C_13
REMARK    7  A    between atoms: C_13  and  O_14
REMARK    8  A    between atoms: O_14  and  C_15
REMARK                            x       y       z     vdW  Elec       q    Type
REMARK                         _______ _______ _______ _____ _____    ______ ____
ROOT
ATOM      1  C   UNL     1       3.220   5.050  18.654  0.00  0.00    +0.000 A 
ATOM      2  N   UNL     1       3.757   5.756  19.625  0.00  0.00    +0.000 NA
ATOM      3  N   UNL     1       5.097   5.416  19.651  0.00  0.00    +0.000 NA
ATOM      4  C   UNL     1       5.275   4.561  18.671  0.00  0.00    +0.000 A 
ATOM      5  N   UNL     1       6.400   3.887  18.303  0.00  0.00    +0.000 N 
ATOM      6  C   UNL     1       7.362   4.572  17.608  0.00  0.00    +0.000 C 
ATOM      7  O   UNL     1       8.530   4.174  17.680  0.00  0.00    +0.000 OA
ATOM      8  O   UNL     1       4.128   4.278  17.990  0.00  0.00    +0.000 OA
ATOM      9  H   UNL     1       6.864   3.392  19.059  0.00  0.00    +0.000 HD
ENDROOT
BRANCH   1  10
ATOM     10  C   UNL     1       1.807   4.956  18.211  0.00  0.00    +0.000 C 
BRANCH  10  11
ATOM     11  C   UNL     1       1.069   3.764  18.827  0.00  0.00    +0.000 C 
BRANCH  11  13
ATOM     12  C   UNL     1       1.296   2.876  21.178  0.00  0.00    +0.000 C 
ATOM     13  C   UNL     1       1.921   2.910  19.784  0.00  0.00    +0.000 C 
ATOM     14  C   UNL     1       2.066   1.482  19.259  0.00  0.00    +0.000 C 
ENDBRANCH  11  13
ENDBRANCH  10  11
ENDBRANCH   1  10
BRANCH   6  15
ATOM     15  C   UNL     1       6.998   5.797  16.766  0.00  0.00    +0.000 C 
BRANCH  15  16
ATOM     16  O   UNL     1       7.591   5.718  15.480  0.00  0.00    +0.000 OA
BRANCH  16  17
ATOM     17  C   UNL     1       6.920   4.987  14.532  0.00  0.00    +0.000 A 
ATOM     18  C   UNL     1       5.718   4.308  14.758  0.00  0.00    +0.000 A 
ATOM     19  C   UNL     1       5.138   3.535  13.746  0.00  0.00    +0.000 A 
ATOM     20  C   UNL     1       5.767   3.422  12.509  0.00  0.00    +0.000 A 
ATOM     21 CL   UNL     1       5.090   2.408  11.296  0.00  0.00    +0.000 Cl
ATOM     22  C   UNL     1       6.936   4.128  12.250  0.00  0.00    +0.000 A 
ATOM     23  C   UNL     1       7.489   4.935  13.249  0.00  0.00    +0.000 A 
ATOM     24 CL   UNL     1       8.892   5.871  12.857  0.00  0.00    +0.000 Cl
ENDBRANCH  16  17
ENDBRANCH  15  16
ENDBRANCH   6  15
TORSDOF 6
ENDMDL
MODEL 2
REMARK VINA RESULT:      -7.7      1.297      1.603
REMARK  Name = 
REMARK  8 active torsions:
REMARK  status: ('A' for Active; 'I' for Inactive)
REMARK    1  A    between atoms: C_1  and  C_2
REMARK    2  A    between atoms: C_2  and  C_3
REMARK    3  A    between atoms: C_2  and  C_4
REMARK    4  A    between atoms: C_4  and  C_5
REMARK    5  A    between atoms: C_5  and  C_6
REMARK    6  A    between atoms: C_11  and  C_13
REMARK    7  A    between atoms: C_13  and  O_14
REMARK    8  A    between atoms: O_14  and  C_15
REMARK                            x       y       z     vdW  Elec       q    Type
REMARK                         _______ _______ _______ _____ _____    ______ ____
ROOT
ATOM      1  C   UNL     1       3.769   3.532  18.234  0.00  0.00    +0.000 A 
ATOM      2  N   UNL     1       3.284   4.354  17.329  0.00  0.00    +0.000 NA
ATOM      3  N   UNL     1       4.114   5.460  17.331  0.00  0.00    +0.000 NA
ATOM      4  C   UNL     1       5.057   5.206  18.208  0.00  0.00    +0.000 A 
ATOM      5  N   UNL     1       6.089   5.993  18.623  0.00  0.00    +0.000 N 
ATOM      6  C   UNL     1       7.175   6.118  17.797  0.00  0.00    +0.000 C 
ATOM      7  O   UNL     1       7.867   7.138  17.891  0.00  0.00    +0.000 OA
ATOM      8  O   UNL     1       4.907   3.999  18.824  0.00  0.00    +0.000 OA
ATOM      9  H   UNL     1       5.818   6.927  18.916  0.00  0.00    +0.000 HD
ENDROOT
BRANCH   1  10
ATOM     10  C   UNL     1       3.254   2.223  18.708  0.00  0.00    +0.000 C 
BRANCH  10  11
ATOM     11  C   UNL     1       2.660   2.294  20.118  0.00  0.00    +0.000 C 
BRANCH  11  13
ATOM     12  C   UNL     1       1.126   4.265  20.479  0.00  0.00    +0.000 C 
ATOM     13  C   UNL     1       1.196   2.770  20.171  0.00  0.00    +0.000 C 
ATOM     14  C   UNL     1       0.482   2.490  18.849  0.00  0.00    +0.000 C 
ENDBRANCH  11  13
ENDBRANCH  10  11
ENDBRANCH   1  10
BRANCH   6  15
ATOM     15  C   UNL     1       7.519   5.025  16.782  0.00  0.00    +0.000 C 
BRANCH  15  16
ATOM     16  O   UNL     1       7.576   5.557  15.469  0.00  0.00    +0.000 OA
BRANCH  16  17
ATOM     17  C   UNL     1       6.911   4.864  14.490  0.00  0.00    +0.000 A 
ATOM     18  C   UNL     1       5.735   4.133  14.695  0.00  0.00    +0.000 A 
ATOM     19  C   UNL     1       5.159   3.406  13.647  0.00  0.00    +0.000 A 
ATOM     20  C   UNL     1       5.767   3.389  12.394  0.00  0.00    +0.000 A 
ATOM     21 CL   UNL     1       5.099   2.430  11.133  0.00  0.00    +0.000 Cl
ATOM     22  C   UNL     1       6.908   4.148  12.159  0.00  0.00    +0.000 A 
ATOM     23  C   UNL     1       7.456   4.909  13.196  0.00  0.00    +0.000 A 
ATOM     24 CL   UNL     1       8.820   5.912  12.838  0.00  0.00    +0.000 Cl
ENDBRANCH  16  17
ENDBRANCH  15  16
ENDBRANCH   6  15
TORSDOF 6
ENDMDL
MODEL 3
REMARK VINA RESULT:      -7.7      3.481      6.749
REMARK  Name = 
REMARK  8 active torsions:
REMARK  status: ('A' for Active; 'I' for Inactive)
REMARK    1  A    between atoms: C_1  and  C_2
REMARK    2  A    between atoms: C_2  and  C_3
REMARK    3  A    between atoms: C_2  and  C_4
REMARK    4  A    between atoms: C_4  and  C_5
REMARK    5  A    between atoms: C_5  and  C_6
REMARK    6  A    between atoms: C_11  and  C_13
REMARK    7  A    between atoms: C_13  and  O_14
REMARK    8  A    between atoms: O_14  and  C_15
REMARK                            x       y       z     vdW  Elec       q    Type
REMARK                         _______ _______ _______ _____ _____    ______ ____
ROOT
ATOM      1  C   UNL     1       6.348   3.978  13.700  0.00  0.00    +0.000 A 
ATOM      2  N   UNL     1       6.154   3.153  14.705  0.00  0.00    +0.000 NA
ATOM      3  N   UNL     1       6.505   3.850  15.846  0.00  0.00    +0.000 NA
ATOM      4  C   UNL     1       6.848   5.053  15.448  0.00  0.00    +0.000 A 
ATOM      5  N   UNL     1       7.322   6.105  16.173  0.00  0.00    +0.000 N 
ATOM      6  C   UNL     1       6.426   6.829  16.916  0.00  0.00    +0.000 C 
ATOM      7  O   UNL     1       6.845   7.435  17.908  0.00  0.00    +0.000 OA
ATOM      8  O   UNL     1       6.773   5.212  14.095  0.00  0.00    +0.000 OA
ATOM      9  H   UNL     1       8.109   5.884  16.774  0.00  0.00    +0.000 HD
ENDROOT
BRANCH   1  10
ATOM     10  C   UNL     1       6.201   3.754  12.240  0.00  0.00    +0.000 C 
BRANCH  10  11
ATOM     11  C   UNL     1       5.480   2.445  11.909  0.00  0.00    +0.000 C 
BRANCH  11  13
ATOM     12  C   UNL     1       7.725   1.893  10.898  0.00  0.00    +0.000 C 
ATOM     13  C   UNL     1       6.244   1.520  10.942  0.00  0.00    +0.000 C 
ATOM     14  C   UNL     1       6.102   0.057  11.359  0.00  0.00    +0.000 C 
ENDBRANCH  11  13
ENDBRANCH  10  11
ENDBRANCH   1  10
BRANCH   6  15
ATOM     15  C   UNL     1       4.947   6.882  16.527  0.00  0.00    +0.000 C 
BRANCH  15  16
ATOM     16  O   UNL     1       4.123   6.878  17.682  0.00  0.00    +0.000 OA
BRANCH  16  17
ATOM     17  C   UNL     1       3.400   5.737  17.923  0.00  0.00    +0.000 A 
ATOM     18  C   UNL     1       3.551   4.538  17.216  0.00  0.00    +0.000 A 
ATOM     19  C   UNL     1       2.725   3.443  17.492  0.00  0.00    +0.000 A 
ATOM     20  C   UNL     1       1.731   3.546  18.462  0.00  0.00    +0.000 A 
ATOM     21 CL   UNL     1       0.669   2.224  18.742  0.00  0.00    +0.000 Cl
ATOM     22  C   UNL     1       1.599   4.712  19.208  0.00  0.00    +0.000 A 
ATOM     23  C   UNL     1       2.455   5.790  18.961  0.00  0.00    +0.000 A 
ATOM     24 CL   UNL     1       2.320   7.187  19.974  0.00  0.00    +0.000 Cl
ENDBRANCH  16  17
ENDBRANCH  15  16
ENDBRANCH   6  15
TORSDOF 6
ENDMDL
MODEL 4
REMARK VINA RESULT:      -7.6      1.334      1.769
REMARK  Name = 
REMARK  8 active torsions:
REMARK  status: ('A' for Active; 'I' for Inactive)
REMARK    1  A    between atoms: C_1  and  C_2
REMARK    2  A    between atoms: C_2  and  C_3
REMARK    3  A    between atoms: C_2  and  C_4
REMARK    4  A    between atoms: C_4  and  C_5
REMARK    5  A    between atoms: C_5  and  C_6
REMARK    6  A    between atoms: C_11  and  C_13
REMARK    7  A    between atoms: C_13  and  O_14
REMARK    8  A    between atoms: O_14  and  C_15
REMARK                            x       y       z     vdW  Elec       q    Type
REMARK                         _______ _______ _______ _____ _____    ______ ____
ROOT
ATOM      1  C   UNL     1       4.554   3.763  19.455  0.00  0.00    +0.000 A 
ATOM      2  N   UNL     1       3.879   4.864  19.703  0.00  0.00    +0.000 NA
ATOM      3  N   UNL     1       4.780   5.905  19.570  0.00  0.00    +0.000 NA
ATOM      4  C   UNL     1       5.919   5.358  19.216  0.00  0.00    +0.000 A 
ATOM      5  N   UNL     1       7.134   5.940  19.008  0.00  0.00    +0.000 N 
ATOM      6  C   UNL     1       7.329   6.619  17.834  0.00  0.00    +0.000 C 
ATOM      7  O   UNL     1       8.175   7.520  17.814  0.00  0.00    +0.000 OA
ATOM      8  O   UNL     1       5.856   3.999  19.120  0.00  0.00    +0.000 OA
ATOM      9  H   UNL     1       7.450   6.539  19.765  0.00  0.00    +0.000 HD
ENDROOT
BRANCH   1  10
ATOM     10  C   UNL     1       4.121   2.345  19.512  0.00  0.00    +0.000 C 
BRANCH  10  11
ATOM     11  C   UNL     1       3.499   1.860  18.200  0.00  0.00    +0.000 C 
BRANCH  11  13
ATOM     12  C   UNL     1       1.314   2.359  19.361  0.00  0.00    +0.000 C 
ATOM     13  C   UNL     1       2.020   2.252  18.010  0.00  0.00    +0.000 C 
ATOM     14  C   UNL     1       1.899   3.582  17.268  0.00  0.00    +0.000 C 
ENDBRANCH  11  13
ENDBRANCH  10  11
ENDBRANCH   1  10
BRANCH   6  15
ATOM     15  C   UNL     1       6.519   6.270  16.583  0.00  0.00    +0.000 C 
BRANCH  15  16
ATOM     16  O   UNL     1       7.375   5.859  15.529  0.00  0.00    +0.000 OA
BRANCH  16  17
ATOM     17  C   UNL     1       6.827   5.049  14.566  0.00  0.00    +0.000 A 
ATOM     18  C   UNL     1       5.644   4.318  14.724  0.00  0.00    +0.000 A 
ATOM     19  C   UNL     1       5.193   3.469  13.707  0.00  0.00    +0.000 A 
ATOM     20  C   UNL     1       5.934   3.329  12.536  0.00  0.00    +0.000 A 
ATOM     21 CL   UNL     1       5.417   2.225  11.324  0.00  0.00    +0.000 Cl
ATOM     22  C   UNL     1       7.086   4.084  12.342  0.00  0.00    +0.000 A 
ATOM     23  C   UNL     1       7.509   4.965  13.342  0.00  0.00    +0.000 A 
ATOM     24 CL   UNL     1       8.894   5.954  13.023  0.00  0.00    +0.000 Cl
ENDBRANCH  16  17
ENDBRANCH  15  16
ENDBRANCH   6  15
TORSDOF 6
ENDMDL
MODEL 5
REMARK VINA RESULT:      -7.6      3.331      5.431
REMARK  Name = 
REMARK  8 active torsions:
REMARK  status: ('A' for Active; 'I' for Inactive)
REMARK    1  A    between atoms: C_1  and  C_2
REMARK    2  A    between atoms: C_2  and  C_3
REMARK    3  A    between atoms: C_2  and  C_4
REMARK    4  A    between atoms: C_4  and  C_5
REMARK    5  A    between atoms: C_5  and  C_6
REMARK    6  A    between atoms: C_11  and  C_13
REMARK    7  A    between atoms: C_13  and  O_14
REMARK    8  A    between atoms: O_14  and  C_15
REMARK                            x       y       z     vdW  Elec       q    Type
REMARK                         _______ _______ _______ _____ _____    ______ ____
ROOT
ATOM      1  C   UNL     1       2.508   7.150  18.618  0.00  0.00    +0.000 A 
ATOM      2  N   UNL     1       2.193   6.822  19.852  0.00  0.00    +0.000 NA
ATOM      3  N   UNL     1       2.162   5.440  19.886  0.00  0.00    +0.000 NA
ATOM      4  C   UNL     1       2.497   5.038  18.682  0.00  0.00    +0.000 A 
ATOM      5  N   UNL     1       2.567   3.774  18.178  0.00  0.00    +0.000 N 
ATOM      6  C   UNL     1       3.652   3.007  18.514  0.00  0.00    +0.000 C 
ATOM      7  O   UNL     1       3.527   1.777  18.493  0.00  0.00    +0.000 OA
ATOM      8  O   UNL     1       2.733   6.067  17.819  0.00  0.00    +0.000 OA
ATOM      9  H   UNL     1       1.736   3.212  18.330  0.00  0.00    +0.000 HD
ENDROOT
BRANCH   1  10
ATOM     10  C   UNL     1       2.622   8.487  17.985  0.00  0.00    +0.000 C 
BRANCH  10  11
ATOM     11  C   UNL     1       1.304   9.266  18.000  0.00  0.00    +0.000 C 
BRANCH  11  13
ATOM     12  C   UNL     1       0.776  11.626  18.722  0.00  0.00    +0.000 C 
ATOM     13  C   UNL     1       1.137  10.220  19.199  0.00  0.00    +0.000 C 
ATOM     14  C   UNL     1       0.055   9.714  20.152  0.00  0.00    +0.000 C 
ENDBRANCH  11  13
ENDBRANCH  10  11
ENDBRANCH   1  10
BRANCH   6  15
ATOM     15  C   UNL     1       4.981   3.658  18.906  0.00  0.00    +0.000 C 
BRANCH  15  16
ATOM     16  O   UNL     1       5.705   4.057  17.754  0.00  0.00    +0.000 OA
BRANCH  16  17
ATOM     17  C   UNL     1       6.450   5.204  17.857  0.00  0.00    +0.000 A 
ATOM     18  C   UNL     1       7.427   5.431  18.832  0.00  0.00    +0.000 A 
ATOM     19  C   UNL     1       8.095   6.659  18.897  0.00  0.00    +0.000 A 
ATOM     20  C   UNL     1       7.774   7.674  18.000  0.00  0.00    +0.000 A 
ATOM     21 CL   UNL     1       8.541   9.208  18.134  0.00  0.00    +0.000 Cl
ATOM     22  C   UNL     1       6.841   7.451  16.994  0.00  0.00    +0.000 A 
ATOM     23  C   UNL     1       6.208   6.207  16.904  0.00  0.00    +0.000 A 
ATOM     24 CL   UNL     1       5.123   5.939  15.582  0.00  0.00    +0.000 Cl
ENDBRANCH  16  17
ENDBRANCH  15  16
ENDBRANCH   6  15
TORSDOF 6
ENDMDL
MODEL 6
REMARK VINA RESULT:      -7.5      4.242      6.242
REMARK  Name = 
REMARK  8 active torsions:
REMARK  status: ('A' for Active; 'I' for Inactive)
REMARK    1  A    between atoms: C_1  and  C_2
REMARK    2  A    between atoms: C_2  and  C_3
REMARK    3  A    between atoms: C_2  and  C_4
REMARK    4  A    between atoms: C_4  and  C_5
REMARK    5  A    between atoms: C_5  and  C_6
REMARK    6  A    between atoms: C_11  and  C_13
REMARK    7  A    between atoms: C_13  and  O_14
REMARK    8  A    between atoms: O_14  and  C_15
REMARK                            x       y       z     vdW  Elec       q    Type
REMARK                         _______ _______ _______ _____ _____    ______ ____
ROOT
ATOM      1  C   UNL     1       4.697   3.416  19.275  0.00  0.00    +0.000 A 
ATOM      2  N   UNL     1       5.936   3.807  19.480  0.00  0.00    +0.000 NA
ATOM      3  N   UNL     1       6.304   4.521  18.355  0.00  0.00    +0.000 NA
ATOM      4  C   UNL     1       5.249   4.540  17.574  0.00  0.00    +0.000 A 
ATOM      5  N   UNL     1       5.103   5.069  16.326  0.00  0.00    +0.000 N 
ATOM      6  C   UNL     1       4.955   6.427  16.217  0.00  0.00    +0.000 C 
ATOM      7  O   UNL     1       5.295   6.969  15.160  0.00  0.00    +0.000 OA
ATOM      8  O   UNL     1       4.186   3.859  18.090  0.00  0.00    +0.000 OA
ATOM      9  H   UNL     1       5.815   4.785  15.660  0.00  0.00    +0.000 HD
ENDROOT
BRANCH   1  10
ATOM     10  C   UNL     1       3.813   2.566  20.111  0.00  0.00    +0.000 C 
BRANCH  10  11
ATOM     11  C   UNL     1       2.746   1.834  19.293  0.00  0.00    +0.000 C 
BRANCH  11  13
ATOM     12  C   UNL     1       1.208   2.806  21.042  0.00  0.00    +0.000 C 
ATOM     13  C   UNL     1       1.297   2.235  19.627  0.00  0.00    +0.000 C 
ATOM     14  C   UNL     1       0.773   3.268  18.630  0.00  0.00    +0.000 C 
ENDBRANCH  11  13
ENDBRANCH  10  11
ENDBRANCH   1  10
BRANCH   6  15
ATOM     15  C   UNL     1       4.385   7.249  17.376  0.00  0.00    +0.000 C 
BRANCH  15  16
ATOM     16  O   UNL     1       3.007   6.967  17.562  0.00  0.00    +0.000 OA
BRANCH  16  17
ATOM     17  C   UNL     1       2.282   7.874  18.293  0.00  0.00    +0.000 A 
ATOM     18  C   UNL     1       1.790   9.084  17.791  0.00  0.00    +0.000 A 
ATOM     19  C   UNL     1       1.112   9.977  18.629  0.00  0.00    +0.000 A 
ATOM     20  C   UNL     1       0.941   9.674  19.977  0.00  0.00    +0.000 A 
ATOM     21 CL   UNL     1       0.178  10.810  21.018  0.00  0.00    +0.000 Cl
ATOM     22  C   UNL     1       1.381   8.456  20.482  0.00  0.00    +0.000 A 
ATOM     23  C   UNL     1       2.018   7.546  19.632  0.00  0.00    +0.000 A 
ATOM     24 CL   UNL     1       2.465   6.003  20.278  0.00  0.00    +0.000 Cl
ENDBRANCH  16  17
ENDBRANCH  15  16
ENDBRANCH   6  15
TORSDOF 6
ENDMDL
MODEL 7
REMARK VINA RESULT:      -7.5      4.682      7.889
REMARK  Name = 
REMARK  8 active torsions:
REMARK  status: ('A' for Active; 'I' for Inactive)
REMARK    1  A    between atoms: C_1  and  C_2
REMARK    2  A    between atoms: C_2  and  C_3
REMARK    3  A    between atoms: C_2  and  C_4
REMARK    4  A    between atoms: C_4  and  C_5
REMARK    5  A    between atoms: C_5  and  C_6
REMARK    6  A    between atoms: C_11  and  C_13
REMARK    7  A    between atoms: C_13  and  O_14
REMARK    8  A    between atoms: O_14  and  C_15
REMARK                            x       y       z     vdW  Elec       q    Type
REMARK                         _______ _______ _______ _____ _____    ______ ____
ROOT
ATOM      1  C   UNL     1       7.830   7.190  17.816  0.00  0.00    +0.000 A 
ATOM      2  N   UNL     1       7.895   6.930  16.528  0.00  0.00    +0.000 NA
ATOM      3  N   UNL     1       7.246   5.723  16.346  0.00  0.00    +0.000 NA
ATOM      4  C   UNL     1       6.806   5.364  17.530  0.00  0.00    +0.000 A 
ATOM      5  N   UNL     1       6.148   4.231  17.903  0.00  0.00    +0.000 N 
ATOM      6  C   UNL     1       4.814   4.133  17.604  0.00  0.00    +0.000 C 
ATOM      7  O   UNL     1       4.323   3.005  17.482  0.00  0.00    +0.000 OA
ATOM      8  O   UNL     1       7.137   6.246  18.516  0.00  0.00    +0.000 OA
ATOM      9  H   UNL     1       6.592   3.367  17.607  0.00  0.00    +0.000 HD
ENDROOT
BRANCH   1  10
ATOM     10  C   UNL     1       8.409   8.313  18.594  0.00  0.00    +0.000 C 
BRANCH  10  11
ATOM     11  C   UNL     1       8.463   9.621  17.799  0.00  0.00    +0.000 C 
BRANCH  11  13
ATOM     12  C   UNL     1       9.430  10.404  19.994  0.00  0.00    +0.000 C 
ATOM     13  C   UNL     1       9.069  10.811  18.567  0.00  0.00    +0.000 C 
ATOM     14  C   UNL     1      10.316  11.340  17.859  0.00  0.00    +0.000 C 
ENDBRANCH  11  13
ENDBRANCH  10  11
ENDBRANCH   1  10
BRANCH   6  15
ATOM     15  C   UNL     1       3.957   5.389  17.423  0.00  0.00    +0.000 C 
BRANCH  15  16
ATOM     16  O   UNL     1       2.761   5.294  18.178  0.00  0.00    +0.000 OA
BRANCH  16  17
ATOM     17  C   UNL     1       2.295   6.451  18.749  0.00  0.00    +0.000 A 
ATOM     18  C   UNL     1       2.160   7.670  18.075  0.00  0.00    +0.000 A 
ATOM     19  C   UNL     1       1.734   8.815  18.758  0.00  0.00    +0.000 A 
ATOM     20  C   UNL     1       1.461   8.752  20.122  0.00  0.00    +0.000 A 
ATOM     21 CL   UNL     1       1.014  10.180  20.970  0.00  0.00    +0.000 Cl
ATOM     22  C   UNL     1       1.543   7.540  20.797  0.00  0.00    +0.000 A 
ATOM     23  C   UNL     1       1.926   6.388  20.103  0.00  0.00    +0.000 A 
ATOM     24 CL   UNL     1       1.925   4.883  20.958  0.00  0.00    +0.000 Cl
ENDBRANCH  16  17
ENDBRANCH  15  16
ENDBRANCH   6  15
TORSDOF 6
ENDMDL
MODEL 8
REMARK VINA RESULT:      -7.4      3.175      5.423
REMARK  Name = 
REMARK  8 active torsions:
REMARK  status: ('A' for Active; 'I' for Inactive)
REMARK    1  A    between atoms: C_1  and  C_2
REMARK    2  A    between atoms: C_2  and  C_3
REMARK    3  A    between atoms: C_2  and  C_4
REMARK    4  A    between atoms: C_4  and  C_5
REMARK    5  A    between atoms: C_5  and  C_6
REMARK    6  A    between atoms: C_11  and  C_13
REMARK    7  A    between atoms: C_13  and  O_14
REMARK    8  A    between atoms: O_14  and  C_15
REMARK                            x       y       z     vdW  Elec       q    Type
REMARK                         _______ _______ _______ _____ _____    ______ ____
ROOT
ATOM      1  C   UNL     1       2.469   6.933  18.710  0.00  0.00    +0.000 A 
ATOM      2  N   UNL     1       2.260   6.758  19.997  0.00  0.00    +0.000 NA
ATOM      3  N   UNL     1       1.892   5.434  20.150  0.00  0.00    +0.000 NA
ATOM      4  C   UNL     1       1.944   4.901  18.951  0.00  0.00    +0.000 A 
ATOM      5  N   UNL     1       1.627   3.638  18.550  0.00  0.00    +0.000 N 
ATOM      6  C   UNL     1       2.523   2.636  18.812  0.00  0.00    +0.000 C 
ATOM      7  O   UNL     1       2.096   1.480  18.909  0.00  0.00    +0.000 OA
ATOM      8  O   UNL     1       2.304   5.790  17.983  0.00  0.00    +0.000 OA
ATOM      9  H   UNL     1       0.711   3.316  18.850  0.00  0.00    +0.000 HD
ENDROOT
BRANCH   1  10
ATOM     10  C   UNL     1       2.821   8.163  17.959  0.00  0.00    +0.000 C 
BRANCH  10  11
ATOM     11  C   UNL     1       1.615   9.071  17.706  0.00  0.00    +0.000 C 
BRANCH  11  13
ATOM     12  C   UNL     1       1.828  11.471  18.454  0.00  0.00    +0.000 C 
ATOM     13  C   UNL     1       1.325  10.080  18.834  0.00  0.00    +0.000 C 
ATOM     14  C   UNL     1      -0.172  10.146  19.136  0.00  0.00    +0.000 C 
ENDBRANCH  11  13
ENDBRANCH  10  11
ENDBRANCH   1  10
BRANCH   6  15
ATOM     15  C   UNL     1       4.014   2.941  18.981  0.00  0.00    +0.000 C 
BRANCH  15  16
ATOM     16  O   UNL     1       4.590   3.330  17.744  0.00  0.00    +0.000 OA
BRANCH  16  17
ATOM     17  C   UNL     1       5.445   4.404  17.771  0.00  0.00    +0.000 A 
ATOM     18  C   UNL     1       6.013   4.937  18.933  0.00  0.00    +0.000 A 
ATOM     19  C   UNL     1       6.826   6.074  18.868  0.00  0.00    +0.000 A 
ATOM     20  C   UNL     1       7.059   6.696  17.644  0.00  0.00    +0.000 A 
ATOM     21 CL   UNL     1       7.994   8.137  17.581  0.00  0.00    +0.000 Cl
ATOM     22  C   UNL     1       6.543   6.152  16.473  0.00  0.00    +0.000 A 
ATOM     23  C   UNL     1       5.767   4.990  16.536  0.00  0.00    +0.000 A 
ATOM     24 CL   UNL     1       5.222   4.293  15.048  0.00  0.00    +0.000 Cl
ENDBRANCH  16  17
ENDBRANCH  15  16
ENDBRANCH   6  15
TORSDOF 6
ENDMDL
MODEL 9
REMARK VINA RESULT:      -7.4      4.407      7.476
REMARK  Name = 
REMARK  8 active torsions:
REMARK  status: ('A' for Active; 'I' for Inactive)
REMARK    1  A    between atoms: C_1  and  C_2
REMARK    2  A    between atoms: C_2  and  C_3
REMARK    3  A    between atoms: C_2  and  C_4
REMARK    4  A    between atoms: C_4  and  C_5
REMARK    5  A    between atoms: C_5  and  C_6
REMARK    6  A    between atoms: C_11  and  C_13
REMARK    7  A    between atoms: C_13  and  O_14
REMARK    8  A    between atoms: O_14  and  C_15
REMARK                            x       y       z     vdW  Elec       q    Type
REMARK                         _______ _______ _______ _____ _____    ______ ____
ROOT
ATOM      1  C   UNL     1       4.190   4.199  17.189  0.00  0.00    +0.000 A 
ATOM      2  N   UNL     1       3.257   3.322  16.890  0.00  0.00    +0.000 NA
ATOM      3  N   UNL     1       2.780   2.843  18.095  0.00  0.00    +0.000 NA
ATOM      4  C   UNL     1       3.432   3.493  19.030  0.00  0.00    +0.000 A 
ATOM      5  N   UNL     1       3.371   3.357  20.385  0.00  0.00    +0.000 N 
ATOM      6  C   UNL     1       2.299   3.905  21.038  0.00  0.00    +0.000 C 
ATOM      7  O   UNL     1       1.963   3.416  22.123  0.00  0.00    +0.000 OA
ATOM      8  O   UNL     1       4.347   4.374  18.533  0.00  0.00    +0.000 OA
ATOM      9  H   UNL     1       3.480   2.404  20.719  0.00  0.00    +0.000 HD
ENDROOT
BRANCH   1  10
ATOM     10  C   UNL     1       5.087   4.979  16.301  0.00  0.00    +0.000 C 
BRANCH  10  11
ATOM     11  C   UNL     1       5.651   6.231  16.978  0.00  0.00    +0.000 C 
BRANCH  11  13
ATOM     12  C   UNL     1       7.669   7.616  17.597  0.00  0.00    +0.000 C 
ATOM     13  C   UNL     1       7.186   6.249  17.113  0.00  0.00    +0.000 C 
ATOM     14  C   UNL     1       7.662   5.170  18.085  0.00  0.00    +0.000 C 
ENDBRANCH  11  13
ENDBRANCH  10  11
ENDBRANCH   1  10
BRANCH   6  15
ATOM     15  C   UNL     1       1.537   5.089  20.439  0.00  0.00    +0.000 C 
BRANCH  15  16
ATOM     16  O   UNL     1       2.373   6.233  20.352  0.00  0.00    +0.000 OA
BRANCH  16  17
ATOM     17  C   UNL     1       1.751   7.456  20.355  0.00  0.00    +0.000 A 
ATOM     18  C   UNL     1       1.042   7.982  21.440  0.00  0.00    +0.000 A 
ATOM     19  C   UNL     1       0.387   9.214  21.330  0.00  0.00    +0.000 A 
ATOM     20  C   UNL     1       0.421   9.916  20.128  0.00  0.00    +0.000 A 
ATOM     21 CL   UNL     1      -0.450  11.391  19.974  0.00  0.00    +0.000 Cl
ATOM     22  C   UNL     1       1.161   9.433  19.055  0.00  0.00    +0.000 A 
ATOM     23  C   UNL     1       1.851   8.223  19.183  0.00  0.00    +0.000 A 
ATOM     24 CL   UNL     1       2.836   7.703  17.857  0.00  0.00    +0.000 Cl
ENDBRANCH  16  17
ENDBRANCH  15  16
ENDBRANCH   6  15
TORSDOF 6
ENDMDL
