MODEL 1
REMARK VINA RESULT:      -6.4      0.000      0.000
REMARK  Name = 
REMARK  7 active torsions:
REMARK  status: ('A' for Active; 'I' for Inactive)
REMARK    1  A    between atoms: C_1  and  C_2
REMARK    2  A    between atoms: C_2  and  N_3
REMARK    3  A    between atoms: N_3  and  C_4
REMARK    4  A    between atoms: C_8  and  O_9
REMARK    5  A    between atoms: O_9  and  C_10
REMARK    6  A    between atoms: C_13  and  S_14
REMARK    7  A    between atoms: S_14  and  C_15
REMARK                            x       y       z     vdW  Elec       q    Type
REMARK                         _______ _______ _______ _____ _____    ______ ____
ROOT
ATOM      1  C   UNL     1       4.916   4.427  16.443  0.00  0.00    +0.000 C 
ATOM      2  C   UNL     1       5.385   5.875  16.570  0.00  0.00    +0.000 C 
ATOM      3  C   UNL     1       4.234   6.770  17.022  0.00  0.00    +0.000 C 
ATOM      4  C   UNL     1       3.453   6.264  18.213  0.00  0.00    +0.000 A 
ATOM      5  C   UNL     1       2.610   7.121  18.947  0.00  0.00    +0.000 A 
ATOM      6  C   UNL     1       1.926   6.634  20.068  0.00  0.00    +0.000 A 
ATOM      7  C   UNL     1       2.046   5.302  20.453  0.00  0.00    +0.000 A 
ATOM      8  C   UNL     1       2.860   4.424  19.737  0.00  0.00    +0.000 A 
ATOM      9  C   UNL     1       3.551   4.896  18.596  0.00  0.00    +0.000 A 
ATOM     10  C   UNL     1       4.440   3.947  17.822  0.00  0.00    +0.000 C 
ENDROOT
BRANCH   1  11
ATOM     11  N   UNL     1       6.034   3.605  15.937  0.00  0.00    +0.000 NA
ATOM     12  H   UNL     1       6.711   3.456  16.685  0.00  0.00    +0.000 HD
BRANCH  11  14
ATOM     13  C   UNL     1       5.991   3.820  13.501  0.00  0.00    +0.000 C 
ATOM     14  C   UNL     1       6.709   4.204  14.784  0.00  0.00    +0.000 C 
ENDBRANCH  11  14
ENDBRANCH   1  11
BRANCH   5  15
ATOM     15  O   UNL     1       2.462   8.471  18.763  0.00  0.00    +0.000 OA
ATOM     16  C   UNL     1       1.461   8.894  17.844  0.00  0.00    +0.000 C 
ENDBRANCH   5  15
BRANCH   8  17
ATOM     17  S   UNL     1       2.857   2.714  20.303  0.00  0.00    +0.000 S 
ATOM     18  C   UNL     1       1.549   2.748  21.563  0.00  0.00    +0.000 C 
ENDBRANCH   8  17
TORSDOF 4
ENDMDL
MODEL 2
REMARK VINA RESULT:      -6.3      1.216      1.453
REMARK  Name = 
REMARK  7 active torsions:
REMARK  status: ('A' for Active; 'I' for Inactive)
REMARK    1  A    between atoms: C_1  and  C_2
REMARK    2  A    between atoms: C_2  and  N_3
REMARK    3  A    between atoms: N_3  and  C_4
REMARK    4  A    between atoms: C_8  and  O_9
REMARK    5  A    between atoms: O_9  and  C_10
REMARK    6  A    between atoms: C_13  and  S_14
REMARK    7  A    between atoms: S_14  and  C_15
REMARK                            x       y       z     vdW  Elec       q    Type
REMARK                         _______ _______ _______ _____ _____    ______ ____
ROOT
ATOM      1  C   UNL     1       5.744   5.238  16.487  0.00  0.00    +0.000 C 
ATOM      2  C   UNL     1       5.717   6.718  16.865  0.00  0.00    +0.000 C 
ATOM      3  C   UNL     1       4.328   7.117  17.357  0.00  0.00    +0.000 C 
ATOM      4  C   UNL     1       3.725   6.200  18.396  0.00  0.00    +0.000 A 
ATOM      5  C   UNL     1       2.632   6.613  19.184  0.00  0.00    +0.000 A 
ATOM      6  C   UNL     1       2.116   5.756  20.164  0.00  0.00    +0.000 A 
ATOM      7  C   UNL     1       2.651   4.485  20.353  0.00  0.00    +0.000 A 
ATOM      8  C   UNL     1       3.721   4.040  19.577  0.00  0.00    +0.000 A 
ATOM      9  C   UNL     1       4.250   4.888  18.576  0.00  0.00    +0.000 A 
ATOM     10  C   UNL     1       5.416   4.411  17.738  0.00  0.00    +0.000 C 
ENDROOT
BRANCH   1  11
ATOM     11  N   UNL     1       7.079   4.907  15.950  0.00  0.00    +0.000 NA
ATOM     12  H   UNL     1       7.756   5.597  16.275  0.00  0.00    +0.000 HD
BRANCH  11  14
ATOM     13  C   UNL     1       5.967   3.990  13.973  0.00  0.00    +0.000 C 
ATOM     14  C   UNL     1       7.111   4.849  14.487  0.00  0.00    +0.000 C 
ENDBRANCH  11  14
ENDBRANCH   1  11
BRANCH   5  15
ATOM     15  O   UNL     1       2.061   7.858  19.194  0.00  0.00    +0.000 OA
ATOM     16  C   UNL     1       1.499   8.304  20.423  0.00  0.00    +0.000 C 
ENDBRANCH   5  15
BRANCH   8  17
ATOM     17  S   UNL     1       4.257   2.347  19.878  0.00  0.00    +0.000 S 
ATOM     18  C   UNL     1       3.483   1.465  18.491  0.00  0.00    +0.000 C 
ENDBRANCH   8  17
TORSDOF 4
ENDMDL
MODEL 3
REMARK VINA RESULT:      -6.3      2.690      5.422
REMARK  Name = 
REMARK  7 active torsions:
REMARK  status: ('A' for Active; 'I' for Inactive)
REMARK    1  A    between atoms: C_1  and  C_2
REMARK    2  A    between atoms: C_2  and  N_3
REMARK    3  A    between atoms: N_3  and  C_4
REMARK    4  A    between atoms: C_8  and  O_9
REMARK    5  A    between atoms: O_9  and  C_10
REMARK    6  A    between atoms: C_13  and  S_14
REMARK    7  A    between atoms: S_14  and  C_15
REMARK                            x       y       z     vdW  Elec       q    Type
REMARK                         _______ _______ _______ _____ _____    ______ ____
ROOT
ATOM      1  C   UNL     1       1.843   3.034  18.331  0.00  0.00    +0.000 C 
ATOM      2  C   UNL     1       3.182   2.311  18.206  0.00  0.00    +0.000 C 
ATOM      3  C   UNL     1       4.019   2.928  17.088  0.00  0.00    +0.000 C 
ATOM      4  C   UNL     1       4.128   4.436  17.122  0.00  0.00    +0.000 A 
ATOM      5  C   UNL     1       5.123   5.110  16.388  0.00  0.00    +0.000 A 
ATOM      6  C   UNL     1       5.223   6.505  16.466  0.00  0.00    +0.000 A 
ATOM      7  C   UNL     1       4.332   7.241  17.241  0.00  0.00    +0.000 A 
ATOM      8  C   UNL     1       3.324   6.605  17.966  0.00  0.00    +0.000 A 
ATOM      9  C   UNL     1       3.201   5.197  17.891  0.00  0.00    +0.000 A 
ATOM     10  C   UNL     1       2.114   4.503  18.683  0.00  0.00    +0.000 C 
ENDROOT
BRANCH   1  11
ATOM     11  N   UNL     1       1.035   2.365  19.371  0.00  0.00    +0.000 NA
ATOM     12  H   UNL     1       0.116   2.137  18.993  0.00  0.00    +0.000 HD
BRANCH  11  14
ATOM     13  C   UNL     1       1.682   2.579  21.720  0.00  0.00    +0.000 C 
ATOM     14  C   UNL     1       0.873   3.175  20.580  0.00  0.00    +0.000 C 
ENDBRANCH  11  14
ENDBRANCH   1  11
BRANCH   5  15
ATOM     15  O   UNL     1       6.133   4.532  15.665  0.00  0.00    +0.000 OA
ATOM     16  C   UNL     1       5.893   4.307  14.280  0.00  0.00    +0.000 C 
ENDBRANCH   5  15
BRANCH   8  17
ATOM     17  S   UNL     1       2.196   7.688  18.859  0.00  0.00    +0.000 S 
ATOM     18  C   UNL     1       2.097   9.117  17.740  0.00  0.00    +0.000 C 
ENDBRANCH   8  17
TORSDOF 4
ENDMDL
MODEL 4
REMARK VINA RESULT:      -6.3      0.976      1.117
REMARK  Name = 
REMARK  7 active torsions:
REMARK  status: ('A' for Active; 'I' for Inactive)
REMARK    1  A    between atoms: C_1  and  C_2
REMARK    2  A    between atoms: C_2  and  N_3
REMARK    3  A    between atoms: N_3  and  C_4
REMARK    4  A    between atoms: C_8  and  O_9
REMARK    5  A    between atoms: O_9  and  C_10
REMARK    6  A    between atoms: C_13  and  S_14
REMARK    7  A    between atoms: S_14  and  C_15
REMARK                            x       y       z     vdW  Elec       q    Type
REMARK                         _______ _______ _______ _____ _____    ______ ____
ROOT
ATOM      1  C   UNL     1       5.231   4.364  15.358  0.00  0.00    +0.000 C 
ATOM      2  C   UNL     1       5.790   5.768  15.577  0.00  0.00    +0.000 C 
ATOM      3  C   UNL     1       4.710   6.690  16.138  0.00  0.00    +0.000 C 
ATOM      4  C   UNL     1       3.939   6.138  17.315  0.00  0.00    +0.000 A 
ATOM      5  C   UNL     1       3.172   6.982  18.143  0.00  0.00    +0.000 A 
ATOM      6  C   UNL     1       2.496   6.448  19.247  0.00  0.00    +0.000 A 
ATOM      7  C   UNL     1       2.549   5.086  19.526  0.00  0.00    +0.000 A 
ATOM      8  C   UNL     1       3.286   4.221  18.715  0.00  0.00    +0.000 A 
ATOM      9  C   UNL     1       3.967   4.741  17.589  0.00  0.00    +0.000 A 
ATOM     10  C   UNL     1       4.773   3.806  16.713  0.00  0.00    +0.000 C 
ENDROOT
BRANCH   1  11
ATOM     11  N   UNL     1       6.281   3.522  14.751  0.00  0.00    +0.000 NA
ATOM     12  H   UNL     1       7.099   3.507  15.360  0.00  0.00    +0.000 HD
BRANCH  11  14
ATOM     13  C   UNL     1       5.809   3.317  12.359  0.00  0.00    +0.000 C 
ATOM     14  C   UNL     1       6.680   3.975  13.417  0.00  0.00    +0.000 C 
ENDBRANCH  11  14
ENDBRANCH   1  11
BRANCH   5  15
ATOM     15  O   UNL     1       3.099   8.348  18.067  0.00  0.00    +0.000 OA
ATOM     16  C   UNL     1       1.807   8.921  17.903  0.00  0.00    +0.000 C 
ENDBRANCH   5  15
BRANCH   8  17
ATOM     17  S   UNL     1       3.198   2.476  19.149  0.00  0.00    +0.000 S 
ATOM     18  C   UNL     1       1.673   2.419  20.134  0.00  0.00    +0.000 C 
ENDBRANCH   8  17
TORSDOF 4
ENDMDL
MODEL 5
REMARK VINA RESULT:      -6.0      2.184      3.607
REMARK  Name = 
REMARK  7 active torsions:
REMARK  status: ('A' for Active; 'I' for Inactive)
REMARK    1  A    between atoms: C_1  and  C_2
REMARK    2  A    between atoms: C_2  and  N_3
REMARK    3  A    between atoms: N_3  and  C_4
REMARK    4  A    between atoms: C_8  and  O_9
REMARK    5  A    between atoms: O_9  and  C_10
REMARK    6  A    between atoms: C_13  and  S_14
REMARK    7  A    between atoms: S_14  and  C_15
REMARK                            x       y       z     vdW  Elec       q    Type
REMARK                         _______ _______ _______ _____ _____    ______ ____
ROOT
ATOM      1  C   UNL     1       5.567   5.595  16.911  0.00  0.00    +0.000 C 
ATOM      2  C   UNL     1       5.138   4.152  17.170  0.00  0.00    +0.000 C 
ATOM      3  C   UNL     1       4.646   3.991  18.606  0.00  0.00    +0.000 C 
ATOM      4  C   UNL     1       3.646   5.028  19.064  0.00  0.00    +0.000 A 
ATOM      5  C   UNL     1       2.854   4.818  20.211  0.00  0.00    +0.000 A 
ATOM      6  C   UNL     1       1.910   5.780  20.591  0.00  0.00    +0.000 A 
ATOM      7  C   UNL     1       1.759   6.958  19.866  0.00  0.00    +0.000 A 
ATOM      8  C   UNL     1       2.540   7.203  18.735  0.00  0.00    +0.000 A 
ATOM      9  C   UNL     1       3.506   6.247  18.341  0.00  0.00    +0.000 A 
ATOM     10  C   UNL     1       4.348   6.507  17.111  0.00  0.00    +0.000 C 
ENDROOT
BRANCH   1  11
ATOM     11  N   UNL     1       6.102   5.695  15.539  0.00  0.00    +0.000 NA
ATOM     12  H   UNL     1       5.339   5.889  14.890  0.00  0.00    +0.000 HD
BRANCH  11  14
ATOM     13  C   UNL     1       6.298   4.041  13.747  0.00  0.00    +0.000 C 
ATOM     14  C   UNL     1       6.807   4.486  15.108  0.00  0.00    +0.000 C 
ENDBRANCH  11  14
ENDBRANCH   1  11
BRANCH   5  15
ATOM     15  O   UNL     1       2.807   3.678  20.969  0.00  0.00    +0.000 OA
ATOM     16  C   UNL     1       1.588   2.943  20.959  0.00  0.00    +0.000 C 
ENDBRANCH   5  15
BRANCH   8  17
ATOM     17  S   UNL     1       2.293   8.802  17.944  0.00  0.00    +0.000 S 
ATOM     18  C   UNL     1       1.089   9.581  19.060  0.00  0.00    +0.000 C 
ENDBRANCH   8  17
TORSDOF 4
ENDMDL
MODEL 6
REMARK VINA RESULT:      -6.0      2.725      5.251
REMARK  Name = 
REMARK  7 active torsions:
REMARK  status: ('A' for Active; 'I' for Inactive)
REMARK    1  A    between atoms: C_1  and  C_2
REMARK    2  A    between atoms: C_2  and  N_3
REMARK    3  A    between atoms: N_3  and  C_4
REMARK    4  A    between atoms: C_8  and  O_9
REMARK    5  A    between atoms: O_9  and  C_10
REMARK    6  A    between atoms: C_13  and  S_14
REMARK    7  A    between atoms: S_14  and  C_15
REMARK                            x       y       z     vdW  Elec       q    Type
REMARK                         _______ _______ _______ _____ _____    ______ ____
ROOT
ATOM      1  C   UNL     1       2.395   7.536  19.424  0.00  0.00    +0.000 C 
ATOM      2  C   UNL     1       2.759   7.840  17.973  0.00  0.00    +0.000 C 
ATOM      3  C   UNL     1       3.833   6.874  17.479  0.00  0.00    +0.000 C 
ATOM      4  C   UNL     1       3.564   5.413  17.758  0.00  0.00    +0.000 A 
ATOM      5  C   UNL     1       4.266   4.400  17.076  0.00  0.00    +0.000 A 
ATOM      6  C   UNL     1       3.970   3.055  17.329  0.00  0.00    +0.000 A 
ATOM      7  C   UNL     1       3.007   2.701  18.269  0.00  0.00    +0.000 A 
ATOM      8  C   UNL     1       2.306   3.680  18.974  0.00  0.00    +0.000 A 
ATOM      9  C   UNL     1       2.598   5.045  18.739  0.00  0.00    +0.000 A 
ATOM     10  C   UNL     1       1.834   6.108  19.496  0.00  0.00    +0.000 C 
ENDROOT
BRANCH   1  11
ATOM     11  N   UNL     1       1.408   8.532  19.888  0.00  0.00    +0.000 NA
ATOM     12  H   UNL     1       1.700   9.463  19.591  0.00  0.00    +0.000 HD
BRANCH  11  14
ATOM     13  C   UNL     1      -0.258   8.584  21.678  0.00  0.00    +0.000 C 
ATOM     14  C   UNL     1       1.223   8.523  21.340  0.00  0.00    +0.000 C 
ENDBRANCH  11  14
ENDBRANCH   1  11
BRANCH   5  15
ATOM     15  O   UNL     1       5.164   4.578  16.056  0.00  0.00    +0.000 OA
ATOM     16  C   UNL     1       6.545   4.470  16.382  0.00  0.00    +0.000 C 
ENDBRANCH   5  15
BRANCH   8  17
ATOM     17  S   UNL     1       1.148   3.076  20.214  0.00  0.00    +0.000 S 
ATOM     18  C   UNL     1       2.208   2.973  21.686  0.00  0.00    +0.000 C 
ENDBRANCH   8  17
TORSDOF 4
ENDMDL
MODEL 7
REMARK VINA RESULT:      -5.9      3.043      4.473
REMARK  Name = 
REMARK  7 active torsions:
REMARK  status: ('A' for Active; 'I' for Inactive)
REMARK    1  A    between atoms: C_1  and  C_2
REMARK    2  A    between atoms: C_2  and  N_3
REMARK    3  A    between atoms: N_3  and  C_4
REMARK    4  A    between atoms: C_8  and  O_9
REMARK    5  A    between atoms: O_9  and  C_10
REMARK    6  A    between atoms: C_13  and  S_14
REMARK    7  A    between atoms: S_14  and  C_15
REMARK                            x       y       z     vdW  Elec       q    Type
REMARK                         _______ _______ _______ _____ _____    ______ ____
ROOT
ATOM      1  C   UNL     1       6.543   6.374  17.486  0.00  0.00    +0.000 C 
ATOM      2  C   UNL     1       6.580   5.173  16.542  0.00  0.00    +0.000 C 
ATOM      3  C   UNL     1       5.658   4.067  17.049  0.00  0.00    +0.000 C 
ATOM      4  C   UNL     1       4.265   4.514  17.430  0.00  0.00    +0.000 A 
ATOM      5  C   UNL     1       3.217   3.584  17.578  0.00  0.00    +0.000 A 
ATOM      6  C   UNL     1       1.929   4.030  17.897  0.00  0.00    +0.000 A 
ATOM      7  C   UNL     1       1.671   5.382  18.097  0.00  0.00    +0.000 A 
ATOM      8  C   UNL     1       2.691   6.327  17.975  0.00  0.00    +0.000 A 
ATOM      9  C   UNL     1       4.002   5.894  17.664  0.00  0.00    +0.000 A 
ATOM     10  C   UNL     1       5.107   6.918  17.523  0.00  0.00    +0.000 C 
ENDROOT
BRANCH   1  11
ATOM     11  N   UNL     1       7.497   7.391  17.002  0.00  0.00    +0.000 NA
ATOM     12  H   UNL     1       8.157   6.957  16.355  0.00  0.00    +0.000 HD
BRANCH  11  14
ATOM     13  C   UNL     1       8.216   9.551  17.897  0.00  0.00    +0.000 C 
ATOM     14  C   UNL     1       8.238   8.043  18.084  0.00  0.00    +0.000 C 
ENDBRANCH  11  14
ENDBRANCH   1  11
BRANCH   5  15
ATOM     15  O   UNL     1       3.280   2.240  17.317  0.00  0.00    +0.000 OA
ATOM     16  C   UNL     1       3.537   1.377  18.419  0.00  0.00    +0.000 C 
ENDBRANCH   5  15
BRANCH   8  17
ATOM     17  S   UNL     1       2.230   8.029  18.340  0.00  0.00    +0.000 S 
ATOM     18  C   UNL     1       1.833   7.930  20.111  0.00  0.00    +0.000 C 
ENDBRANCH   8  17
TORSDOF 4
ENDMDL
MODEL 8
REMARK VINA RESULT:      -5.9      2.218      3.761
REMARK  Name = 
REMARK  7 active torsions:
REMARK  status: ('A' for Active; 'I' for Inactive)
REMARK    1  A    between atoms: C_1  and  C_2
REMARK    2  A    between atoms: C_2  and  N_3
REMARK    3  A    between atoms: N_3  and  C_4
REMARK    4  A    between atoms: C_8  and  O_9
REMARK    5  A    between atoms: O_9  and  C_10
REMARK    6  A    between atoms: C_13  and  S_14
REMARK    7  A    between atoms: S_14  and  C_15
REMARK                            x       y       z     vdW  Elec       q    Type
REMARK                         _______ _______ _______ _____ _____    ______ ____
ROOT
ATOM      1  C   UNL     1       4.907   4.466  17.073  0.00  0.00    +0.000 C 
ATOM      2  C   UNL     1       4.204   3.203  17.566  0.00  0.00    +0.000 C 
ATOM      3  C   UNL     1       3.848   3.333  19.044  0.00  0.00    +0.000 C 
ATOM      4  C   UNL     1       3.154   4.620  19.429  0.00  0.00    +0.000 A 
ATOM      5  C   UNL     1       2.465   4.738  20.653  0.00  0.00    +0.000 A 
ATOM      6  C   UNL     1       1.802   5.930  20.967  0.00  0.00    +0.000 A 
ATOM      7  C   UNL     1       1.835   7.016  20.098  0.00  0.00    +0.000 A 
ATOM      8  C   UNL     1       2.522   6.937  18.886  0.00  0.00    +0.000 A 
ATOM      9  C   UNL     1       3.207   5.743  18.555  0.00  0.00    +0.000 A 
ATOM     10  C   UNL     1       3.947   5.653  17.238  0.00  0.00    +0.000 C 
ENDROOT
BRANCH   1  11
ATOM     11  N   UNL     1       5.298   4.275  15.662  0.00  0.00    +0.000 NA
ATOM     12  H   UNL     1       5.024   3.342  15.357  0.00  0.00    +0.000 HD
BRANCH  11  14
ATOM     13  C   UNL     1       7.458   4.609  16.763  0.00  0.00    +0.000 C 
ATOM     14  C   UNL     1       6.733   4.457  15.435  0.00  0.00    +0.000 C 
ENDBRANCH  11  14
ENDBRANCH   1  11
BRANCH   5  15
ATOM     15  O   UNL     1       2.253   3.738  21.566  0.00  0.00    +0.000 OA
ATOM     16  C   UNL     1       1.211   2.811  21.281  0.00  0.00    +0.000 C 
ENDBRANCH   5  15
BRANCH   8  17
ATOM     17  S   UNL     1       2.546   8.443  17.899  0.00  0.00    +0.000 S 
ATOM     18  C   UNL     1       1.235   9.421  18.690  0.00  0.00    +0.000 C 
ENDBRANCH   8  17
TORSDOF 4
ENDMDL
MODEL 9
REMARK VINA RESULT:      -5.9      1.421      1.639
REMARK  Name = 
REMARK  7 active torsions:
REMARK  status: ('A' for Active; 'I' for Inactive)
REMARK    1  A    between atoms: C_1  and  C_2
REMARK    2  A    between atoms: C_2  and  N_3
REMARK    3  A    between atoms: N_3  and  C_4
REMARK    4  A    between atoms: C_8  and  O_9
REMARK    5  A    between atoms: O_9  and  C_10
REMARK    6  A    between atoms: C_13  and  S_14
REMARK    7  A    between atoms: S_14  and  C_15
REMARK                            x       y       z     vdW  Elec       q    Type
REMARK                         _______ _______ _______ _____ _____    ______ ____
ROOT
ATOM      1  C   UNL     1       4.614   5.189  16.626  0.00  0.00    +0.000 C 
ATOM      2  C   UNL     1       4.895   6.655  16.949  0.00  0.00    +0.000 C 
ATOM      3  C   UNL     1       3.663   7.309  17.569  0.00  0.00    +0.000 C 
ATOM      4  C   UNL     1       3.023   6.536  18.700  0.00  0.00    +0.000 A 
ATOM      5  C   UNL     1       2.116   7.155  19.583  0.00  0.00    +0.000 A 
ATOM      6  C   UNL     1       1.566   6.423  20.643  0.00  0.00    +0.000 A 
ATOM      7  C   UNL     1       1.882   5.080  20.822  0.00  0.00    +0.000 A 
ATOM      8  C   UNL     1       2.763   4.434  19.955  0.00  0.00    +0.000 A 
ATOM      9  C   UNL     1       3.322   5.154  18.872  0.00  0.00    +0.000 A 
ATOM     10  C   UNL     1       4.284   4.458  17.935  0.00  0.00    +0.000 C 
ENDROOT
BRANCH   1  11
ATOM     11  N   UNL     1       5.801   4.611  15.964  0.00  0.00    +0.000 NA
ATOM     12  H   UNL     1       5.865   3.617  16.188  0.00  0.00    +0.000 HD
BRANCH  11  14
ATOM     13  C   UNL     1       7.697   4.541  17.509  0.00  0.00    +0.000 C 
ATOM     14  C   UNL     1       7.050   5.273  16.345  0.00  0.00    +0.000 C 
ENDBRANCH  11  14
ENDBRANCH   1  11
BRANCH   5  15
ATOM     15  O   UNL     1       1.782   8.484  19.606  0.00  0.00    +0.000 OA
ATOM     16  C   UNL     1       1.072   8.954  20.747  0.00  0.00    +0.000 C 
ENDBRANCH   5  15
BRANCH   8  17
ATOM     17  S   UNL     1       3.017   2.677  20.261  0.00  0.00    +0.000 S 
ATOM     18  C   UNL     1       1.801   1.930  19.136  0.00  0.00    +0.000 C 
ENDBRANCH   8  17
TORSDOF 4
ENDMDL
