MODEL 1
REMARK VINA RESULT:      -8.4      0.000      0.000
REMARK  Name = 
REMARK  16 active torsions:
REMARK  status: ('A' for Active; 'I' for Inactive)
REMARK    1  A    between atoms: C_1  and  O_2
REMARK    2  A    between atoms: O_2  and  C_3
REMARK    3  A    between atoms: C_8  and  C_9
REMARK    4  A    between atoms: C_10  and  C_11
REMARK    5  A    between atoms: C_12  and  C_13
REMARK    6  A    between atoms: C_14  and  C_15
REMARK    7  A    between atoms: C_17  and  C_18
REMARK    8  A    between atoms: C_19  and  C_20
REMARK    9  A    between atoms: C_20  and  C_21
REMARK   10  A    between atoms: C_20  and  O_22
REMARK   11  A    between atoms: C_24  and  C_25
REMARK   12  A    between atoms: C_26  and  O_27
REMARK   13  A    between atoms: C_28  and  O_29
REMARK   14  A    between atoms: O_29  and  C_30
REMARK   15  A    between atoms: C_30  and  C_31
REMARK   16  A    between atoms: C_33  and  C_34
REMARK                            x       y       z     vdW  Elec       q    Type
REMARK                         _______ _______ _______ _____ _____    ______ ____
ROOT
ATOM      1  C   UNL     1       2.718   5.579  19.095  0.00  0.00    +0.000 C 
ATOM      2  O   UNL     1       3.505   5.948  17.915  0.00  0.00    +0.000 OA
ATOM      3  C   UNL     1       4.014   4.737  17.571  0.00  0.00    +0.000 C 
ATOM      4  C   UNL     1       2.599   3.999  17.007  0.00  0.00    +0.000 C 
ATOM      5  C   UNL     1       5.615   4.633  18.530  0.00  0.00    +0.000 C 
ATOM      6  O   UNL     1       5.532   3.442  19.314  0.00  0.00    +0.000 OA
ATOM      7  C   UNL     1       4.275   3.195  18.733  0.00  0.00    +0.000 C 
ATOM      8  C   UNL     1       3.713   1.799  18.944  0.00  0.00    +0.000 C 
ATOM      9  C   UNL     1       3.359   4.315  19.804  0.00  0.00    +0.000 C 
ATOM     10  C   UNL     1       4.704   3.613  16.969  0.00  0.00    +0.000 C 
ENDROOT
BRANCH   1  12
ATOM     11  C   UNL     1       1.966   7.903  19.357  0.00  0.00    +0.000 C 
ATOM     12  C   UNL     1       2.395   6.775  19.923  0.00  0.00    +0.000 C 
BRANCH  11  14
ATOM     13  C   UNL     1       0.298   9.606  19.550  0.00  0.00    +0.000 C 
ATOM     14  C   UNL     1       1.351   8.966  20.074  0.00  0.00    +0.000 C 
BRANCH  13  16
ATOM     15  C   UNL     1      -0.087  10.948  21.570  0.00  0.00    +0.000 C 
ATOM     16  C   UNL     1      -0.349  10.638  20.292  0.00  0.00    +0.000 C 
BRANCH  15  22
ATOM     17  C   UNL     1      -1.380  14.197  23.017  0.00  0.00    +0.000 A 
ATOM     18  C   UNL     1      -2.498  13.735  23.592  0.00  0.00    +0.000 A 
ATOM     19  C   UNL     1      -2.843  12.307  23.539  0.00  0.00    +0.000 A 
ATOM     20  O   UNL     1      -3.836  11.891  24.113  0.00  0.00    +0.000 OA
ATOM     21  O   UNL     1      -2.003  11.521  22.849  0.00  0.00    +0.000 OA
ATOM     22  C   UNL     1      -0.821  12.005  22.232  0.00  0.00    +0.000 A 
ATOM     23  C   UNL     1      -0.486  13.308  22.289  0.00  0.00    +0.000 A 
ATOM     24  C   UNL     1       0.765  13.893  21.681  0.00  0.00    +0.000 C 
BRANCH  17  26
ATOM     25  C   UNL     1      -1.941  16.487  22.799  0.00  0.00    +0.000 C 
ATOM     26  O   UNL     1      -0.950  15.505  23.086  0.00  0.00    +0.000 OA
ENDBRANCH  17  26
ENDBRANCH  15  22
ENDBRANCH  13  16
ENDBRANCH  11  14
ENDBRANCH   1  12
BRANCH   5  27
ATOM     27  C   UNL     1       6.398   5.809  19.146  0.00  0.00    +0.000 C 
ATOM     28  C   UNL     1       7.174   6.543  18.025  0.00  0.00    +0.000 C 
BRANCH  27  29
ATOM     29  O   UNL     1       7.311   5.444  20.157  0.00  0.00    +0.000 OA
ATOM     30  H   UNL     1       6.799   5.123  20.921  0.00  0.00    +0.000 HD
ENDBRANCH  27  29
ENDBRANCH   5  27
BRANCH   9  31
ATOM     31  O   UNL     1       2.416   3.651  20.649  0.00  0.00    +0.000 OA
ATOM     32  H   UNL     1       2.796   2.770  20.836  0.00  0.00    +0.000 HD
ENDBRANCH   9  31
BRANCH  10  33
ATOM     33  O   UNL     1       5.404   4.657  16.151  0.00  0.00    +0.000 OA
BRANCH  33  34
ATOM     34  C   UNL     1       6.303   4.423  15.181  0.00  0.00    +0.000 C 
ATOM     35  C   UNL     1       5.611   4.007  13.905  0.00  0.00    +0.000 C 
ATOM     36  O   UNL     1       7.511   4.552  15.313  0.00  0.00    +0.000 OA
ENDBRANCH  33  34
ENDBRANCH  10  33
TORSDOF 10
ENDMDL
MODEL 2
REMARK VINA RESULT:      -8.0      4.967      8.560
REMARK  Name = 
REMARK  16 active torsions:
REMARK  status: ('A' for Active; 'I' for Inactive)
REMARK    1  A    between atoms: C_1  and  O_2
REMARK    2  A    between atoms: O_2  and  C_3
REMARK    3  A    between atoms: C_8  and  C_9
REMARK    4  A    between atoms: C_10  and  C_11
REMARK    5  A    between atoms: C_12  and  C_13
REMARK    6  A    between atoms: C_14  and  C_15
REMARK    7  A    between atoms: C_17  and  C_18
REMARK    8  A    between atoms: C_19  and  C_20
REMARK    9  A    between atoms: C_20  and  C_21
REMARK   10  A    between atoms: C_20  and  O_22
REMARK   11  A    between atoms: C_24  and  C_25
REMARK   12  A    between atoms: C_26  and  O_27
REMARK   13  A    between atoms: C_28  and  O_29
REMARK   14  A    between atoms: O_29  and  C_30
REMARK   15  A    between atoms: C_30  and  C_31
REMARK   16  A    between atoms: C_33  and  C_34
REMARK                            x       y       z     vdW  Elec       q    Type
REMARK                         _______ _______ _______ _____ _____    ______ ____
ROOT
ATOM      1  C   UNL     1       6.406   4.737  18.943  0.00  0.00    +0.000 C 
ATOM      2  O   UNL     1       5.339   4.912  19.931  0.00  0.00    +0.000 OA
ATOM      3  C   UNL     1       4.345   4.190  19.351  0.00  0.00    +0.000 C 
ATOM      4  C   UNL     1       4.974   2.634  19.576  0.00  0.00    +0.000 C 
ATOM      5  C   UNL     1       3.462   5.430  18.268  0.00  0.00    +0.000 C 
ATOM      6  O   UNL     1       3.487   4.892  16.945  0.00  0.00    +0.000 OA
ATOM      7  C   UNL     1       4.149   3.763  17.460  0.00  0.00    +0.000 C 
ATOM      8  C   UNL     1       4.224   2.561  16.533  0.00  0.00    +0.000 C 
ATOM      9  C   UNL     1       5.784   4.515  17.502  0.00  0.00    +0.000 C 
ATOM     10  C   UNL     1       3.114   3.516  18.988  0.00  0.00    +0.000 C 
ENDROOT
BRANCH   1  12
ATOM     11  C   UNL     1       7.645   6.722  18.197  0.00  0.00    +0.000 C 
ATOM     12  C   UNL     1       7.471   5.765  19.110  0.00  0.00    +0.000 C 
BRANCH  11  14
ATOM     13  C   UNL     1       8.018   9.064  17.886  0.00  0.00    +0.000 C 
ATOM     14  C   UNL     1       8.411   7.900  18.421  0.00  0.00    +0.000 C 
BRANCH  13  16
ATOM     15  C   UNL     1       9.371  10.537  19.311  0.00  0.00    +0.000 C 
ATOM     16  C   UNL     1       8.758  10.253  18.153  0.00  0.00    +0.000 C 
BRANCH  15  22
ATOM     17  C   UNL     1      10.821  13.830  20.485  0.00  0.00    +0.000 A 
ATOM     18  C   UNL     1      11.605  14.096  19.432  0.00  0.00    +0.000 A 
ATOM     19  C   UNL     1      11.653  13.190  18.275  0.00  0.00    +0.000 A 
ATOM     20  O   UNL     1      12.330  13.471  17.299  0.00  0.00    +0.000 OA
ATOM     21  O   UNL     1      10.908  12.078  18.362  0.00  0.00    +0.000 OA
ATOM     22  C   UNL     1      10.079  11.788  19.478  0.00  0.00    +0.000 A 
ATOM     23  C   UNL     1      10.015  12.618  20.536  0.00  0.00    +0.000 A 
ATOM     24  C   UNL     1       9.141  12.391  21.744  0.00  0.00    +0.000 C 
BRANCH  17  26
ATOM     25  C   UNL     1      10.256  15.993  21.265  0.00  0.00    +0.000 C 
ATOM     26  O   UNL     1      10.665  14.663  21.572  0.00  0.00    +0.000 OA
ENDBRANCH  17  26
ENDBRANCH  15  22
ENDBRANCH  13  16
ENDBRANCH  11  14
ENDBRANCH   1  12
BRANCH   5  27
ATOM     27  C   UNL     1       3.522   6.965  18.388  0.00  0.00    +0.000 C 
ATOM     28  C   UNL     1       2.214   7.473  19.041  0.00  0.00    +0.000 C 
BRANCH  27  29
ATOM     29  O   UNL     1       3.704   7.646  17.165  0.00  0.00    +0.000 OA
ATOM     30  H   UNL     1       4.361   7.151  16.642  0.00  0.00    +0.000 HD
ENDBRANCH  27  29
ENDBRANCH   5  27
BRANCH   9  31
ATOM     31  O   UNL     1       6.719   3.899  16.613  0.00  0.00    +0.000 OA
ATOM     32  H   UNL     1       7.600   4.033  17.015  0.00  0.00    +0.000 HD
ENDBRANCH   9  31
BRANCH  10  33
ATOM     33  O   UNL     1       2.521   4.277  20.135  0.00  0.00    +0.000 OA
BRANCH  33  34
ATOM     34  C   UNL     1       1.344   4.015  20.729  0.00  0.00    +0.000 C 
ATOM     35  C   UNL     1       1.471   2.828  21.655  0.00  0.00    +0.000 C 
ATOM     36  O   UNL     1       0.323   4.663  20.555  0.00  0.00    +0.000 OA
ENDBRANCH  33  34
ENDBRANCH  10  33
TORSDOF 10
ENDMDL
MODEL 3
REMARK VINA RESULT:      -7.9      1.357      1.672
REMARK  Name = 
REMARK  16 active torsions:
REMARK  status: ('A' for Active; 'I' for Inactive)
REMARK    1  A    between atoms: C_1  and  O_2
REMARK    2  A    between atoms: O_2  and  C_3
REMARK    3  A    between atoms: C_8  and  C_9
REMARK    4  A    between atoms: C_10  and  C_11
REMARK    5  A    between atoms: C_12  and  C_13
REMARK    6  A    between atoms: C_14  and  C_15
REMARK    7  A    between atoms: C_17  and  C_18
REMARK    8  A    between atoms: C_19  and  C_20
REMARK    9  A    between atoms: C_20  and  C_21
REMARK   10  A    between atoms: C_20  and  O_22
REMARK   11  A    between atoms: C_24  and  C_25
REMARK   12  A    between atoms: C_26  and  O_27
REMARK   13  A    between atoms: C_28  and  O_29
REMARK   14  A    between atoms: O_29  and  C_30
REMARK   15  A    between atoms: C_30  and  C_31
REMARK   16  A    between atoms: C_33  and  C_34
REMARK                            x       y       z     vdW  Elec       q    Type
REMARK                         _______ _______ _______ _____ _____    ______ ____
ROOT
ATOM      1  C   UNL     1       2.662   5.546  19.059  0.00  0.00    +0.000 C 
ATOM      2  O   UNL     1       3.438   5.889  17.865  0.00  0.00    +0.000 OA
ATOM      3  C   UNL     1       3.964   4.675  17.556  0.00  0.00    +0.000 C 
ATOM      4  C   UNL     1       2.557   3.898  17.022  0.00  0.00    +0.000 C 
ATOM      5  C   UNL     1       5.569   4.624  18.510  0.00  0.00    +0.000 C 
ATOM      6  O   UNL     1       5.507   3.457  19.331  0.00  0.00    +0.000 OA
ATOM      7  C   UNL     1       4.252   3.174  18.764  0.00  0.00    +0.000 C 
ATOM      8  C   UNL     1       3.711   1.777  19.022  0.00  0.00    +0.000 C 
ATOM      9  C   UNL     1       3.324   4.313  19.804  0.00  0.00    +0.000 C 
ATOM     10  C   UNL     1       4.667   3.542  16.987  0.00  0.00    +0.000 C 
ENDROOT
BRANCH   1  12
ATOM     11  C   UNL     1       1.996   7.902  19.244  0.00  0.00    +0.000 C 
ATOM     12  C   UNL     1       2.325   6.761  19.851  0.00  0.00    +0.000 C 
BRANCH  11  14
ATOM     13  C   UNL     1       0.815   9.981  19.183  0.00  0.00    +0.000 C 
ATOM     14  C   UNL     1       1.372   8.998  19.903  0.00  0.00    +0.000 C 
BRANCH  13  16
ATOM     15  C   UNL     1      -1.030  10.953  20.481  0.00  0.00    +0.000 C 
ATOM     16  C   UNL     1       0.145  11.053  19.844  0.00  0.00    +0.000 C 
BRANCH  15  22
ATOM     17  C   UNL     1      -3.173  13.902  21.499  0.00  0.00    +0.000 A 
ATOM     18  C   UNL     1      -2.465  14.313  22.560  0.00  0.00    +0.000 A 
ATOM     19  C   UNL     1      -1.224  13.630  22.954  0.00  0.00    +0.000 A 
ATOM     20  O   UNL     1      -0.560  14.048  23.888  0.00  0.00    +0.000 OA
ATOM     21  O   UNL     1      -0.880  12.560  22.222  0.00  0.00    +0.000 OA
ATOM     22  C   UNL     1      -1.628  12.115  21.101  0.00  0.00    +0.000 A 
ATOM     23  C   UNL     1      -2.757  12.743  20.721  0.00  0.00    +0.000 A 
ATOM     24  C   UNL     1      -3.592  12.346  19.529  0.00  0.00    +0.000 C 
BRANCH  17  26
ATOM     25  C   UNL     1      -4.163  15.928  20.779  0.00  0.00    +0.000 C 
ATOM     26  O   UNL     1      -4.303  14.531  21.023  0.00  0.00    +0.000 OA
ENDBRANCH  17  26
ENDBRANCH  15  22
ENDBRANCH  13  16
ENDBRANCH  11  14
ENDBRANCH   1  12
BRANCH   5  27
ATOM     27  C   UNL     1       6.338   5.830  19.085  0.00  0.00    +0.000 C 
ATOM     28  C   UNL     1       7.055   6.571  17.931  0.00  0.00    +0.000 C 
BRANCH  27  29
ATOM     29  O   UNL     1       7.295   5.504  20.070  0.00  0.00    +0.000 OA
ATOM     30  H   UNL     1       7.226   4.549  20.250  0.00  0.00    +0.000 HD
ENDBRANCH  27  29
ENDBRANCH   5  27
BRANCH   9  31
ATOM     31  O   UNL     1       2.394   3.663  20.674  0.00  0.00    +0.000 OA
ATOM     32  H   UNL     1       2.797   2.801  20.902  0.00  0.00    +0.000 HD
ENDBRANCH   9  31
BRANCH  10  33
ATOM     33  O   UNL     1       5.348   4.570  16.133  0.00  0.00    +0.000 OA
BRANCH  33  34
ATOM     34  C   UNL     1       6.316   4.328  15.232  0.00  0.00    +0.000 C 
ATOM     35  C   UNL     1       5.716   3.962  13.895  0.00  0.00    +0.000 C 
ATOM     36  O   UNL     1       7.512   4.415  15.464  0.00  0.00    +0.000 OA
ENDBRANCH  33  34
ENDBRANCH  10  33
TORSDOF 10
ENDMDL
MODEL 4
REMARK VINA RESULT:      -7.9      6.402     12.025
REMARK  Name = 
REMARK  16 active torsions:
REMARK  status: ('A' for Active; 'I' for Inactive)
REMARK    1  A    between atoms: C_1  and  O_2
REMARK    2  A    between atoms: O_2  and  C_3
REMARK    3  A    between atoms: C_8  and  C_9
REMARK    4  A    between atoms: C_10  and  C_11
REMARK    5  A    between atoms: C_12  and  C_13
REMARK    6  A    between atoms: C_14  and  C_15
REMARK    7  A    between atoms: C_17  and  C_18
REMARK    8  A    between atoms: C_19  and  C_20
REMARK    9  A    between atoms: C_20  and  C_21
REMARK   10  A    between atoms: C_20  and  O_22
REMARK   11  A    between atoms: C_24  and  C_25
REMARK   12  A    between atoms: C_26  and  O_27
REMARK   13  A    between atoms: C_28  and  O_29
REMARK   14  A    between atoms: O_29  and  C_30
REMARK   15  A    between atoms: C_30  and  C_31
REMARK   16  A    between atoms: C_33  and  C_34
REMARK                            x       y       z     vdW  Elec       q    Type
REMARK                         _______ _______ _______ _____ _____    ______ ____
ROOT
ATOM      1  C   UNL     1       9.958  13.067  18.551  0.00  0.00    +0.000 C 
ATOM      2  O   UNL     1       8.665  13.717  18.777  0.00  0.00    +0.000 OA
ATOM      3  C   UNL     1       9.062  14.832  19.443  0.00  0.00    +0.000 C 
ATOM      4  C   UNL     1       9.811  15.657  18.168  0.00  0.00    +0.000 C 
ATOM      5  C   UNL     1       9.046  14.314  21.238  0.00  0.00    +0.000 C 
ATOM      6  O   UNL     1      10.362  14.561  21.735  0.00  0.00    +0.000 OA
ATOM      7  C   UNL     1      10.701  15.070  20.469  0.00  0.00    +0.000 C 
ATOM      8  C   UNL     1      12.009  15.841  20.396  0.00  0.00    +0.000 C 
ATOM      9  C   UNL     1      10.976  13.466  19.699  0.00  0.00    +0.000 C 
ATOM     10  C   UNL     1       9.170  16.085  20.165  0.00  0.00    +0.000 C 
ENDROOT
BRANCH   1  12
ATOM     11  C   UNL     1       9.317  10.767  19.125  0.00  0.00    +0.000 C 
ATOM     12  C   UNL     1       9.787  11.625  18.219  0.00  0.00    +0.000 C 
BRANCH  11  14
ATOM     13  C   UNL     1       8.051   9.283  17.741  0.00  0.00    +0.000 C 
ATOM     14  C   UNL     1       8.838   9.465  18.809  0.00  0.00    +0.000 C 
BRANCH  13  16
ATOM     15  C   UNL     1       6.337   7.560  17.389  0.00  0.00    +0.000 C 
ATOM     16  C   UNL     1       7.613   7.970  17.397  0.00  0.00    +0.000 C 
BRANCH  15  22
ATOM     17  C   UNL     1       5.090   3.990  17.226  0.00  0.00    +0.000 A 
ATOM     18  C   UNL     1       5.575   3.659  16.022  0.00  0.00    +0.000 A 
ATOM     19  C   UNL     1       6.365   4.615  15.234  0.00  0.00    +0.000 A 
ATOM     20  O   UNL     1       6.847   4.282  14.163  0.00  0.00    +0.000 OA
ATOM     21  O   UNL     1       6.525   5.834  15.769  0.00  0.00    +0.000 OA
ATOM     22  C   UNL     1       6.008   6.195  17.041  0.00  0.00    +0.000 A 
ATOM     23  C   UNL     1       5.297   5.321  17.780  0.00  0.00    +0.000 A 
ATOM     24  C   UNL     1       4.738   5.621  19.148  0.00  0.00    +0.000 C 
BRANCH  17  26
ATOM     25  C   UNL     1       3.094   2.780  17.623  0.00  0.00    +0.000 C 
ATOM     26  O   UNL     1       4.405   3.129  18.056  0.00  0.00    +0.000 OA
ENDBRANCH  17  26
ENDBRANCH  15  22
ENDBRANCH  13  16
ENDBRANCH  11  14
ENDBRANCH   1  12
BRANCH   5  27
ATOM     27  C   UNL     1       8.297  13.110  21.843  0.00  0.00    +0.000 C 
ATOM     28  C   UNL     1       7.253  13.624  22.863  0.00  0.00    +0.000 C 
BRANCH  27  29
ATOM     29  O   UNL     1       9.123  12.163  22.485  0.00  0.00    +0.000 OA
ATOM     30  H   UNL     1       9.984  12.159  22.029  0.00  0.00    +0.000 HD
ENDBRANCH  27  29
ENDBRANCH   5  27
BRANCH   9  31
ATOM     31  O   UNL     1      12.332  13.251  19.299  0.00  0.00    +0.000 OA
ATOM     32  H   UNL     1      12.360  13.432  18.338  0.00  0.00    +0.000 HD
ENDBRANCH   9  31
BRANCH  10  33
ATOM     33  O   UNL     1       7.675  16.003  20.254  0.00  0.00    +0.000 OA
BRANCH  33  34
ATOM     34  C   UNL     1       6.817  17.008  20.013  0.00  0.00    +0.000 C 
ATOM     35  C   UNL     1       6.204  17.503  21.301  0.00  0.00    +0.000 C 
ATOM     36  O   UNL     1       6.585  17.467  18.904  0.00  0.00    +0.000 OA
ENDBRANCH  33  34
ENDBRANCH  10  33
TORSDOF 10
ENDMDL
MODEL 5
REMARK VINA RESULT:      -7.8      6.914     12.014
REMARK  Name = 
REMARK  16 active torsions:
REMARK  status: ('A' for Active; 'I' for Inactive)
REMARK    1  A    between atoms: C_1  and  O_2
REMARK    2  A    between atoms: O_2  and  C_3
REMARK    3  A    between atoms: C_8  and  C_9
REMARK    4  A    between atoms: C_10  and  C_11
REMARK    5  A    between atoms: C_12  and  C_13
REMARK    6  A    between atoms: C_14  and  C_15
REMARK    7  A    between atoms: C_17  and  C_18
REMARK    8  A    between atoms: C_19  and  C_20
REMARK    9  A    between atoms: C_20  and  C_21
REMARK   10  A    between atoms: C_20  and  O_22
REMARK   11  A    between atoms: C_24  and  C_25
REMARK   12  A    between atoms: C_26  and  O_27
REMARK   13  A    between atoms: C_28  and  O_29
REMARK   14  A    between atoms: O_29  and  C_30
REMARK   15  A    between atoms: C_30  and  C_31
REMARK   16  A    between atoms: C_33  and  C_34
REMARK                            x       y       z     vdW  Elec       q    Type
REMARK                         _______ _______ _______ _____ _____    ______ ____
ROOT
ATOM      1  C   UNL     1       9.407  12.852  19.601  0.00  0.00    +0.000 C 
ATOM      2  O   UNL     1       9.894  13.817  18.611  0.00  0.00    +0.000 OA
ATOM      3  C   UNL     1       9.810  14.968  19.328  0.00  0.00    +0.000 C 
ATOM      4  C   UNL     1      11.078  14.700  20.419  0.00  0.00    +0.000 C 
ATOM      5  C   UNL     1       8.080  15.585  18.989  0.00  0.00    +0.000 C 
ATOM      6  O   UNL     1       7.451  15.728  20.263  0.00  0.00    +0.000 OA
ATOM      7  C   UNL     1       8.659  15.321  20.859  0.00  0.00    +0.000 C 
ATOM      8  C   UNL     1       8.766  15.552  22.357  0.00  0.00    +0.000 C 
ATOM      9  C   UNL     1       8.402  13.558  20.602  0.00  0.00    +0.000 C 
ATOM     10  C   UNL     1       9.828  16.331  19.820  0.00  0.00    +0.000 C 
ENDROOT
BRANCH   1  12
ATOM     11  C   UNL     1       9.504  10.411  19.347  0.00  0.00    +0.000 C 
ATOM     12  C   UNL     1       8.991  11.577  18.952  0.00  0.00    +0.000 C 
BRANCH  11  14
ATOM     13  C   UNL     1       8.200   9.019  17.904  0.00  0.00    +0.000 C 
ATOM     14  C   UNL     1       8.948   9.146  19.008  0.00  0.00    +0.000 C 
BRANCH  13  16
ATOM     15  C   UNL     1       6.426   7.496  17.152  0.00  0.00    +0.000 C 
ATOM     16  C   UNL     1       7.687   7.739  17.538  0.00  0.00    +0.000 C 
BRANCH  15  22
ATOM     17  C   UNL     1       4.988   3.996  17.054  0.00  0.00    +0.000 A 
ATOM     18  C   UNL     1       5.389   3.644  15.826  0.00  0.00    +0.000 A 
ATOM     19  C   UNL     1       6.183   4.562  14.996  0.00  0.00    +0.000 A 
ATOM     20  O   UNL     1       6.588   4.209  13.900  0.00  0.00    +0.000 OA
ATOM     21  O   UNL     1       6.435   5.769  15.523  0.00  0.00    +0.000 OA
ATOM     22  C   UNL     1       6.008   6.151  16.821  0.00  0.00    +0.000 A 
ATOM     23  C   UNL     1       5.294   5.312  17.597  0.00  0.00    +0.000 A 
ATOM     24  C   UNL     1       4.827   5.636  18.994  0.00  0.00    +0.000 C 
BRANCH  17  26
ATOM     25  C   UNL     1       2.974   2.845  17.529  0.00  0.00    +0.000 C 
ATOM     26  O   UNL     1       4.306   3.169  17.920  0.00  0.00    +0.000 OA
ENDBRANCH  17  26
ENDBRANCH  15  22
ENDBRANCH  13  16
ENDBRANCH  11  14
ENDBRANCH   1  12
BRANCH   5  27
ATOM     27  C   UNL     1       7.170  15.175  17.815  0.00  0.00    +0.000 C 
ATOM     28  C   UNL     1       5.748  14.886  18.353  0.00  0.00    +0.000 C 
BRANCH  27  29
ATOM     29  O   UNL     1       7.612  14.047  17.091  0.00  0.00    +0.000 OA
ATOM     30  H   UNL     1       6.920  13.816  16.445  0.00  0.00    +0.000 HD
ENDBRANCH  27  29
ENDBRANCH   5  27
BRANCH   9  31
ATOM     31  O   UNL     1       8.263  12.819  21.818  0.00  0.00    +0.000 OA
ATOM     32  H   UNL     1       7.306  12.812  22.020  0.00  0.00    +0.000 HD
ENDBRANCH   9  31
BRANCH  10  33
ATOM     33  O   UNL     1      10.107  16.697  18.393  0.00  0.00    +0.000 OA
BRANCH  33  34
ATOM     34  C   UNL     1      11.216  17.306  17.940  0.00  0.00    +0.000 C 
ATOM     35  C   UNL     1      11.952  16.414  16.968  0.00  0.00    +0.000 C 
ATOM     36  O   UNL     1      11.563  18.433  18.258  0.00  0.00    +0.000 OA
ENDBRANCH  33  34
ENDBRANCH  10  33
TORSDOF 10
ENDMDL
MODEL 6
REMARK VINA RESULT:      -7.8      1.072      1.901
REMARK  Name = 
REMARK  16 active torsions:
REMARK  status: ('A' for Active; 'I' for Inactive)
REMARK    1  A    between atoms: C_1  and  O_2
REMARK    2  A    between atoms: O_2  and  C_3
REMARK    3  A    between atoms: C_8  and  C_9
REMARK    4  A    between atoms: C_10  and  C_11
REMARK    5  A    between atoms: C_12  and  C_13
REMARK    6  A    between atoms: C_14  and  C_15
REMARK    7  A    between atoms: C_17  and  C_18
REMARK    8  A    between atoms: C_19  and  C_20
REMARK    9  A    between atoms: C_20  and  C_21
REMARK   10  A    between atoms: C_20  and  O_22
REMARK   11  A    between atoms: C_24  and  C_25
REMARK   12  A    between atoms: C_26  and  O_27
REMARK   13  A    between atoms: C_28  and  O_29
REMARK   14  A    between atoms: O_29  and  C_30
REMARK   15  A    between atoms: C_30  and  C_31
REMARK   16  A    between atoms: C_33  and  C_34
REMARK                            x       y       z     vdW  Elec       q    Type
REMARK                         _______ _______ _______ _____ _____    ______ ____
ROOT
ATOM      1  C   UNL     1       2.705   5.566  18.938  0.00  0.00    +0.000 C 
ATOM      2  O   UNL     1       3.515   5.891  17.761  0.00  0.00    +0.000 OA
ATOM      3  C   UNL     1       4.012   4.663  17.458  0.00  0.00    +0.000 C 
ATOM      4  C   UNL     1       2.595   3.930  16.892  0.00  0.00    +0.000 C 
ATOM      5  C   UNL     1       5.595   4.563  18.444  0.00  0.00    +0.000 C 
ATOM      6  O   UNL     1       5.483   3.395  19.259  0.00  0.00    +0.000 OA
ATOM      7  C   UNL     1       4.231   3.150  18.665  0.00  0.00    +0.000 C 
ATOM      8  C   UNL     1       3.645   1.769  18.906  0.00  0.00    +0.000 C 
ATOM      9  C   UNL     1       3.315   4.312  19.691  0.00  0.00    +0.000 C 
ATOM     10  C   UNL     1       4.694   3.513  16.898  0.00  0.00    +0.000 C 
ENDROOT
BRANCH   1  12
ATOM     11  C   UNL     1       2.105   7.941  19.120  0.00  0.00    +0.000 C 
ATOM     12  C   UNL     1       2.387   6.788  19.728  0.00  0.00    +0.000 C 
BRANCH  11  14
ATOM     13  C   UNL     1       0.502   9.715  19.170  0.00  0.00    +0.000 C 
ATOM     14  C   UNL     1       1.499   9.052  19.769  0.00  0.00    +0.000 C 
BRANCH  13  16
ATOM     15  C   UNL     1       0.404  11.515  20.837  0.00  0.00    +0.000 C 
ATOM     16  C   UNL     1      -0.138  10.797  19.844  0.00  0.00    +0.000 C 
BRANCH  15  22
ATOM     17  C   UNL     1      -1.841  13.688  22.973  0.00  0.00    +0.000 A 
ATOM     18  C   UNL     1      -1.593  14.870  22.394  0.00  0.00    +0.000 A 
ATOM     19  C   UNL     1      -0.683  14.975  21.244  0.00  0.00    +0.000 A 
ATOM     20  O   UNL     1      -0.509  16.049  20.691  0.00  0.00    +0.000 OA
ATOM     21  O   UNL     1      -0.094  13.837  20.850  0.00  0.00    +0.000 OA
ATOM     22  C   UNL     1      -0.346  12.582  21.464  0.00  0.00    +0.000 A 
ATOM     23  C   UNL     1      -1.190  12.471  22.507  0.00  0.00    +0.000 A 
ATOM     24  C   UNL     1      -1.529  11.172  23.194  0.00  0.00    +0.000 C 
BRANCH  17  26
ATOM     25  C   UNL     1      -3.670  14.552  24.203  0.00  0.00    +0.000 C 
ATOM     26  O   UNL     1      -2.735  13.496  24.005  0.00  0.00    +0.000 OA
ENDBRANCH  17  26
ENDBRANCH  15  22
ENDBRANCH  13  16
ENDBRANCH  11  14
ENDBRANCH   1  12
BRANCH   5  27
ATOM     27  C   UNL     1       6.386   5.744  19.040  0.00  0.00    +0.000 C 
ATOM     28  C   UNL     1       7.219   6.412  17.920  0.00  0.00    +0.000 C 
BRANCH  27  29
ATOM     29  O   UNL     1       7.254   5.399  20.098  0.00  0.00    +0.000 OA
ATOM     30  H   UNL     1       6.716   5.292  20.904  0.00  0.00    +0.000 HD
ENDBRANCH  27  29
ENDBRANCH   5  27
BRANCH   9  31
ATOM     31  O   UNL     1       2.350   3.686  20.539  0.00  0.00    +0.000 OA
ATOM     32  H   UNL     1       1.556   3.547  19.985  0.00  0.00    +0.000 HD
ENDBRANCH   9  31
BRANCH  10  33
ATOM     33  O   UNL     1       5.422   4.524  16.063  0.00  0.00    +0.000 OA
BRANCH  33  34
ATOM     34  C   UNL     1       5.754   4.382  14.769  0.00  0.00    +0.000 C 
ATOM     35  C   UNL     1       7.162   4.873  14.526  0.00  0.00    +0.000 C 
ATOM     36  O   UNL     1       5.022   3.902  13.917  0.00  0.00    +0.000 OA
ENDBRANCH  33  34
ENDBRANCH  10  33
TORSDOF 10
ENDMDL
MODEL 7
REMARK VINA RESULT:      -7.8      1.366      2.065
REMARK  Name = 
REMARK  16 active torsions:
REMARK  status: ('A' for Active; 'I' for Inactive)
REMARK    1  A    between atoms: C_1  and  O_2
REMARK    2  A    between atoms: O_2  and  C_3
REMARK    3  A    between atoms: C_8  and  C_9
REMARK    4  A    between atoms: C_10  and  C_11
REMARK    5  A    between atoms: C_12  and  C_13
REMARK    6  A    between atoms: C_14  and  C_15
REMARK    7  A    between atoms: C_17  and  C_18
REMARK    8  A    between atoms: C_19  and  C_20
REMARK    9  A    between atoms: C_20  and  C_21
REMARK   10  A    between atoms: C_20  and  O_22
REMARK   11  A    between atoms: C_24  and  C_25
REMARK   12  A    between atoms: C_26  and  O_27
REMARK   13  A    between atoms: C_28  and  O_29
REMARK   14  A    between atoms: O_29  and  C_30
REMARK   15  A    between atoms: C_30  and  C_31
REMARK   16  A    between atoms: C_33  and  C_34
REMARK                            x       y       z     vdW  Elec       q    Type
REMARK                         _______ _______ _______ _____ _____    ______ ____
ROOT
ATOM      1  C   UNL     1       3.458   6.137  17.980  0.00  0.00    +0.000 C 
ATOM      2  O   UNL     1       4.632   6.242  17.109  0.00  0.00    +0.000 OA
ATOM      3  C   UNL     1       5.025   4.942  17.067  0.00  0.00    +0.000 C 
ATOM      4  C   UNL     1       3.768   4.310  16.126  0.00  0.00    +0.000 C 
ATOM      5  C   UNL     1       6.192   4.779  18.517  0.00  0.00    +0.000 C 
ATOM      6  O   UNL     1       5.672   3.726  19.329  0.00  0.00    +0.000 OA
ATOM      7  C   UNL     1       4.647   3.555  18.382  0.00  0.00    +0.000 C 
ATOM      8  C   UNL     1       3.832   2.280  18.514  0.00  0.00    +0.000 C 
ATOM      9  C   UNL     1       3.626   4.913  18.974  0.00  0.00    +0.000 C 
ATOM     10  C   UNL     1       5.683   3.672  16.838  0.00  0.00    +0.000 C 
ENDROOT
BRANCH   1  12
ATOM     11  C   UNL     1       2.494   8.386  17.775  0.00  0.00    +0.000 C 
ATOM     12  C   UNL     1       3.081   7.464  18.540  0.00  0.00    +0.000 C 
BRANCH  11  14
ATOM     13  C   UNL     1       0.936   9.408  19.274  0.00  0.00    +0.000 C 
ATOM     14  C   UNL     1       1.832   9.536  18.288  0.00  0.00    +0.000 C 
BRANCH  13  16
ATOM     15  C   UNL     1       0.705  11.205  20.932  0.00  0.00    +0.000 C 
ATOM     16  C   UNL     1       0.310  10.567  19.821  0.00  0.00    +0.000 C 
BRANCH  15  22
ATOM     17  C   UNL     1      -1.546  13.683  22.698  0.00  0.00    +0.000 A 
ATOM     18  C   UNL     1      -1.180  14.794  22.045  0.00  0.00    +0.000 A 
ATOM     19  C   UNL     1      -0.182  14.744  20.967  0.00  0.00    +0.000 A 
ATOM     20  O   UNL     1       0.102  15.754  20.344  0.00  0.00    +0.000 OA
ATOM     21  O   UNL     1       0.360  13.544  20.716  0.00  0.00    +0.000 OA
ATOM     22  C   UNL     1      -0.019  12.364  21.408  0.00  0.00    +0.000 A 
ATOM     23  C   UNL     1      -0.944  12.394  22.387  0.00  0.00    +0.000 A 
ATOM     24  C   UNL     1      -1.416  11.181  23.149  0.00  0.00    +0.000 C 
BRANCH  17  26
ATOM     25  C   UNL     1      -2.450  14.654  24.659  0.00  0.00    +0.000 C 
ATOM     26  O   UNL     1      -2.525  13.634  23.668  0.00  0.00    +0.000 OA
ENDBRANCH  17  26
ENDBRANCH  15  22
ENDBRANCH  13  16
ENDBRANCH  11  14
ENDBRANCH   1  12
BRANCH   5  27
ATOM     27  C   UNL     1       6.912   5.925  19.254  0.00  0.00    +0.000 C 
ATOM     28  C   UNL     1       7.764   6.724  18.238  0.00  0.00    +0.000 C 
BRANCH  27  29
ATOM     29  O   UNL     1       7.749   5.513  20.312  0.00  0.00    +0.000 OA
ATOM     30  H   UNL     1       8.220   4.710  20.026  0.00  0.00    +0.000 HD
ENDBRANCH  27  29
ENDBRANCH   5  27
BRANCH   9  31
ATOM     31  O   UNL     1       2.368   4.491  19.506  0.00  0.00    +0.000 OA
ATOM     32  H   UNL     1       2.570   4.046  20.353  0.00  0.00    +0.000 HD
ENDBRANCH   9  31
BRANCH  10  33
ATOM     33  O   UNL     1       6.766   4.501  16.216  0.00  0.00    +0.000 OA
BRANCH  33  34
ATOM     34  C   UNL     1       6.986   4.646  14.898  0.00  0.00    +0.000 C 
ATOM     35  C   UNL     1       6.194   3.629  14.112  0.00  0.00    +0.000 C 
ATOM     36  O   UNL     1       7.711   5.500  14.410  0.00  0.00    +0.000 OA
ENDBRANCH  33  34
ENDBRANCH  10  33
TORSDOF 10
ENDMDL
MODEL 8
REMARK VINA RESULT:      -7.6      1.406      1.986
REMARK  Name = 
REMARK  16 active torsions:
REMARK  status: ('A' for Active; 'I' for Inactive)
REMARK    1  A    between atoms: C_1  and  O_2
REMARK    2  A    between atoms: O_2  and  C_3
REMARK    3  A    between atoms: C_8  and  C_9
REMARK    4  A    between atoms: C_10  and  C_11
REMARK    5  A    between atoms: C_12  and  C_13
REMARK    6  A    between atoms: C_14  and  C_15
REMARK    7  A    between atoms: C_17  and  C_18
REMARK    8  A    between atoms: C_19  and  C_20
REMARK    9  A    between atoms: C_20  and  C_21
REMARK   10  A    between atoms: C_20  and  O_22
REMARK   11  A    between atoms: C_24  and  C_25
REMARK   12  A    between atoms: C_26  and  O_27
REMARK   13  A    between atoms: C_28  and  O_29
REMARK   14  A    between atoms: O_29  and  C_30
REMARK   15  A    between atoms: C_30  and  C_31
REMARK   16  A    between atoms: C_33  and  C_34
REMARK                            x       y       z     vdW  Elec       q    Type
REMARK                         _______ _______ _______ _____ _____    ______ ____
ROOT
ATOM      1  C   UNL     1       2.847   5.727  18.618  0.00  0.00    +0.000 C 
ATOM      2  O   UNL     1       3.776   5.899  17.498  0.00  0.00    +0.000 OA
ATOM      3  C   UNL     1       4.244   4.630  17.369  0.00  0.00    +0.000 C 
ATOM      4  C   UNL     1       2.854   3.890  16.746  0.00  0.00    +0.000 C 
ATOM      5  C   UNL     1       5.724   4.579  18.509  0.00  0.00    +0.000 C 
ATOM      6  O   UNL     1       5.485   3.507  19.422  0.00  0.00    +0.000 OA
ATOM      7  C   UNL     1       4.285   3.245  18.739  0.00  0.00    +0.000 C 
ATOM      8  C   UNL     1       3.618   1.917  19.060  0.00  0.00    +0.000 C 
ATOM      9  C   UNL     1       3.330   4.538  19.549  0.00  0.00    +0.000 C 
ATOM     10  C   UNL     1       4.924   3.405  16.997  0.00  0.00    +0.000 C 
ENDROOT
BRANCH   1  12
ATOM     11  C   UNL     1       2.168   8.084  18.498  0.00  0.00    +0.000 C 
ATOM     12  C   UNL     1       2.512   7.035  19.246  0.00  0.00    +0.000 C 
BRANCH  11  14
ATOM     13  C   UNL     1       0.839   9.191  20.151  0.00  0.00    +0.000 C 
ATOM     14  C   UNL     1       1.544   9.254  19.014  0.00  0.00    +0.000 C 
BRANCH  13  16
ATOM     15  C   UNL     1       0.069  11.519  20.020  0.00  0.00    +0.000 C 
ATOM     16  C   UNL     1       0.258  10.375  20.692  0.00  0.00    +0.000 C 
BRANCH  15  22
ATOM     17  C   UNL     1      -2.164  14.263  21.365  0.00  0.00    +0.000 A 
ATOM     18  C   UNL     1      -1.257  14.926  22.095  0.00  0.00    +0.000 A 
ATOM     19  C   UNL     1       0.146  14.490  22.138  0.00  0.00    +0.000 A 
ATOM     20  O   UNL     1       0.973  15.134  22.763  0.00  0.00    +0.000 OA
ATOM     21  O   UNL     1       0.442  13.379  21.448  0.00  0.00    +0.000 OA
ATOM     22  C   UNL     1      -0.515  12.668  20.677  0.00  0.00    +0.000 A 
ATOM     23  C   UNL     1      -1.800  13.067  20.618  0.00  0.00    +0.000 A 
ATOM     24  C   UNL     1      -2.867  12.381  19.802  0.00  0.00    +0.000 C 
BRANCH  17  26
ATOM     25  C   UNL     1      -3.720  16.048  21.338  0.00  0.00    +0.000 C 
ATOM     26  O   UNL     1      -3.479  14.649  21.214  0.00  0.00    +0.000 OA
ENDBRANCH  17  26
ENDBRANCH  15  22
ENDBRANCH  13  16
ENDBRANCH  11  14
ENDBRANCH   1  12
BRANCH   5  27
ATOM     27  C   UNL     1       6.508   5.788  19.056  0.00  0.00    +0.000 C 
ATOM     28  C   UNL     1       7.333   6.418  17.908  0.00  0.00    +0.000 C 
BRANCH  27  29
ATOM     29  O   UNL     1       7.381   5.490  20.123  0.00  0.00    +0.000 OA
ATOM     30  H   UNL     1       8.295   5.595  19.800  0.00  0.00    +0.000 HD
ENDBRANCH  27  29
ENDBRANCH   5  27
BRANCH   9  31
ATOM     31  O   UNL     1       2.264   4.037  20.359  0.00  0.00    +0.000 OA
ATOM     32  H   UNL     1       2.683   3.696  21.174  0.00  0.00    +0.000 HD
ENDBRANCH   9  31
BRANCH  10  33
ATOM     33  O   UNL     1       5.769   4.297  16.138  0.00  0.00    +0.000 OA
BRANCH  33  34
ATOM     34  C   UNL     1       5.898   4.211  14.803  0.00  0.00    +0.000 C 
ATOM     35  C   UNL     1       7.179   4.872  14.351  0.00  0.00    +0.000 C 
ATOM     36  O   UNL     1       5.097   3.657  14.066  0.00  0.00    +0.000 OA
ENDBRANCH  33  34
ENDBRANCH  10  33
TORSDOF 10
ENDMDL
MODEL 9
REMARK VINA RESULT:      -7.5      1.216      1.268
REMARK  Name = 
REMARK  16 active torsions:
REMARK  status: ('A' for Active; 'I' for Inactive)
REMARK    1  A    between atoms: C_1  and  O_2
REMARK    2  A    between atoms: O_2  and  C_3
REMARK    3  A    between atoms: C_8  and  C_9
REMARK    4  A    between atoms: C_10  and  C_11
REMARK    5  A    between atoms: C_12  and  C_13
REMARK    6  A    between atoms: C_14  and  C_15
REMARK    7  A    between atoms: C_17  and  C_18
REMARK    8  A    between atoms: C_19  and  C_20
REMARK    9  A    between atoms: C_20  and  C_21
REMARK   10  A    between atoms: C_20  and  O_22
REMARK   11  A    between atoms: C_24  and  C_25
REMARK   12  A    between atoms: C_26  and  O_27
REMARK   13  A    between atoms: C_28  and  O_29
REMARK   14  A    between atoms: O_29  and  C_30
REMARK   15  A    between atoms: C_30  and  C_31
REMARK   16  A    between atoms: C_33  and  C_34
REMARK                            x       y       z     vdW  Elec       q    Type
REMARK                         _______ _______ _______ _____ _____    ______ ____
ROOT
ATOM      1  C   UNL     1       3.030   5.769  18.475  0.00  0.00    +0.000 C 
ATOM      2  O   UNL     1       4.051   5.937  17.437  0.00  0.00    +0.000 OA
ATOM      3  C   UNL     1       4.527   4.667  17.352  0.00  0.00    +0.000 C 
ATOM      4  C   UNL     1       3.194   3.928  16.615  0.00  0.00    +0.000 C 
ATOM      5  C   UNL     1       5.905   4.618  18.613  0.00  0.00    +0.000 C 
ATOM      6  O   UNL     1       5.588   3.549  19.505  0.00  0.00    +0.000 OA
ATOM      7  C   UNL     1       4.449   3.286  18.723  0.00  0.00    +0.000 C 
ATOM      8  C   UNL     1       3.756   1.960  18.990  0.00  0.00    +0.000 C 
ATOM      9  C   UNL     1       3.431   4.582  19.446  0.00  0.00    +0.000 C 
ATOM     10  C   UNL     1       5.234   3.441  17.041  0.00  0.00    +0.000 C 
ENDROOT
BRANCH   1  12
ATOM     11  C   UNL     1       2.240   8.087  18.297  0.00  0.00    +0.000 C 
ATOM     12  C   UNL     1       2.645   7.079  19.070  0.00  0.00    +0.000 C 
BRANCH  11  14
ATOM     13  C   UNL     1       1.015   9.228  20.006  0.00  0.00    +0.000 C 
ATOM     14  C   UNL     1       1.572   9.243  18.787  0.00  0.00    +0.000 C 
BRANCH  13  16
ATOM     15  C   UNL     1      -0.848  10.815  20.206  0.00  0.00    +0.000 C 
ATOM     16  C   UNL     1       0.390  10.403  20.516  0.00  0.00    +0.000 C 
BRANCH  15  22
ATOM     17  C   UNL     1      -1.890  14.366  20.997  0.00  0.00    +0.000 A 
ATOM     18  C   UNL     1      -2.535  14.139  22.149  0.00  0.00    +0.000 A 
ATOM     19  C   UNL     1      -2.617  12.786  22.717  0.00  0.00    +0.000 A 
ATOM     20  O   UNL     1      -3.160  12.601  23.794  0.00  0.00    +0.000 OA
ATOM     21  O   UNL     1      -2.054  11.806  21.995  0.00  0.00    +0.000 OA
ATOM     22  C   UNL     1      -1.376  12.038  20.770  0.00  0.00    +0.000 A 
ATOM     23  C   UNL     1      -1.280  13.276  20.249  0.00  0.00    +0.000 A 
ATOM     24  C   UNL     1      -0.554  13.606  18.968  0.00  0.00    +0.000 C 
BRANCH  17  26
ATOM     25  C   UNL     1      -0.915  16.513  21.208  0.00  0.00    +0.000 C 
ATOM     26  O   UNL     1      -1.706  15.613  20.438  0.00  0.00    +0.000 OA
ENDBRANCH  17  26
ENDBRANCH  15  22
ENDBRANCH  13  16
ENDBRANCH  11  14
ENDBRANCH   1  12
BRANCH   5  27
ATOM     27  C   UNL     1       6.641   5.827  19.221  0.00  0.00    +0.000 C 
ATOM     28  C   UNL     1       7.396   6.578  18.098  0.00  0.00    +0.000 C 
BRANCH  27  29
ATOM     29  O   UNL     1       7.561   5.506  20.241  0.00  0.00    +0.000 OA
ATOM     30  H   UNL     1       7.119   5.645  21.098  0.00  0.00    +0.000 HD
ENDBRANCH  27  29
ENDBRANCH   5  27
BRANCH   9  31
ATOM     31  O   UNL     1       2.300   4.085  20.165  0.00  0.00    +0.000 OA
ATOM     32  H   UNL     1       1.895   4.862  20.599  0.00  0.00    +0.000 HD
ENDBRANCH   9  31
BRANCH  10  33
ATOM     33  O   UNL     1       6.150   4.330  16.255  0.00  0.00    +0.000 OA
BRANCH  33  34
ATOM     34  C   UNL     1       5.942   4.760  14.999  0.00  0.00    +0.000 C 
ATOM     35  C   UNL     1       5.900   3.595  14.039  0.00  0.00    +0.000 C 
ATOM     36  O   UNL     1       5.788   5.932  14.688  0.00  0.00    +0.000 OA
ENDBRANCH  33  34
ENDBRANCH  10  33
TORSDOF 10
ENDMDL
