MODEL 1
REMARK VINA RESULT:      -8.1      0.000      0.000
REMARK  Name = 
REMARK  5 active torsions:
REMARK  status: ('A' for Active; 'I' for Inactive)
REMARK    1  A    between atoms: C_1  and  C_2
REMARK    2  A    between atoms: C_7  and  C_8
REMARK    3  A    between atoms: C_9  and  C_10
REMARK    4  A    between atoms: N_12  and  C_13
REMARK    5  A    between atoms: N_26  and  C_27
REMARK                            x       y       z     vdW  Elec       q    Type
REMARK                         _______ _______ _______ _____ _____    ______ ____
ROOT
ATOM      1  C   UNL     1       2.385   3.934  19.349  0.00  0.00    +0.000 C 
ATOM      2  C   UNL     1       3.522   3.407  18.876  0.00  0.00    +0.000 C 
ATOM      3  C   UNL     1       3.300   1.954  18.714  0.00  0.00    +0.000 C 
ATOM      4  O   UNL     1       4.094   1.136  18.284  0.00  0.00    +0.000 OA
ATOM      5  N   UNL     1       2.045   1.692  19.129  0.00  0.00    +0.000 N 
ATOM      6  C   UNL     1       1.430   2.821  19.538  0.00  0.00    +0.000 C 
ATOM      7  O   UNL     1       0.297   2.896  19.980  0.00  0.00    +0.000 OA
ATOM      8  H   UNL     1       1.623   0.780  19.135  0.00  0.00    +0.000 HD
ENDROOT
BRANCH   1  15
ATOM      9  C   UNL     1       1.554  10.117  19.710  0.00  0.00    +0.000 C 
ATOM     10  C   UNL     1       1.975   8.864  18.996  0.00  0.00    +0.000 A 
ATOM     11  C   UNL     1       2.524   8.978  17.703  0.00  0.00    +0.000 A 
ATOM     12  C   UNL     1       2.939   7.869  16.974  0.00  0.00    +0.000 A 
ATOM     13  C   UNL     1       2.827   6.591  17.516  0.00  0.00    +0.000 A 
ATOM     14  C   UNL     1       2.295   6.424  18.812  0.00  0.00    +0.000 A 
ATOM     15  C   UNL     1       2.080   5.286  19.637  0.00  0.00    +0.000 A 
ATOM     16  C   UNL     1       1.505   5.714  20.808  0.00  0.00    +0.000 A 
ATOM     17  N   UNL     1       1.393   7.079  20.745  0.00  0.00    +0.000 N 
ATOM     18  C   UNL     1       0.863   7.876  21.829  0.00  0.00    +0.000 C 
ATOM     19  C   UNL     1       1.869   7.555  19.532  0.00  0.00    +0.000 A 
ENDBRANCH   1  15
BRANCH   2  20
ATOM     20  C   UNL     1       4.731   4.061  18.539  0.00  0.00    +0.000 A 
ATOM     21  C   UNL     1       5.575   4.657  19.448  0.00  0.00    +0.000 A 
ATOM     22  N   UNL     1       6.637   5.172  18.752  0.00  0.00    +0.000 N 
ATOM     23  C   UNL     1       7.757   5.860  19.355  0.00  0.00    +0.000 C 
ATOM     24  C   UNL     1       6.481   4.945  17.399  0.00  0.00    +0.000 A 
ATOM     25  C   UNL     1       7.293   5.290  16.306  0.00  0.00    +0.000 A 
ATOM     26  C   UNL     1       6.857   4.933  15.026  0.00  0.00    +0.000 A 
ATOM     27  C   UNL     1       5.656   4.255  14.839  0.00  0.00    +0.000 A 
ATOM     28  C   UNL     1       4.860   3.906  15.935  0.00  0.00    +0.000 A 
ATOM     29  C   UNL     1       5.277   4.253  17.238  0.00  0.00    +0.000 A 
ENDBRANCH   2  20
TORSDOF 2
ENDMDL
MODEL 2
REMARK VINA RESULT:      -7.8      1.086      2.237
REMARK  Name = 
REMARK  5 active torsions:
REMARK  status: ('A' for Active; 'I' for Inactive)
REMARK    1  A    between atoms: C_1  and  C_2
REMARK    2  A    between atoms: C_7  and  C_8
REMARK    3  A    between atoms: C_9  and  C_10
REMARK    4  A    between atoms: N_12  and  C_13
REMARK    5  A    between atoms: N_26  and  C_27
REMARK                            x       y       z     vdW  Elec       q    Type
REMARK                         _______ _______ _______ _____ _____    ______ ____
ROOT
ATOM      1  C   UNL     1       2.596   5.050  19.507  0.00  0.00    +0.000 C 
ATOM      2  C   UNL     1       3.708   4.353  19.241  0.00  0.00    +0.000 C 
ATOM      3  C   UNL     1       3.444   2.945  19.612  0.00  0.00    +0.000 C 
ATOM      4  O   UNL     1       4.207   2.003  19.494  0.00  0.00    +0.000 OA
ATOM      5  N   UNL     1       2.192   2.889  20.105  0.00  0.00    +0.000 N 
ATOM      6  C   UNL     1       1.615   4.109  20.090  0.00  0.00    +0.000 C 
ATOM      7  O   UNL     1       0.494   4.372  20.487  0.00  0.00    +0.000 OA
ATOM      8  H   UNL     1       1.746   2.053  20.440  0.00  0.00    +0.000 HD
ENDROOT
BRANCH   1  15
ATOM      9  C   UNL     1       0.877  11.058  19.486  0.00  0.00    +0.000 C 
ATOM     10  C   UNL     1       0.998   9.704  20.125  0.00  0.00    +0.000 A 
ATOM     11  C   UNL     1       0.456   9.517  21.413  0.00  0.00    +0.000 A 
ATOM     12  C   UNL     1       0.524   8.297  22.076  0.00  0.00    +0.000 A 
ATOM     13  C   UNL     1       1.136   7.203  21.470  0.00  0.00    +0.000 A 
ATOM     14  C   UNL     1       1.684   7.334  20.176  0.00  0.00    +0.000 A 
ATOM     15  C   UNL     1       2.332   6.424  19.296  0.00  0.00    +0.000 A 
ATOM     16  C   UNL     1       2.681   7.111  18.159  0.00  0.00    +0.000 A 
ATOM     17  N   UNL     1       2.236   8.401  18.296  0.00  0.00    +0.000 N 
ATOM     18  C   UNL     1       2.398   9.401  17.264  0.00  0.00    +0.000 C 
ATOM     19  C   UNL     1       1.617   8.578  19.524  0.00  0.00    +0.000 A 
ENDBRANCH   1  15
BRANCH   2  20
ATOM     20  C   UNL     1       4.927   4.804  18.682  0.00  0.00    +0.000 A 
ATOM     21  C   UNL     1       5.896   5.493  19.375  0.00  0.00    +0.000 A 
ATOM     22  N   UNL     1       6.924   5.749  18.507  0.00  0.00    +0.000 N 
ATOM     23  C   UNL     1       8.145   6.438  18.861  0.00  0.00    +0.000 C 
ATOM     24  C   UNL     1       6.625   5.262  17.250  0.00  0.00    +0.000 A 
ATOM     25  C   UNL     1       7.354   5.294  16.050  0.00  0.00    +0.000 A 
ATOM     26  C   UNL     1       6.774   4.722  14.913  0.00  0.00    +0.000 A 
ATOM     27  C   UNL     1       5.512   4.138  14.968  0.00  0.00    +0.000 A 
ATOM     28  C   UNL     1       4.798   4.100  16.170  0.00  0.00    +0.000 A 
ATOM     29  C   UNL     1       5.361   4.669  17.332  0.00  0.00    +0.000 A 
ENDBRANCH   2  20
TORSDOF 2
ENDMDL
MODEL 3
REMARK VINA RESULT:      -7.6      6.292      9.975
REMARK  Name = 
REMARK  5 active torsions:
REMARK  status: ('A' for Active; 'I' for Inactive)
REMARK    1  A    between atoms: C_1  and  C_2
REMARK    2  A    between atoms: C_7  and  C_8
REMARK    3  A    between atoms: C_9  and  C_10
REMARK    4  A    between atoms: N_12  and  C_13
REMARK    5  A    between atoms: N_26  and  C_27
REMARK                            x       y       z     vdW  Elec       q    Type
REMARK                         _______ _______ _______ _____ _____    ______ ____
ROOT
ATOM      1  C   UNL     1      -0.374  13.923  21.274  0.00  0.00    +0.000 C 
ATOM      2  C   UNL     1      -0.637  12.610  21.232  0.00  0.00    +0.000 C 
ATOM      3  C   UNL     1      -1.113  12.214  22.575  0.00  0.00    +0.000 C 
ATOM      4  O   UNL     1      -1.474  11.105  22.926  0.00  0.00    +0.000 OA
ATOM      5  N   UNL     1      -1.082  13.315  23.352  0.00  0.00    +0.000 N 
ATOM      6  C   UNL     1      -0.639  14.382  22.655  0.00  0.00    +0.000 C 
ATOM      7  O   UNL     1      -0.488  15.508  23.093  0.00  0.00    +0.000 OA
ATOM      8  H   UNL     1      -1.349  13.339  24.321  0.00  0.00    +0.000 HD
ENDROOT
BRANCH   1  15
ATOM      9  C   UNL     1       2.566  17.323  16.932  0.00  0.00    +0.000 C 
ATOM     10  C   UNL     1       2.514  16.247  17.980  0.00  0.00    +0.000 A 
ATOM     11  C   UNL     1       3.699  15.545  18.283  0.00  0.00    +0.000 A 
ATOM     12  C   UNL     1       3.739  14.537  19.238  0.00  0.00    +0.000 A 
ATOM     13  C   UNL     1       2.587  14.190  19.941  0.00  0.00    +0.000 A 
ATOM     14  C   UNL     1       1.378  14.871  19.684  0.00  0.00    +0.000 A 
ATOM     15  C   UNL     1       0.071  14.777  20.237  0.00  0.00    +0.000 A 
ATOM     16  C   UNL     1      -0.731  15.679  19.583  0.00  0.00    +0.000 A 
ATOM     17  N   UNL     1       0.047  16.350  18.674  0.00  0.00    +0.000 N 
ATOM     18  C   UNL     1      -0.464  17.408  17.831  0.00  0.00    +0.000 C 
ATOM     19  C   UNL     1       1.352  15.881  18.706  0.00  0.00    +0.000 A 
ENDBRANCH   1  15
BRANCH   2  20
ATOM     20  C   UNL     1      -0.535  11.718  20.139  0.00  0.00    +0.000 A 
ATOM     21  C   UNL     1       0.602  11.015  19.810  0.00  0.00    +0.000 A 
ATOM     22  N   UNL     1       0.316  10.256  18.706  0.00  0.00    +0.000 N 
ATOM     23  C   UNL     1       1.248   9.356  18.064  0.00  0.00    +0.000 C 
ATOM     24  C   UNL     1      -0.984  10.477  18.294  0.00  0.00    +0.000 A 
ATOM     25  C   UNL     1      -1.717   9.942  17.222  0.00  0.00    +0.000 A 
ATOM     26  C   UNL     1      -3.034  10.376  17.045  0.00  0.00    +0.000 A 
ATOM     27  C   UNL     1      -3.604  11.311  17.904  0.00  0.00    +0.000 A 
ATOM     28  C   UNL     1      -2.870  11.829  18.977  0.00  0.00    +0.000 A 
ATOM     29  C   UNL     1      -1.540  11.407  19.180  0.00  0.00    +0.000 A 
ENDBRANCH   2  20
TORSDOF 2
ENDMDL
MODEL 4
REMARK VINA RESULT:      -7.6      5.480      9.097
REMARK  Name = 
REMARK  5 active torsions:
REMARK  status: ('A' for Active; 'I' for Inactive)
REMARK    1  A    between atoms: C_1  and  C_2
REMARK    2  A    between atoms: C_7  and  C_8
REMARK    3  A    between atoms: C_9  and  C_10
REMARK    4  A    between atoms: N_12  and  C_13
REMARK    5  A    between atoms: N_26  and  C_27
REMARK                            x       y       z     vdW  Elec       q    Type
REMARK                         _______ _______ _______ _____ _____    ______ ____
ROOT
ATOM      1  C   UNL     1      -0.345  13.401  19.144  0.00  0.00    +0.000 C 
ATOM      2  C   UNL     1       0.811  12.725  19.191  0.00  0.00    +0.000 C 
ATOM      3  C   UNL     1       1.904  13.716  19.082  0.00  0.00    +0.000 C 
ATOM      4  O   UNL     1       3.100  13.490  19.110  0.00  0.00    +0.000 OA
ATOM      5  N   UNL     1       1.333  14.929  18.949  0.00  0.00    +0.000 N 
ATOM      6  C   UNL     1      -0.013  14.830  18.963  0.00  0.00    +0.000 C 
ATOM      7  O   UNL     1      -0.796  15.755  18.847  0.00  0.00    +0.000 OA
ATOM      8  H   UNL     1       1.839  15.792  18.850  0.00  0.00    +0.000 HD
ENDROOT
BRANCH   1  15
ATOM      9  C   UNL     1      -6.029  10.860  18.601  0.00  0.00    +0.000 C 
ATOM     10  C   UNL     1      -4.618  11.093  18.139  0.00  0.00    +0.000 A 
ATOM     11  C   UNL     1      -4.202  10.506  16.926  0.00  0.00    +0.000 A 
ATOM     12  C   UNL     1      -2.915  10.671  16.427  0.00  0.00    +0.000 A 
ATOM     13  C   UNL     1      -1.986  11.442  17.122  0.00  0.00    +0.000 A 
ATOM     14  C   UNL     1      -2.357  12.061  18.335  0.00  0.00    +0.000 A 
ATOM     15  C   UNL     1      -1.669  12.911  19.244  0.00  0.00    +0.000 A 
ATOM     16  C   UNL     1      -2.521  13.199  20.282  0.00  0.00    +0.000 A 
ATOM     17  N   UNL     1      -3.720  12.585  20.022  0.00  0.00    +0.000 N 
ATOM     18  C   UNL     1      -4.870  12.705  20.891  0.00  0.00    +0.000 C 
ATOM     19  C   UNL     1      -3.659  11.874  18.832  0.00  0.00    +0.000 A 
ENDBRANCH   1  15
BRANCH   2  20
ATOM     20  C   UNL     1       1.021  11.335  19.348  0.00  0.00    +0.000 A 
ATOM     21  C   UNL     1       1.588  10.519  18.394  0.00  0.00    +0.000 A 
ATOM     22  N   UNL     1       1.632   9.250  18.908  0.00  0.00    +0.000 N 
ATOM     23  C   UNL     1       2.180   8.104  18.217  0.00  0.00    +0.000 C 
ATOM     24  C   UNL     1       1.077   9.222  20.172  0.00  0.00    +0.000 A 
ATOM     25  C   UNL     1       0.893   8.165  21.077  0.00  0.00    +0.000 A 
ATOM     26  C   UNL     1       0.274   8.445  22.299  0.00  0.00    +0.000 A 
ATOM     27  C   UNL     1      -0.149   9.734  22.611  0.00  0.00    +0.000 A 
ATOM     28  C   UNL     1       0.049  10.784  21.708  0.00  0.00    +0.000 A 
ATOM     29  C   UNL     1       0.673  10.529  20.468  0.00  0.00    +0.000 A 
ENDBRANCH   2  20
TORSDOF 2
ENDMDL
MODEL 5
REMARK VINA RESULT:      -7.6      7.802     10.472
REMARK  Name = 
REMARK  5 active torsions:
REMARK  status: ('A' for Active; 'I' for Inactive)
REMARK    1  A    between atoms: C_1  and  C_2
REMARK    2  A    between atoms: C_7  and  C_8
REMARK    3  A    between atoms: C_9  and  C_10
REMARK    4  A    between atoms: N_12  and  C_13
REMARK    5  A    between atoms: N_26  and  C_27
REMARK                            x       y       z     vdW  Elec       q    Type
REMARK                         _______ _______ _______ _____ _____    ______ ____
ROOT
ATOM      1  C   UNL     1      -1.964  13.154  21.569  0.00  0.00    +0.000 C 
ATOM      2  C   UNL     1      -1.132  14.200  21.654  0.00  0.00    +0.000 C 
ATOM      3  C   UNL     1      -0.918  14.476  23.091  0.00  0.00    +0.000 C 
ATOM      4  O   UNL     1      -0.204  15.338  23.572  0.00  0.00    +0.000 OA
ATOM      5  N   UNL     1      -1.661  13.591  23.784  0.00  0.00    +0.000 N 
ATOM      6  C   UNL     1      -2.329  12.768  22.949  0.00  0.00    +0.000 C 
ATOM      7  O   UNL     1      -3.091  11.878  23.283  0.00  0.00    +0.000 OA
ATOM      8  H   UNL     1      -1.712  13.548  24.787  0.00  0.00    +0.000 HD
ENDROOT
BRANCH   1  15
ATOM      9  C   UNL     1      -3.075   9.893  16.354  0.00  0.00    +0.000 C 
ATOM     10  C   UNL     1      -2.205  10.330  17.499  0.00  0.00    +0.000 A 
ATOM     11  C   UNL     1      -0.881   9.848  17.560  0.00  0.00    +0.000 A 
ATOM     12  C   UNL     1      -0.010  10.202  18.584  0.00  0.00    +0.000 A 
ATOM     13  C   UNL     1      -0.429  11.066  19.594  0.00  0.00    +0.000 A 
ATOM     14  C   UNL     1      -1.741  11.586  19.572  0.00  0.00    +0.000 A 
ATOM     15  C   UNL     1      -2.444  12.487  20.416  0.00  0.00    +0.000 A 
ATOM     16  C   UNL     1      -3.720  12.621  19.924  0.00  0.00    +0.000 A 
ATOM     17  N   UNL     1      -3.811  11.861  18.786  0.00  0.00    +0.000 N 
ATOM     18  C   UNL     1      -5.009  11.795  17.979  0.00  0.00    +0.000 C 
ATOM     19  C   UNL     1      -2.613  11.208  18.535  0.00  0.00    +0.000 A 
ENDBRANCH   1  15
BRANCH   2  20
ATOM     20  C   UNL     1      -0.511  14.928  20.612  0.00  0.00    +0.000 A 
ATOM     21  C   UNL     1      -1.117  15.936  19.897  0.00  0.00    +0.000 A 
ATOM     22  N   UNL     1      -0.206  16.403  18.986  0.00  0.00    +0.000 N 
ATOM     23  C   UNL     1      -0.453  17.484  18.058  0.00  0.00    +0.000 C 
ATOM     24  C   UNL     1       0.976  15.694  19.080  0.00  0.00    +0.000 A 
ATOM     25  C   UNL     1       2.176  15.802  18.360  0.00  0.00    +0.000 A 
ATOM     26  C   UNL     1       3.213  14.918  18.674  0.00  0.00    +0.000 A 
ATOM     27  C   UNL     1       3.060  13.958  19.671  0.00  0.00    +0.000 A 
ATOM     28  C   UNL     1       1.864  13.866  20.391  0.00  0.00    +0.000 A 
ATOM     29  C   UNL     1       0.803  14.747  20.095  0.00  0.00    +0.000 A 
ENDBRANCH   2  20
TORSDOF 2
ENDMDL
MODEL 6
REMARK VINA RESULT:      -7.6      5.262      9.858
REMARK  Name = 
REMARK  5 active torsions:
REMARK  status: ('A' for Active; 'I' for Inactive)
REMARK    1  A    between atoms: C_1  and  C_2
REMARK    2  A    between atoms: C_7  and  C_8
REMARK    3  A    between atoms: C_9  and  C_10
REMARK    4  A    between atoms: N_12  and  C_13
REMARK    5  A    between atoms: N_26  and  C_27
REMARK                            x       y       z     vdW  Elec       q    Type
REMARK                         _______ _______ _______ _____ _____    ______ ____
ROOT
ATOM      1  C   UNL     1       0.883  12.718  19.050  0.00  0.00    +0.000 C 
ATOM      2  C   UNL     1      -0.263  13.412  19.062  0.00  0.00    +0.000 C 
ATOM      3  C   UNL     1       0.081  14.831  18.825  0.00  0.00    +0.000 C 
ATOM      4  O   UNL     1      -0.694  15.767  18.742  0.00  0.00    +0.000 OA
ATOM      5  N   UNL     1       1.422  14.906  18.713  0.00  0.00    +0.000 N 
ATOM      6  C   UNL     1       1.983  13.686  18.847  0.00  0.00    +0.000 C 
ATOM      7  O   UNL     1       3.175  13.442  18.808  0.00  0.00    +0.000 OA
ATOM      8  H   UNL     1       1.936  15.754  18.552  0.00  0.00    +0.000 HD
ENDROOT
BRANCH   1  15
ATOM      9  C   UNL     1       1.480   6.722  20.706  0.00  0.00    +0.000 C 
ATOM     10  C   UNL     1       1.059   8.142  20.955  0.00  0.00    +0.000 A 
ATOM     11  C   UNL     1       0.498   8.468  22.207  0.00  0.00    +0.000 A 
ATOM     12  C   UNL     1       0.083   9.758  22.519  0.00  0.00    +0.000 A 
ATOM     13  C   UNL     1       0.220  10.784  21.588  0.00  0.00    +0.000 A 
ATOM     14  C   UNL     1       0.788  10.512  20.324  0.00  0.00    +0.000 A 
ATOM     15  C   UNL     1       1.083  11.324  19.195  0.00  0.00    +0.000 A 
ATOM     16  C   UNL     1       1.616  10.517  18.220  0.00  0.00    +0.000 A 
ATOM     17  N   UNL     1       1.692   9.245  18.726  0.00  0.00    +0.000 N 
ATOM     18  C   UNL     1       2.244   8.134  17.982  0.00  0.00    +0.000 C 
ATOM     19  C   UNL     1       1.191   9.200  20.020  0.00  0.00    +0.000 A 
ENDBRANCH   1  15
BRANCH   2  20
ATOM     20  C   UNL     1      -1.586  12.940  19.228  0.00  0.00    +0.000 A 
ATOM     21  C   UNL     1      -2.387  13.229  20.309  0.00  0.00    +0.000 A 
ATOM     22  N   UNL     1      -3.590  12.605  20.112  0.00  0.00    +0.000 N 
ATOM     23  C   UNL     1      -4.714  12.683  21.018  0.00  0.00    +0.000 C 
ATOM     24  C   UNL     1      -3.574  11.891  18.930  0.00  0.00    +0.000 A 
ATOM     25  C   UNL     1      -4.557  11.097  18.318  0.00  0.00    +0.000 A 
ATOM     26  C   UNL     1      -4.239  10.473  17.107  0.00  0.00    +0.000 A 
ATOM     27  C   UNL     1      -2.985  10.634  16.525  0.00  0.00    +0.000 A 
ATOM     28  C   UNL     1      -2.016  11.436  17.136  0.00  0.00    +0.000 A 
ATOM     29  C   UNL     1      -2.312  12.078  18.357  0.00  0.00    +0.000 A 
ENDBRANCH   2  20
TORSDOF 2
ENDMDL
MODEL 7
REMARK VINA RESULT:      -7.5      6.340     10.295
REMARK  Name = 
REMARK  5 active torsions:
REMARK  status: ('A' for Active; 'I' for Inactive)
REMARK    1  A    between atoms: C_1  and  C_2
REMARK    2  A    between atoms: C_7  and  C_8
REMARK    3  A    between atoms: C_9  and  C_10
REMARK    4  A    between atoms: N_12  and  C_13
REMARK    5  A    between atoms: N_26  and  C_27
REMARK                            x       y       z     vdW  Elec       q    Type
REMARK                         _______ _______ _______ _____ _____    ______ ____
ROOT
ATOM      1  C   UNL     1      -0.167  13.928  21.351  0.00  0.00    +0.000 C 
ATOM      2  C   UNL     1      -0.530  12.641  21.271  0.00  0.00    +0.000 C 
ATOM      3  C   UNL     1      -1.081  12.257  22.588  0.00  0.00    +0.000 C 
ATOM      4  O   UNL     1      -1.539  11.172  22.901  0.00  0.00    +0.000 OA
ATOM      5  N   UNL     1      -0.990  13.335  23.391  0.00  0.00    +0.000 N 
ATOM      6  C   UNL     1      -0.442  14.378  22.733  0.00  0.00    +0.000 C 
ATOM      7  O   UNL     1      -0.219  15.479  23.203  0.00  0.00    +0.000 OA
ATOM      8  H   UNL     1      -1.288  13.361  24.351  0.00  0.00    +0.000 HD
ENDROOT
BRANCH   1  15
ATOM      9  C   UNL     1       1.267  18.049  16.877  0.00  0.00    +0.000 C 
ATOM     10  C   UNL     1       0.353  17.472  17.920  0.00  0.00    +0.000 A 
ATOM     11  C   UNL     1      -0.925  18.044  18.087  0.00  0.00    +0.000 A 
ATOM     12  C   UNL     1      -1.831  17.571  19.028  0.00  0.00    +0.000 A 
ATOM     13  C   UNL     1      -1.498  16.491  19.843  0.00  0.00    +0.000 A 
ATOM     14  C   UNL     1      -0.236  15.875  19.707  0.00  0.00    +0.000 A 
ATOM     15  C   UNL     1       0.380  14.766  20.349  0.00  0.00    +0.000 A 
ATOM     16  C   UNL     1       1.643  14.622  19.830  0.00  0.00    +0.000 A 
ATOM     17  N   UNL     1       1.809  15.582  18.864  0.00  0.00    +0.000 N 
ATOM     18  C   UNL     1       3.015  15.703  18.075  0.00  0.00    +0.000 C 
ATOM     19  C   UNL     1       0.674  16.373  18.758  0.00  0.00    +0.000 A 
ENDBRANCH   1  15
BRANCH   2  20
ATOM     20  C   UNL     1      -0.460  11.767  20.161  0.00  0.00    +0.000 A 
ATOM     21  C   UNL     1       0.663  11.061  19.794  0.00  0.00    +0.000 A 
ATOM     22  N   UNL     1       0.345  10.323  18.685  0.00  0.00    +0.000 N 
ATOM     23  C   UNL     1       1.254   9.427  18.006  0.00  0.00    +0.000 C 
ATOM     24  C   UNL     1      -0.963  10.560  18.308  0.00  0.00    +0.000 A 
ATOM     25  C   UNL     1      -1.724  10.048  17.245  0.00  0.00    +0.000 A 
ATOM     26  C   UNL     1      -3.042  10.495  17.105  0.00  0.00    +0.000 A 
ATOM     27  C   UNL     1      -3.584  11.419  17.993  0.00  0.00    +0.000 A 
ATOM     28  C   UNL     1      -2.822  11.914  19.056  0.00  0.00    +0.000 A 
ATOM     29  C   UNL     1      -1.490  11.479  19.221  0.00  0.00    +0.000 A 
ENDBRANCH   2  20
TORSDOF 2
ENDMDL
MODEL 8
REMARK VINA RESULT:      -7.4      7.735     11.015
REMARK  Name = 
REMARK  5 active torsions:
REMARK  status: ('A' for Active; 'I' for Inactive)
REMARK    1  A    between atoms: C_1  and  C_2
REMARK    2  A    between atoms: C_7  and  C_8
REMARK    3  A    between atoms: C_9  and  C_10
REMARK    4  A    between atoms: N_12  and  C_13
REMARK    5  A    between atoms: N_26  and  C_27
REMARK                            x       y       z     vdW  Elec       q    Type
REMARK                         _______ _______ _______ _____ _____    ______ ____
ROOT
ATOM      1  C   UNL     1      -1.805  13.246  21.596  0.00  0.00    +0.000 C 
ATOM      2  C   UNL     1      -0.948  14.274  21.647  0.00  0.00    +0.000 C 
ATOM      3  C   UNL     1      -0.728  14.592  23.074  0.00  0.00    +0.000 C 
ATOM      4  O   UNL     1       0.007  15.452  23.527  0.00  0.00    +0.000 OA
ATOM      5  N   UNL     1      -1.493  13.749  23.796  0.00  0.00    +0.000 N 
ATOM      6  C   UNL     1      -2.181  12.916  22.988  0.00  0.00    +0.000 C 
ATOM      7  O   UNL     1      -2.964  12.056  23.350  0.00  0.00    +0.000 OA
ATOM      8  H   UNL     1      -1.545  13.741  24.799  0.00  0.00    +0.000 HD
ENDROOT
BRANCH   1  15
ATOM      9  C   UNL     1      -2.989   9.864  16.475  0.00  0.00    +0.000 C 
ATOM     10  C   UNL     1      -2.104  10.326  17.598  0.00  0.00    +0.000 A 
ATOM     11  C   UNL     1      -0.781   9.841  17.655  0.00  0.00    +0.000 A 
ATOM     12  C   UNL     1       0.103  10.217  18.660  0.00  0.00    +0.000 A 
ATOM     13  C   UNL     1      -0.301  11.106  19.653  0.00  0.00    +0.000 A 
ATOM     14  C   UNL     1      -1.611  11.629  19.634  0.00  0.00    +0.000 A 
ATOM     15  C   UNL     1      -2.302  12.554  20.465  0.00  0.00    +0.000 A 
ATOM     16  C   UNL     1      -3.583  12.679  19.986  0.00  0.00    +0.000 A 
ATOM     17  N   UNL     1      -3.690  11.893  18.868  0.00  0.00    +0.000 N 
ATOM     18  C   UNL     1      -4.898  11.811  18.076  0.00  0.00    +0.000 C 
ATOM     19  C   UNL     1      -2.497  11.230  18.618  0.00  0.00    +0.000 A 
ENDBRANCH   1  15
BRANCH   2  20
ATOM     20  C   UNL     1      -0.309  14.952  20.582  0.00  0.00    +0.000 A 
ATOM     21  C   UNL     1       0.946  14.648  20.106  0.00  0.00    +0.000 A 
ATOM     22  N   UNL     1       1.218  15.508  19.075  0.00  0.00    +0.000 N 
ATOM     23  C   UNL     1       2.435  15.496  18.295  0.00  0.00    +0.000 C 
ATOM     24  C   UNL     1       0.169  16.387  18.892  0.00  0.00    +0.000 A 
ATOM     25  C   UNL     1      -0.007  17.437  17.977  0.00  0.00    +0.000 A 
ATOM     26  C   UNL     1      -1.192  18.177  18.044  0.00  0.00    +0.000 A 
ATOM     27  C   UNL     1      -2.170  17.881  18.989  0.00  0.00    +0.000 A 
ATOM     28  C   UNL     1      -1.992  16.824  19.888  0.00  0.00    +0.000 A 
ATOM     29  C   UNL     1      -0.806  16.062  19.841  0.00  0.00    +0.000 A 
ENDBRANCH   2  20
TORSDOF 2
ENDMDL
MODEL 9
REMARK VINA RESULT:      -7.4      8.017     10.692
REMARK  Name = 
REMARK  5 active torsions:
REMARK  status: ('A' for Active; 'I' for Inactive)
REMARK    1  A    between atoms: C_1  and  C_2
REMARK    2  A    between atoms: C_7  and  C_8
REMARK    3  A    between atoms: C_9  and  C_10
REMARK    4  A    between atoms: N_12  and  C_13
REMARK    5  A    between atoms: N_26  and  C_27
REMARK                            x       y       z     vdW  Elec       q    Type
REMARK                         _______ _______ _______ _____ _____    ______ ____
ROOT
ATOM      1  C   UNL     1      -1.164  14.143  21.661  0.00  0.00    +0.000 C 
ATOM      2  C   UNL     1      -2.069  13.160  21.570  0.00  0.00    +0.000 C 
ATOM      3  C   UNL     1      -2.461  12.796  22.949  0.00  0.00    +0.000 C 
ATOM      4  O   UNL     1      -3.282  11.958  23.278  0.00  0.00    +0.000 OA
ATOM      5  N   UNL     1      -1.744  13.569  23.787  0.00  0.00    +0.000 N 
ATOM      6  C   UNL     1      -0.931  14.397  23.099  0.00  0.00    +0.000 C 
ATOM      7  O   UNL     1      -0.153  15.199  23.584  0.00  0.00    +0.000 OA
ATOM      8  H   UNL     1      -1.803  13.533  24.790  0.00  0.00    +0.000 HD
ENDROOT
BRANCH   1  15
ATOM      9  C   UNL     1       2.583  16.738  17.384  0.00  0.00    +0.000 C 
ATOM     10  C   UNL     1       2.273  15.733  18.457  0.00  0.00    +0.000 A 
ATOM     11  C   UNL     1       3.281  14.825  18.841  0.00  0.00    +0.000 A 
ATOM     12  C   UNL     1       3.078  13.865  19.825  0.00  0.00    +0.000 A 
ATOM     13  C   UNL     1       1.850  13.777  20.477  0.00  0.00    +0.000 A 
ATOM     14  C   UNL     1       0.812  14.671  20.138  0.00  0.00    +0.000 A 
ATOM     15  C   UNL     1      -0.512  14.854  20.624  0.00  0.00    +0.000 A 
ATOM     16  C   UNL     1      -1.090  15.870  19.904  0.00  0.00    +0.000 A 
ATOM     17  N   UNL     1      -0.155  16.341  19.019  0.00  0.00    +0.000 N 
ATOM     18  C   UNL     1      -0.408  17.447  18.121  0.00  0.00    +0.000 C 
ATOM     19  C   UNL     1       1.030  15.629  19.132  0.00  0.00    +0.000 A 
ENDBRANCH   1  15
BRANCH   2  20
ATOM     20  C   UNL     1      -2.616  12.561  20.412  0.00  0.00    +0.000 A 
ATOM     21  C   UNL     1      -3.916  12.725  19.988  0.00  0.00    +0.000 A 
ATOM     22  N   UNL     1      -4.070  12.002  18.835  0.00  0.00    +0.000 N 
ATOM     23  C   UNL     1      -5.293  11.936  18.065  0.00  0.00    +0.000 C 
ATOM     24  C   UNL     1      -2.897  11.346  18.516  0.00  0.00    +0.000 A 
ATOM     25  C   UNL     1      -2.577  10.493  17.448  0.00  0.00    +0.000 A 
ATOM     26  C   UNL     1      -1.287   9.956  17.400  0.00  0.00    +0.000 A 
ATOM     27  C   UNL     1      -0.346  10.258  18.380  0.00  0.00    +0.000 A 
ATOM     28  C   UNL     1      -0.671  11.119  19.434  0.00  0.00    +0.000 A 
ATOM     29  C   UNL     1      -1.965  11.675  19.506  0.00  0.00    +0.000 A 
ENDBRANCH   2  20
TORSDOF 2
ENDMDL
