MODEL 1
REMARK VINA RESULT:      -7.5      0.000      0.000
REMARK  Name = 
REMARK  5 active torsions:
REMARK  status: ('A' for Active; 'I' for Inactive)
REMARK    1  A    between atoms: C_5  and  C_6
REMARK    2  A    between atoms: C_10  and  C_11
REMARK    3  A    between atoms: N_16  and  C_17
REMARK    4  A    between atoms: C_17  and  C_18
REMARK    5  A    between atoms: C_18  and  C_19
REMARK                            x       y       z     vdW  Elec       q    Type
REMARK                         _______ _______ _______ _____ _____    ______ ____
ROOT
ATOM      1  O   UNL     1       6.039   3.326  15.415  0.00  0.00    +0.000 OA
ATOM      2  C   UNL     1       5.969   4.099  16.364  0.00  0.00    +0.000 C 
ATOM      3  C   UNL     1       7.194   4.823  16.869  0.00  0.00    +0.000 C 
ATOM      4  S   UNL     1       6.623   6.076  18.021  0.00  0.00    +0.000 S 
ATOM      5  C   UNL     1       4.999   5.312  18.208  0.00  0.00    +0.000 C 
ATOM      6  N   UNL     1       4.830   4.369  17.112  0.00  0.00    +0.000 N 
ENDROOT
BRANCH   5   7
ATOM      7  C   UNL     1       3.890   6.336  18.327  0.00  0.00    +0.000 A 
ATOM      8  C   UNL     1       3.708   7.280  17.303  0.00  0.00    +0.000 A 
ATOM      9  C   UNL     1       2.790   8.319  17.447  0.00  0.00    +0.000 A 
ATOM     10  C   UNL     1       2.038   8.430  18.616  0.00  0.00    +0.000 A 
ATOM     11  C   UNL     1       2.171   7.480  19.639  0.00  0.00    +0.000 A 
ATOM     12  C   UNL     1       3.077   6.420  19.471  0.00  0.00    +0.000 A 
BRANCH  11  13
ATOM     13  C   UNL     1       1.386   7.603  20.922  0.00  0.00    +0.000 C 
ATOM     14  F   UNL     1       1.260   6.426  21.599  0.00  0.00    +0.000 F 
ATOM     15  F   UNL     1       1.949   8.480  21.800  0.00  0.00    +0.000 F 
ATOM     16  F   UNL     1       0.115   8.046  20.715  0.00  0.00    +0.000 F 
ENDBRANCH  11  13
ENDBRANCH   5   7
BRANCH   6  17
ATOM     17  C   UNL     1       3.504   3.744  16.871  0.00  0.00    +0.000 C 
BRANCH  17  18
ATOM     18  C   UNL     1       3.222   2.502  17.715  0.00  0.00    +0.000 C 
BRANCH  18  19
ATOM     19  C   UNL     1       2.674   2.691  19.109  0.00  0.00    +0.000 A 
ATOM     20  C   UNL     1       1.350   3.132  19.214  0.00  0.00    +0.000 A 
ATOM     21  C   UNL     1       0.782   3.313  20.470  0.00  0.00    +0.000 A 
ATOM     22  C   UNL     1       1.558   3.052  21.595  0.00  0.00    +0.000 A 
ATOM     23  C   UNL     1       2.865   2.628  21.407  0.00  0.00    +0.000 A 
ATOM     24  N   UNL     1       3.437   2.436  20.192  0.00  0.00    +0.000 NA
ENDBRANCH  18  19
ENDBRANCH  17  18
ENDBRANCH   6  17
TORSDOF 5
ENDMDL
MODEL 2
REMARK VINA RESULT:      -7.4      3.921      6.007
REMARK  Name = 
REMARK  5 active torsions:
REMARK  status: ('A' for Active; 'I' for Inactive)
REMARK    1  A    between atoms: C_5  and  C_6
REMARK    2  A    between atoms: C_10  and  C_11
REMARK    3  A    between atoms: N_16  and  C_17
REMARK    4  A    between atoms: C_17  and  C_18
REMARK    5  A    between atoms: C_18  and  C_19
REMARK                            x       y       z     vdW  Elec       q    Type
REMARK                         _______ _______ _______ _____ _____    ______ ____
ROOT
ATOM      1  O   UNL     1       0.709   3.929  19.680  0.00  0.00    +0.000 OA
ATOM      2  C   UNL     1       1.836   3.476  19.513  0.00  0.00    +0.000 C 
ATOM      3  C   UNL     1       2.048   2.014  19.203  0.00  0.00    +0.000 C 
ATOM      4  S   UNL     1       3.766   1.826  18.715  0.00  0.00    +0.000 S 
ATOM      5  C   UNL     1       4.244   3.423  19.407  0.00  0.00    +0.000 C 
ATOM      6  N   UNL     1       3.024   4.185  19.633  0.00  0.00    +0.000 N 
ENDROOT
BRANCH   5   7
ATOM      7  C   UNL     1       5.276   4.134  18.556  0.00  0.00    +0.000 A 
ATOM      8  C   UNL     1       6.348   4.793  19.177  0.00  0.00    +0.000 A 
ATOM      9  C   UNL     1       7.233   5.572  18.432  0.00  0.00    +0.000 A 
ATOM     10  C   UNL     1       7.061   5.700  17.054  0.00  0.00    +0.000 A 
ATOM     11  C   UNL     1       6.021   5.022  16.401  0.00  0.00    +0.000 A 
ATOM     12  C   UNL     1       5.154   4.216  17.158  0.00  0.00    +0.000 A 
BRANCH  11  13
ATOM     13  C   UNL     1       5.804   5.174  14.916  0.00  0.00    +0.000 C 
ATOM     14  F   UNL     1       5.089   4.154  14.363  0.00  0.00    +0.000 F 
ATOM     15  F   UNL     1       5.132   6.316  14.599  0.00  0.00    +0.000 F 
ATOM     16  F   UNL     1       6.974   5.223  14.221  0.00  0.00    +0.000 F 
ENDBRANCH  11  13
ENDBRANCH   5   7
BRANCH   6  17
ATOM     17  C   UNL     1       3.107   5.624  19.993  0.00  0.00    +0.000 C 
BRANCH  17  18
ATOM     18  C   UNL     1       2.915   6.585  18.820  0.00  0.00    +0.000 C 
BRANCH  18  19
ATOM     19  C   UNL     1       2.098   7.834  19.043  0.00  0.00    +0.000 A 
ATOM     20  C   UNL     1       1.874   8.653  17.930  0.00  0.00    +0.000 A 
ATOM     21  C   UNL     1       1.117   9.810  18.067  0.00  0.00    +0.000 A 
ATOM     22  C   UNL     1       0.605  10.126  19.322  0.00  0.00    +0.000 A 
ATOM     23  C   UNL     1       0.880   9.269  20.378  0.00  0.00    +0.000 A 
ATOM     24  N   UNL     1       1.607   8.130  20.266  0.00  0.00    +0.000 NA
ENDBRANCH  18  19
ENDBRANCH  17  18
ENDBRANCH   6  17
TORSDOF 5
ENDMDL
MODEL 3
REMARK VINA RESULT:      -7.3      2.974      5.575
REMARK  Name = 
REMARK  5 active torsions:
REMARK  status: ('A' for Active; 'I' for Inactive)
REMARK    1  A    between atoms: C_5  and  C_6
REMARK    2  A    between atoms: C_10  and  C_11
REMARK    3  A    between atoms: N_16  and  C_17
REMARK    4  A    between atoms: C_17  and  C_18
REMARK    5  A    between atoms: C_18  and  C_19
REMARK                            x       y       z     vdW  Elec       q    Type
REMARK                         _______ _______ _______ _____ _____    ______ ____
ROOT
ATOM      1  O   UNL     1       7.714   7.096  16.553  0.00  0.00    +0.000 OA
ATOM      2  C   UNL     1       7.267   6.372  17.436  0.00  0.00    +0.000 C 
ATOM      3  C   UNL     1       8.026   6.152  18.722  0.00  0.00    +0.000 C 
ATOM      4  S   UNL     1       6.909   5.321  19.855  0.00  0.00    +0.000 S 
ATOM      5  C   UNL     1       5.772   4.836  18.540  0.00  0.00    +0.000 C 
ATOM      6  N   UNL     1       6.087   5.642  17.369  0.00  0.00    +0.000 N 
ENDROOT
BRANCH   5   7
ATOM      7  C   UNL     1       4.323   4.907  18.976  0.00  0.00    +0.000 A 
ATOM      8  C   UNL     1       3.767   6.148  19.325  0.00  0.00    +0.000 A 
ATOM      9  C   UNL     1       2.482   6.226  19.861  0.00  0.00    +0.000 A 
ATOM     10  C   UNL     1       1.733   5.066  20.055  0.00  0.00    +0.000 A 
ATOM     11  C   UNL     1       2.249   3.817  19.681  0.00  0.00    +0.000 A 
ATOM     12  C   UNL     1       3.533   3.752  19.113  0.00  0.00    +0.000 A 
BRANCH  11  13
ATOM     13  C   UNL     1       1.464   2.549  19.912  0.00  0.00    +0.000 C 
ATOM     14  F   UNL     1       1.360   2.204  21.226  0.00  0.00    +0.000 F 
ATOM     15  F   UNL     1       0.187   2.631  19.445  0.00  0.00    +0.000 F 
ATOM     16  F   UNL     1       2.020   1.472  19.291  0.00  0.00    +0.000 F 
ENDBRANCH  11  13
ENDBRANCH   5   7
BRANCH   6  17
ATOM     17  C   UNL     1       5.178   5.626  16.194  0.00  0.00    +0.000 C 
BRANCH  17  18
ATOM     18  C   UNL     1       5.225   4.338  15.371  0.00  0.00    +0.000 C 
BRANCH  18  19
ATOM     19  C   UNL     1       6.042   4.329  14.101  0.00  0.00    +0.000 A 
ATOM     20  C   UNL     1       5.634   3.448  13.093  0.00  0.00    +0.000 A 
ATOM     21  C   UNL     1       6.337   3.401  11.894  0.00  0.00    +0.000 A 
ATOM     22  C   UNL     1       7.438   4.237  11.735  0.00  0.00    +0.000 A 
ATOM     23  C   UNL     1       7.784   5.074  12.785  0.00  0.00    +0.000 A 
ATOM     24  N   UNL     1       7.108   5.144  13.960  0.00  0.00    +0.000 NA
ENDBRANCH  18  19
ENDBRANCH  17  18
ENDBRANCH   6  17
TORSDOF 5
ENDMDL
MODEL 4
REMARK VINA RESULT:      -7.2      3.891      6.036
REMARK  Name = 
REMARK  5 active torsions:
REMARK  status: ('A' for Active; 'I' for Inactive)
REMARK    1  A    between atoms: C_5  and  C_6
REMARK    2  A    between atoms: C_10  and  C_11
REMARK    3  A    between atoms: N_16  and  C_17
REMARK    4  A    between atoms: C_17  and  C_18
REMARK    5  A    between atoms: C_18  and  C_19
REMARK                            x       y       z     vdW  Elec       q    Type
REMARK                         _______ _______ _______ _____ _____    ______ ____
ROOT
ATOM      1  O   UNL     1       0.695   3.966  19.655  0.00  0.00    +0.000 OA
ATOM      2  C   UNL     1       1.824   3.513  19.500  0.00  0.00    +0.000 C 
ATOM      3  C   UNL     1       2.041   2.049  19.202  0.00  0.00    +0.000 C 
ATOM      4  S   UNL     1       3.762   1.861  18.728  0.00  0.00    +0.000 S 
ATOM      5  C   UNL     1       4.233   3.463  19.412  0.00  0.00    +0.000 C 
ATOM      6  N   UNL     1       3.010   4.224  19.624  0.00  0.00    +0.000 N 
ENDROOT
BRANCH   5   7
ATOM      7  C   UNL     1       5.269   4.169  18.563  0.00  0.00    +0.000 A 
ATOM      8  C   UNL     1       6.338   4.833  19.187  0.00  0.00    +0.000 A 
ATOM      9  C   UNL     1       7.227   5.607  18.443  0.00  0.00    +0.000 A 
ATOM     10  C   UNL     1       7.063   5.728  17.063  0.00  0.00    +0.000 A 
ATOM     11  C   UNL     1       6.028   5.047  16.408  0.00  0.00    +0.000 A 
ATOM     12  C   UNL     1       5.156   4.244  17.164  0.00  0.00    +0.000 A 
BRANCH  11  13
ATOM     13  C   UNL     1       5.819   5.191  14.921  0.00  0.00    +0.000 C 
ATOM     14  F   UNL     1       6.980   5.274  14.213  0.00  0.00    +0.000 F 
ATOM     15  F   UNL     1       5.128   4.146  14.385  0.00  0.00    +0.000 F 
ATOM     16  F   UNL     1       5.112   6.310  14.601  0.00  0.00    +0.000 F 
ENDBRANCH  11  13
ENDBRANCH   5   7
BRANCH   6  17
ATOM     17  C   UNL     1       3.088   5.667  19.974  0.00  0.00    +0.000 C 
BRANCH  17  18
ATOM     18  C   UNL     1       2.880   6.619  18.797  0.00  0.00    +0.000 C 
BRANCH  18  19
ATOM     19  C   UNL     1       2.088   7.883  19.029  0.00  0.00    +0.000 A 
ATOM     20  C   UNL     1       1.630   8.114  20.331  0.00  0.00    +0.000 A 
ATOM     21  C   UNL     1       0.906   9.267  20.613  0.00  0.00    +0.000 A 
ATOM     22  C   UNL     1       0.652  10.162  19.578  0.00  0.00    +0.000 A 
ATOM     23  C   UNL     1       1.131   9.856  18.313  0.00  0.00    +0.000 A 
ATOM     24  N   UNL     1       1.847   8.743  18.017  0.00  0.00    +0.000 NA
ENDBRANCH  18  19
ENDBRANCH  17  18
ENDBRANCH   6  17
TORSDOF 5
ENDMDL
MODEL 5
REMARK VINA RESULT:      -7.2      0.824      1.280
REMARK  Name = 
REMARK  5 active torsions:
REMARK  status: ('A' for Active; 'I' for Inactive)
REMARK    1  A    between atoms: C_5  and  C_6
REMARK    2  A    between atoms: C_10  and  C_11
REMARK    3  A    between atoms: N_16  and  C_17
REMARK    4  A    between atoms: C_17  and  C_18
REMARK    5  A    between atoms: C_18  and  C_19
REMARK                            x       y       z     vdW  Elec       q    Type
REMARK                         _______ _______ _______ _____ _____    ______ ____
ROOT
ATOM      1  O   UNL     1       6.303   3.616  14.957  0.00  0.00    +0.000 OA
ATOM      2  C   UNL     1       6.244   4.385  15.910  0.00  0.00    +0.000 C 
ATOM      3  C   UNL     1       7.396   5.302  16.242  0.00  0.00    +0.000 C 
ATOM      4  S   UNL     1       6.798   6.469  17.469  0.00  0.00    +0.000 S 
ATOM      5  C   UNL     1       5.359   5.461  17.878  0.00  0.00    +0.000 C 
ATOM      6  N   UNL     1       5.191   4.484  16.811  0.00  0.00    +0.000 N 
ENDROOT
BRANCH   5   7
ATOM      7  C   UNL     1       4.128   6.299  18.155  0.00  0.00    +0.000 A 
ATOM      8  C   UNL     1       3.805   7.358  17.293  0.00  0.00    +0.000 A 
ATOM      9  C   UNL     1       2.762   8.232  17.598  0.00  0.00    +0.000 A 
ATOM     10  C   UNL     1       2.024   8.058  18.769  0.00  0.00    +0.000 A 
ATOM     11  C   UNL     1       2.300   6.986  19.630  0.00  0.00    +0.000 A 
ATOM     12  C   UNL     1       3.333   6.093  19.297  0.00  0.00    +0.000 A 
BRANCH  11  13
ATOM     13  C   UNL     1       1.531   6.801  20.915  0.00  0.00    +0.000 C 
ATOM     14  F   UNL     1       0.240   6.408  20.726  0.00  0.00    +0.000 F 
ATOM     15  F   UNL     1       2.091   5.864  21.731  0.00  0.00    +0.000 F 
ATOM     16  F   UNL     1       1.464   7.945  21.650  0.00  0.00    +0.000 F 
ENDBRANCH  11  13
ENDBRANCH   5   7
BRANCH   6  17
ATOM     17  C   UNL     1       3.961   3.653  16.755  0.00  0.00    +0.000 C 
BRANCH  17  18
ATOM     18  C   UNL     1       3.903   2.529  17.789  0.00  0.00    +0.000 C 
BRANCH  18  19
ATOM     19  C   UNL     1       2.937   2.663  18.940  0.00  0.00    +0.000 A 
ATOM     20  C   UNL     1       3.460   2.503  20.228  0.00  0.00    +0.000 A 
ATOM     21  C   UNL     1       2.623   2.628  21.331  0.00  0.00    +0.000 A 
ATOM     22  C   UNL     1       1.277   2.905  21.118  0.00  0.00    +0.000 A 
ATOM     23  C   UNL     1       0.833   3.039  19.810  0.00  0.00    +0.000 A 
ATOM     24  N   UNL     1       1.632   2.931  18.719  0.00  0.00    +0.000 NA
ENDBRANCH  18  19
ENDBRANCH  17  18
ENDBRANCH   6  17
TORSDOF 5
ENDMDL
MODEL 6
REMARK VINA RESULT:      -7.1      3.912      5.426
REMARK  Name = 
REMARK  5 active torsions:
REMARK  status: ('A' for Active; 'I' for Inactive)
REMARK    1  A    between atoms: C_5  and  C_6
REMARK    2  A    between atoms: C_10  and  C_11
REMARK    3  A    between atoms: N_16  and  C_17
REMARK    4  A    between atoms: C_17  and  C_18
REMARK    5  A    between atoms: C_18  and  C_19
REMARK                            x       y       z     vdW  Elec       q    Type
REMARK                         _______ _______ _______ _____ _____    ______ ____
ROOT
ATOM      1  O   UNL     1       1.114   8.360  21.373  0.00  0.00    +0.000 OA
ATOM      2  C   UNL     1       1.555   8.050  20.272  0.00  0.00    +0.000 C 
ATOM      3  C   UNL     1       1.547   9.031  19.125  0.00  0.00    +0.000 C 
ATOM      4  S   UNL     1       2.556   8.321  17.821  0.00  0.00    +0.000 S 
ATOM      5  C   UNL     1       2.502   6.666  18.539  0.00  0.00    +0.000 C 
ATOM      6  N   UNL     1       2.050   6.802  19.916  0.00  0.00    +0.000 N 
ENDROOT
BRANCH   5   7
ATOM      7  C   UNL     1       3.814   5.927  18.382  0.00  0.00    +0.000 A 
ATOM      8  C   UNL     1       4.712   5.877  19.459  0.00  0.00    +0.000 A 
ATOM      9  C   UNL     1       5.983   5.326  19.302  0.00  0.00    +0.000 A 
ATOM     10  C   UNL     1       6.375   4.815  18.065  0.00  0.00    +0.000 A 
ATOM     11  C   UNL     1       5.485   4.816  16.981  0.00  0.00    +0.000 A 
ATOM     12  C   UNL     1       4.196   5.346  17.159  0.00  0.00    +0.000 A 
BRANCH  11  13
ATOM     13  C   UNL     1       5.904   4.294  15.629  0.00  0.00    +0.000 C 
ATOM     14  F   UNL     1       7.234   4.446  15.374  0.00  0.00    +0.000 F 
ATOM     15  F   UNL     1       5.643   2.965  15.477  0.00  0.00    +0.000 F 
ATOM     16  F   UNL     1       5.259   4.921  14.607  0.00  0.00    +0.000 F 
ENDBRANCH  11  13
ENDBRANCH   5   7
BRANCH   6  17
ATOM     17  C   UNL     1       2.114   5.634  20.834  0.00  0.00    +0.000 C 
BRANCH  17  18
ATOM     18  C   UNL     1       1.406   4.381  20.319  0.00  0.00    +0.000 C 
BRANCH  18  19
ATOM     19  C   UNL     1       2.224   3.346  19.587  0.00  0.00    +0.000 A 
ATOM     20  C   UNL     1       1.799   2.996  18.300  0.00  0.00    +0.000 A 
ATOM     21  C   UNL     1       2.518   2.058  17.568  0.00  0.00    +0.000 A 
ATOM     22  C   UNL     1       3.647   1.486  18.146  0.00  0.00    +0.000 A 
ATOM     23  C   UNL     1       3.997   1.878  19.430  0.00  0.00    +0.000 A 
ATOM     24  N   UNL     1       3.317   2.797  20.159  0.00  0.00    +0.000 NA
ENDBRANCH  18  19
ENDBRANCH  17  18
ENDBRANCH   6  17
TORSDOF 5
ENDMDL
MODEL 7
REMARK VINA RESULT:      -7.0      2.957      5.550
REMARK  Name = 
REMARK  5 active torsions:
REMARK  status: ('A' for Active; 'I' for Inactive)
REMARK    1  A    between atoms: C_5  and  C_6
REMARK    2  A    between atoms: C_10  and  C_11
REMARK    3  A    between atoms: N_16  and  C_17
REMARK    4  A    between atoms: C_17  and  C_18
REMARK    5  A    between atoms: C_18  and  C_19
REMARK                            x       y       z     vdW  Elec       q    Type
REMARK                         _______ _______ _______ _____ _____    ______ ____
ROOT
ATOM      1  O   UNL     1       7.698   7.078  16.540  0.00  0.00    +0.000 OA
ATOM      2  C   UNL     1       7.239   6.365  17.426  0.00  0.00    +0.000 C 
ATOM      3  C   UNL     1       7.975   6.170  18.728  0.00  0.00    +0.000 C 
ATOM      4  S   UNL     1       6.842   5.348  19.853  0.00  0.00    +0.000 S 
ATOM      5  C   UNL     1       5.734   4.834  18.525  0.00  0.00    +0.000 C 
ATOM      6  N   UNL     1       6.066   5.625  17.348  0.00  0.00    +0.000 N 
ENDROOT
BRANCH   5   7
ATOM      7  C   UNL     1       4.277   4.902  18.932  0.00  0.00    +0.000 A 
ATOM      8  C   UNL     1       3.706   6.143  19.254  0.00  0.00    +0.000 A 
ATOM      9  C   UNL     1       2.411   6.219  19.765  0.00  0.00    +0.000 A 
ATOM     10  C   UNL     1       1.666   5.057  19.959  0.00  0.00    +0.000 A 
ATOM     11  C   UNL     1       2.197   3.806  19.611  0.00  0.00    +0.000 A 
ATOM     12  C   UNL     1       3.491   3.743  19.068  0.00  0.00    +0.000 A 
BRANCH  11  13
ATOM     13  C   UNL     1       1.415   2.536  19.842  0.00  0.00    +0.000 C 
ATOM     14  F   UNL     1       2.041   1.419  19.376  0.00  0.00    +0.000 F 
ATOM     15  F   UNL     1       1.170   2.305  21.162  0.00  0.00    +0.000 F 
ATOM     16  F   UNL     1       0.197   2.557  19.234  0.00  0.00    +0.000 F 
ENDBRANCH  11  13
ENDBRANCH   5   7
BRANCH   6  17
ATOM     17  C   UNL     1       5.180   5.584  16.155  0.00  0.00    +0.000 C 
BRANCH  17  18
ATOM     18  C   UNL     1       5.180   4.250  15.408  0.00  0.00    +0.000 C 
BRANCH  18  19
ATOM     19  C   UNL     1       5.897   4.171  14.082  0.00  0.00    +0.000 A 
ATOM     20  C   UNL     1       7.010   5.003  13.914  0.00  0.00    +0.000 A 
ATOM     21  C   UNL     1       7.722   4.967  12.720  0.00  0.00    +0.000 A 
ATOM     22  C   UNL     1       7.298   4.100  11.718  0.00  0.00    +0.000 A 
ATOM     23  C   UNL     1       6.179   3.316  11.959  0.00  0.00    +0.000 A 
ATOM     24  N   UNL     1       5.475   3.326  13.118  0.00  0.00    +0.000 NA
ENDBRANCH  18  19
ENDBRANCH  17  18
ENDBRANCH   6  17
TORSDOF 5
ENDMDL
MODEL 8
REMARK VINA RESULT:      -7.0      0.729      1.237
REMARK  Name = 
REMARK  5 active torsions:
REMARK  status: ('A' for Active; 'I' for Inactive)
REMARK    1  A    between atoms: C_5  and  C_6
REMARK    2  A    between atoms: C_10  and  C_11
REMARK    3  A    between atoms: N_16  and  C_17
REMARK    4  A    between atoms: C_17  and  C_18
REMARK    5  A    between atoms: C_18  and  C_19
REMARK                            x       y       z     vdW  Elec       q    Type
REMARK                         _______ _______ _______ _____ _____    ______ ____
ROOT
ATOM      1  O   UNL     1       5.763   3.323  15.657  0.00  0.00    +0.000 OA
ATOM      2  C   UNL     1       5.655   4.056  16.634  0.00  0.00    +0.000 C 
ATOM      3  C   UNL     1       6.873   4.640  17.308  0.00  0.00    +0.000 C 
ATOM      4  S   UNL     1       6.287   5.887  18.458  0.00  0.00    +0.000 S 
ATOM      5  C   UNL     1       4.592   5.268  18.427  0.00  0.00    +0.000 C 
ATOM      6  N   UNL     1       4.467   4.395  17.268  0.00  0.00    +0.000 N 
ENDROOT
BRANCH   5   7
ATOM      7  C   UNL     1       3.570   6.384  18.480  0.00  0.00    +0.000 A 
ATOM      8  C   UNL     1       3.489   7.300  17.419  0.00  0.00    +0.000 A 
ATOM      9  C   UNL     1       2.657   8.415  17.503  0.00  0.00    +0.000 A 
ATOM     10  C   UNL     1       1.892   8.632  18.648  0.00  0.00    +0.000 A 
ATOM     11  C   UNL     1       1.923   7.715  19.708  0.00  0.00    +0.000 A 
ATOM     12  C   UNL     1       2.742   6.578  19.601  0.00  0.00    +0.000 A 
BRANCH  11  13
ATOM     13  C   UNL     1       1.124   7.950  20.966  0.00  0.00    +0.000 C 
ATOM     14  F   UNL     1       1.878   8.373  22.020  0.00  0.00    +0.000 F 
ATOM     15  F   UNL     1       0.152   8.891  20.801  0.00  0.00    +0.000 F 
ATOM     16  F   UNL     1       0.487   6.826  21.396  0.00  0.00    +0.000 F 
ENDBRANCH  11  13
ENDBRANCH   5   7
BRANCH   6  17
ATOM     17  C   UNL     1       3.126   3.907  16.851  0.00  0.00    +0.000 C 
BRANCH  17  18
ATOM     18  C   UNL     1       2.638   2.669  17.602  0.00  0.00    +0.000 C 
BRANCH  18  19
ATOM     19  C   UNL     1       2.263   2.814  19.057  0.00  0.00    +0.000 A 
ATOM     20  C   UNL     1       3.226   2.435  20.000  0.00  0.00    +0.000 A 
ATOM     21  C   UNL     1       2.947   2.558  21.356  0.00  0.00    +0.000 A 
ATOM     22  C   UNL     1       1.704   3.052  21.737  0.00  0.00    +0.000 A 
ATOM     23  C   UNL     1       0.800   3.396  20.742  0.00  0.00    +0.000 A 
ATOM     24  N   UNL     1       1.053   3.294  19.414  0.00  0.00    +0.000 NA
ENDBRANCH  18  19
ENDBRANCH  17  18
ENDBRANCH   6  17
TORSDOF 5
ENDMDL
MODEL 9
REMARK VINA RESULT:      -7.0      3.607      6.027
REMARK  Name = 
REMARK  5 active torsions:
REMARK  status: ('A' for Active; 'I' for Inactive)
REMARK    1  A    between atoms: C_5  and  C_6
REMARK    2  A    between atoms: C_10  and  C_11
REMARK    3  A    between atoms: N_16  and  C_17
REMARK    4  A    between atoms: C_17  and  C_18
REMARK    5  A    between atoms: C_18  and  C_19
REMARK                            x       y       z     vdW  Elec       q    Type
REMARK                         _______ _______ _______ _____ _____    ______ ____
ROOT
ATOM      1  O   UNL     1       1.547   9.438  17.398  0.00  0.00    +0.000 OA
ATOM      2  C   UNL     1       1.715   8.805  18.435  0.00  0.00    +0.000 C 
ATOM      3  C   UNL     1       1.187   9.316  19.753  0.00  0.00    +0.000 C 
ATOM      4  S   UNL     1       1.346   7.975  20.936  0.00  0.00    +0.000 S 
ATOM      5  C   UNL     1       2.506   7.061  19.900  0.00  0.00    +0.000 C 
ATOM      6  N   UNL     1       2.426   7.618  18.557  0.00  0.00    +0.000 N 
ENDROOT
BRANCH   5   7
ATOM      7  C   UNL     1       2.285   5.565  19.969  0.00  0.00    +0.000 A 
ATOM      8  C   UNL     1       1.023   5.069  20.332  0.00  0.00    +0.000 A 
ATOM      9  C   UNL     1       0.827   3.704  20.540  0.00  0.00    +0.000 A 
ATOM     10  C   UNL     1       1.889   2.814  20.385  0.00  0.00    +0.000 A 
ATOM     11  C   UNL     1       3.151   3.276  19.985  0.00  0.00    +0.000 A 
ATOM     12  C   UNL     1       3.330   4.650  19.749  0.00  0.00    +0.000 A 
BRANCH  11  13
ATOM     13  C   UNL     1       4.318   2.330  19.842  0.00  0.00    +0.000 C 
ATOM     14  F   UNL     1       4.055   1.257  19.044  0.00  0.00    +0.000 F 
ATOM     15  F   UNL     1       5.418   2.931  19.308  0.00  0.00    +0.000 F 
ATOM     16  F   UNL     1       4.718   1.812  21.036  0.00  0.00    +0.000 F 
ENDBRANCH  11  13
ENDBRANCH   5   7
BRANCH   6  17
ATOM     17  C   UNL     1       3.105   6.929  17.428  0.00  0.00    +0.000 C 
BRANCH  17  18
ATOM     18  C   UNL     1       4.581   7.285  17.261  0.00  0.00    +0.000 C 
BRANCH  18  19
ATOM     19  C   UNL     1       5.496   6.268  16.621  0.00  0.00    +0.000 A 
ATOM     20  C   UNL     1       6.320   5.530  17.478  0.00  0.00    +0.000 A 
ATOM     21  C   UNL     1       7.175   4.569  16.952  0.00  0.00    +0.000 A 
ATOM     22  C   UNL     1       7.189   4.372  15.575  0.00  0.00    +0.000 A 
ATOM     23  C   UNL     1       6.349   5.151  14.792  0.00  0.00    +0.000 A 
ATOM     24  N   UNL     1       5.500   6.087  15.283  0.00  0.00    +0.000 NA
ENDBRANCH  18  19
ENDBRANCH  17  18
ENDBRANCH   6  17
TORSDOF 5
ENDMDL
