MODEL 1
REMARK VINA RESULT:      -6.5      0.000      0.000
REMARK  Name = 
REMARK  6 active torsions:
REMARK  status: ('A' for Active; 'I' for Inactive)
REMARK    1  A    between atoms: C_1  and  C_2
REMARK    2  A    between atoms: C_2  and  C_3
REMARK    3  A    between atoms: C_2  and  N_19
REMARK    4  A    between atoms: C_3  and  C_4
REMARK    5  A    between atoms: N_10  and  C_11
REMARK    6  A    between atoms: C_11  and  C_12
REMARK                            x       y       z     vdW  Elec       q    Type
REMARK                         _______ _______ _______ _____ _____    ______ ____
ROOT
ATOM      1  C   UNL     1       6.538   5.325  15.365  0.00  0.00    +0.000 C 
ATOM      2  O   UNL     1       7.677   5.781  15.437  0.00  0.00    +0.000 OA
ATOM      3  N   UNL     1       5.619   5.447  16.403  0.00  0.00    +0.000 N 
ATOM      4  C   UNL     1       4.319   4.781  16.444  0.00  0.00    +0.000 C 
ATOM      5  C   UNL     1       4.310   3.464  17.209  0.00  0.00    +0.000 C 
ATOM      6  C   UNL     1       4.976   3.408  18.587  0.00  0.00    +0.000 C 
ATOM      7  N   UNL     1       5.150   4.623  19.383  0.00  0.00    +0.000 NA
ATOM      8  C   UNL     1       6.241   5.463  18.857  0.00  0.00    +0.000 C 
ATOM      9  C   UNL     1       5.971   6.263  17.571  0.00  0.00    +0.000 C 
ENDROOT
BRANCH   1  10
ATOM     10  C   UNL     1       6.047   4.609  14.119  0.00  0.00    +0.000 C 
BRANCH  10  12
ATOM     11  C   UNL     1       7.619   5.442  12.278  0.00  0.00    +0.000 C 
ATOM     12  C   UNL     1       7.152   4.250  13.121  0.00  0.00    +0.000 C 
BRANCH  12  13
ATOM     13  N   UNL     1       6.677   3.168  12.244  0.00  0.00    +0.000 N 
ATOM     14  C   UNL     1       5.364   2.837  12.016  0.00  0.00    +0.000 A 
ATOM     15  C   UNL     1       5.336   1.768  11.149  0.00  0.00    +0.000 A 
ATOM     16  C   UNL     1       6.677   1.431  10.852  0.00  0.00    +0.000 A 
ATOM     17  C   UNL     1       7.484   2.307  11.546  0.00  0.00    +0.000 A 
ENDBRANCH  12  13
ENDBRANCH  10  12
ENDBRANCH   1  10
BRANCH   7  18
ATOM     18  C   UNL     1       3.934   5.383  19.694  0.00  0.00    +0.000 C 
BRANCH  18  19
ATOM     19  C   UNL     1       2.816   4.492  20.151  0.00  0.00    +0.000 A 
ATOM     20  C   UNL     1       2.805   3.707  21.288  0.00  0.00    +0.000 A 
ATOM     21  S   UNL     1       1.311   2.878  21.421  0.00  0.00    +0.000 S 
ATOM     22  C   UNL     1       0.795   3.621  19.965  0.00  0.00    +0.000 A 
ATOM     23  N   UNL     1       1.652   4.436  19.391  0.00  0.00    +0.000 NA
ENDBRANCH  18  19
ENDBRANCH   7  18
TORSDOF 5
ENDMDL
MODEL 2
REMARK VINA RESULT:      -6.3      5.959      7.760
REMARK  Name = 
REMARK  6 active torsions:
REMARK  status: ('A' for Active; 'I' for Inactive)
REMARK    1  A    between atoms: C_1  and  C_2
REMARK    2  A    between atoms: C_2  and  C_3
REMARK    3  A    between atoms: C_2  and  N_19
REMARK    4  A    between atoms: C_3  and  C_4
REMARK    5  A    between atoms: N_10  and  C_11
REMARK    6  A    between atoms: C_11  and  C_12
REMARK                            x       y       z     vdW  Elec       q    Type
REMARK                         _______ _______ _______ _____ _____    ______ ____
ROOT
ATOM      1  C   UNL     1       2.005   6.762  19.561  0.00  0.00    +0.000 C 
ATOM      2  O   UNL     1       1.771   5.888  20.393  0.00  0.00    +0.000 OA
ATOM      3  N   UNL     1       1.844   8.116  19.837  0.00  0.00    +0.000 N 
ATOM      4  C   UNL     1       1.940   9.183  18.844  0.00  0.00    +0.000 C 
ATOM      5  C   UNL     1       0.604   9.617  18.255  0.00  0.00    +0.000 C 
ATOM      6  C   UNL     1      -0.568   9.884  19.204  0.00  0.00    +0.000 C 
ATOM      7  N   UNL     1      -0.331  10.228  20.606  0.00  0.00    +0.000 NA
ATOM      8  C   UNL     1       0.077   9.049  21.391  0.00  0.00    +0.000 C 
ATOM      9  C   UNL     1       1.512   8.527  21.207  0.00  0.00    +0.000 C 
ENDROOT
BRANCH   1  10
ATOM     10  C   UNL     1       2.511   6.418  18.171  0.00  0.00    +0.000 C 
BRANCH  10  12
ATOM     11  C   UNL     1       4.717   5.957  16.959  0.00  0.00    +0.000 C 
ATOM     12  C   UNL     1       3.819   5.622  18.155  0.00  0.00    +0.000 C 
BRANCH  12  13
ATOM     13  N   UNL     1       3.508   4.183  18.164  0.00  0.00    +0.000 N 
ATOM     14  C   UNL     1       2.596   3.554  17.354  0.00  0.00    +0.000 A 
ATOM     15  C   UNL     1       2.589   2.215  17.676  0.00  0.00    +0.000 A 
ATOM     16  C   UNL     1       3.518   2.030  18.726  0.00  0.00    +0.000 A 
ATOM     17  C   UNL     1       4.067   3.262  19.012  0.00  0.00    +0.000 A 
ENDBRANCH  12  13
ENDBRANCH  10  12
ENDBRANCH   1  10
BRANCH   7  18
ATOM     18  C   UNL     1       0.505  11.407  20.859  0.00  0.00    +0.000 C 
BRANCH  18  19
ATOM     19  C   UNL     1      -0.194  12.416  21.724  0.00  0.00    +0.000 A 
ATOM     20  C   UNL     1      -1.392  12.238  22.390  0.00  0.00    +0.000 A 
ATOM     21  S   UNL     1      -1.794  13.650  23.274  0.00  0.00    +0.000 S 
ATOM     22  C   UNL     1      -0.355  14.388  22.707  0.00  0.00    +0.000 A 
ATOM     23  N   UNL     1       0.398  13.662  21.910  0.00  0.00    +0.000 NA
ENDBRANCH  18  19
ENDBRANCH   7  18
TORSDOF 5
ENDMDL
MODEL 3
REMARK VINA RESULT:      -6.3      6.016      7.844
REMARK  Name = 
REMARK  6 active torsions:
REMARK  status: ('A' for Active; 'I' for Inactive)
REMARK    1  A    between atoms: C_1  and  C_2
REMARK    2  A    between atoms: C_2  and  C_3
REMARK    3  A    between atoms: C_2  and  N_19
REMARK    4  A    between atoms: C_3  and  C_4
REMARK    5  A    between atoms: N_10  and  C_11
REMARK    6  A    between atoms: C_11  and  C_12
REMARK                            x       y       z     vdW  Elec       q    Type
REMARK                         _______ _______ _______ _____ _____    ______ ____
ROOT
ATOM      1  C   UNL     1       2.029   6.799  19.553  0.00  0.00    +0.000 C 
ATOM      2  O   UNL     1       1.773   5.899  20.351  0.00  0.00    +0.000 OA
ATOM      3  N   UNL     1       1.816   8.141  19.851  0.00  0.00    +0.000 N 
ATOM      4  C   UNL     1       1.937   9.234  18.889  0.00  0.00    +0.000 C 
ATOM      5  C   UNL     1       0.625   9.648  18.237  0.00  0.00    +0.000 C 
ATOM      6  C   UNL     1      -0.604   9.861  19.126  0.00  0.00    +0.000 C 
ATOM      7  N   UNL     1      -0.453  10.177  20.547  0.00  0.00    +0.000 NA
ATOM      8  C   UNL     1      -0.057   8.991  21.326  0.00  0.00    +0.000 C 
ATOM      9  C   UNL     1       1.400   8.510  21.209  0.00  0.00    +0.000 C 
ENDROOT
BRANCH   1  10
ATOM     10  C   UNL     1       2.619   6.502  18.186  0.00  0.00    +0.000 C 
BRANCH  10  12
ATOM     11  C   UNL     1       4.827   5.901  17.039  0.00  0.00    +0.000 C 
ATOM     12  C   UNL     1       3.883   5.638  18.218  0.00  0.00    +0.000 C 
BRANCH  12  13
ATOM     13  N   UNL     1       3.496   4.218  18.246  0.00  0.00    +0.000 N 
ATOM     14  C   UNL     1       4.067   3.245  19.028  0.00  0.00    +0.000 A 
ATOM     15  C   UNL     1       3.436   2.052  18.757  0.00  0.00    +0.000 A 
ATOM     16  C   UNL     1       2.459   2.309  17.767  0.00  0.00    +0.000 A 
ATOM     17  C   UNL     1       2.522   3.652  17.465  0.00  0.00    +0.000 A 
ENDBRANCH  12  13
ENDBRANCH  10  12
ENDBRANCH   1  10
BRANCH   7  18
ATOM     18  C   UNL     1       0.335  11.371  20.872  0.00  0.00    +0.000 C 
BRANCH  18  19
ATOM     19  C   UNL     1      -0.499  12.436  21.524  0.00  0.00    +0.000 A 
ATOM     20  C   UNL     1      -1.258  13.394  20.880  0.00  0.00    +0.000 A 
ATOM     21  S   UNL     1      -2.061  14.383  22.026  0.00  0.00    +0.000 S 
ATOM     22  C   UNL     1      -1.342  13.469  23.285  0.00  0.00    +0.000 A 
ATOM     23  N   UNL     1      -0.551  12.486  22.914  0.00  0.00    +0.000 NA
ENDBRANCH  18  19
ENDBRANCH   7  18
TORSDOF 5
ENDMDL
MODEL 4
REMARK VINA RESULT:      -6.2      4.872      9.047
REMARK  Name = 
REMARK  6 active torsions:
REMARK  status: ('A' for Active; 'I' for Inactive)
REMARK    1  A    between atoms: C_1  and  C_2
REMARK    2  A    between atoms: C_2  and  C_3
REMARK    3  A    between atoms: C_2  and  N_19
REMARK    4  A    between atoms: C_3  and  C_4
REMARK    5  A    between atoms: N_10  and  C_11
REMARK    6  A    between atoms: C_11  and  C_12
REMARK                            x       y       z     vdW  Elec       q    Type
REMARK                         _______ _______ _______ _____ _____    ______ ____
ROOT
ATOM      1  C   UNL     1       1.498   8.112  19.907  0.00  0.00    +0.000 C 
ATOM      2  O   UNL     1       1.522   8.963  19.021  0.00  0.00    +0.000 OA
ATOM      3  N   UNL     1       2.293   6.970  19.866  0.00  0.00    +0.000 N 
ATOM      4  C   UNL     1       2.182   5.848  20.795  0.00  0.00    +0.000 C 
ATOM      5  C   UNL     1       1.314   4.701  20.297  0.00  0.00    +0.000 C 
ATOM      6  C   UNL     1       1.522   4.185  18.870  0.00  0.00    +0.000 C 
ATOM      7  N   UNL     1       2.798   4.385  18.182  0.00  0.00    +0.000 NA
ATOM      8  C   UNL     1       2.960   5.779  17.734  0.00  0.00    +0.000 C 
ATOM      9  C   UNL     1       3.292   6.839  18.800  0.00  0.00    +0.000 C 
ENDROOT
BRANCH   1  10
ATOM     10  C   UNL     1       0.606   8.262  21.127  0.00  0.00    +0.000 C 
BRANCH  10  12
ATOM     11  C   UNL     1       0.236   9.488  23.343  0.00  0.00    +0.000 C 
ATOM     12  C   UNL     1       0.865   9.530  21.946  0.00  0.00    +0.000 C 
BRANCH  12  13
ATOM     13  N   UNL     1       0.363  10.696  21.202  0.00  0.00    +0.000 N 
ATOM     14  C   UNL     1      -0.911  10.850  20.715  0.00  0.00    +0.000 A 
ATOM     15  C   UNL     1      -0.981  12.066  20.073  0.00  0.00    +0.000 A 
ATOM     16  C   UNL     1       0.298  12.662  20.161  0.00  0.00    +0.000 A 
ATOM     17  C   UNL     1       1.111  11.793  20.859  0.00  0.00    +0.000 A 
ENDBRANCH  12  13
ENDBRANCH  10  12
ENDBRANCH   1  10
BRANCH   7  18
ATOM     18  C   UNL     1       3.991   3.849  18.846  0.00  0.00    +0.000 C 
BRANCH  18  19
ATOM     19  C   UNL     1       5.244   4.137  18.072  0.00  0.00    +0.000 A 
ATOM     20  C   UNL     1       5.416   4.001  16.707  0.00  0.00    +0.000 A 
ATOM     21  S   UNL     1       7.003   4.467  16.260  0.00  0.00    +0.000 S 
ATOM     22  C   UNL     1       7.342   4.811  17.904  0.00  0.00    +0.000 A 
ATOM     23  N   UNL     1       6.362   4.603  18.757  0.00  0.00    +0.000 NA
ENDBRANCH  18  19
ENDBRANCH   7  18
TORSDOF 5
ENDMDL
MODEL 5
REMARK VINA RESULT:      -6.2      0.882      1.281
REMARK  Name = 
REMARK  6 active torsions:
REMARK  status: ('A' for Active; 'I' for Inactive)
REMARK    1  A    between atoms: C_1  and  C_2
REMARK    2  A    between atoms: C_2  and  C_3
REMARK    3  A    between atoms: C_2  and  N_19
REMARK    4  A    between atoms: C_3  and  C_4
REMARK    5  A    between atoms: N_10  and  C_11
REMARK    6  A    between atoms: C_11  and  C_12
REMARK                            x       y       z     vdW  Elec       q    Type
REMARK                         _______ _______ _______ _____ _____    ______ ____
ROOT
ATOM      1  C   UNL     1       6.494   5.705  15.728  0.00  0.00    +0.000 C 
ATOM      2  O   UNL     1       7.652   6.081  15.899  0.00  0.00    +0.000 OA
ATOM      3  N   UNL     1       5.556   5.688  16.756  0.00  0.00    +0.000 N 
ATOM      4  C   UNL     1       4.224   5.094  16.654  0.00  0.00    +0.000 C 
ATOM      5  C   UNL     1       4.132   3.664  17.168  0.00  0.00    +0.000 C 
ATOM      6  C   UNL     1       4.758   3.326  18.525  0.00  0.00    +0.000 C 
ATOM      7  N   UNL     1       4.971   4.368  19.530  0.00  0.00    +0.000 NA
ATOM      8  C   UNL     1       6.114   5.230  19.182  0.00  0.00    +0.000 C 
ATOM      9  C   UNL     1       5.917   6.262  18.057  0.00  0.00    +0.000 C 
ENDROOT
BRANCH   1  10
ATOM     10  C   UNL     1       6.001   5.252  14.365  0.00  0.00    +0.000 C 
BRANCH  10  12
ATOM     11  C   UNL     1       8.017   5.327  12.790  0.00  0.00    +0.000 C 
ATOM     12  C   UNL     1       7.026   4.447  13.560  0.00  0.00    +0.000 C 
BRANCH  12  13
ATOM     13  N   UNL     1       6.314   3.556  12.628  0.00  0.00    +0.000 N 
ATOM     14  C   UNL     1       6.886   2.567  11.868  0.00  0.00    +0.000 A 
ATOM     15  C   UNL     1       5.893   1.970  11.125  0.00  0.00    +0.000 A 
ATOM     16  C   UNL     1       4.682   2.630  11.434  0.00  0.00    +0.000 A 
ATOM     17  C   UNL     1       4.971   3.609  12.360  0.00  0.00    +0.000 A 
ENDBRANCH  12  13
ENDBRANCH  10  12
ENDBRANCH   1  10
BRANCH   7  18
ATOM     18  C   UNL     1       3.786   5.123  19.952  0.00  0.00    +0.000 C 
BRANCH  18  19
ATOM     19  C   UNL     1       2.619   4.223  20.240  0.00  0.00    +0.000 A 
ATOM     20  C   UNL     1       1.499   4.053  19.449  0.00  0.00    +0.000 A 
ATOM     21  S   UNL     1       0.439   2.911  20.161  0.00  0.00    +0.000 S 
ATOM     22  C   UNL     1       1.541   2.730  21.460  0.00  0.00    +0.000 A 
ATOM     23  N   UNL     1       2.636   3.458  21.402  0.00  0.00    +0.000 NA
ENDBRANCH  18  19
ENDBRANCH   7  18
TORSDOF 5
ENDMDL
MODEL 6
REMARK VINA RESULT:      -6.1      5.995      7.864
REMARK  Name = 
REMARK  6 active torsions:
REMARK  status: ('A' for Active; 'I' for Inactive)
REMARK    1  A    between atoms: C_1  and  C_2
REMARK    2  A    between atoms: C_2  and  C_3
REMARK    3  A    between atoms: C_2  and  N_19
REMARK    4  A    between atoms: C_3  and  C_4
REMARK    5  A    between atoms: N_10  and  C_11
REMARK    6  A    between atoms: C_11  and  C_12
REMARK                            x       y       z     vdW  Elec       q    Type
REMARK                         _______ _______ _______ _____ _____    ______ ____
ROOT
ATOM      1  C   UNL     1       1.917   6.687  19.694  0.00  0.00    +0.000 C 
ATOM      2  O   UNL     1       1.583   5.846  20.525  0.00  0.00    +0.000 OA
ATOM      3  N   UNL     1       1.845   8.054  19.946  0.00  0.00    +0.000 N 
ATOM      4  C   UNL     1       2.063   9.096  18.944  0.00  0.00    +0.000 C 
ATOM      5  C   UNL     1       0.790   9.617  18.291  0.00  0.00    +0.000 C 
ATOM      6  C   UNL     1      -0.399   9.984  19.183  0.00  0.00    +0.000 C 
ATOM      7  N   UNL     1      -0.199  10.331  20.590  0.00  0.00    +0.000 NA
ATOM      8  C   UNL     1       0.085   9.139  21.407  0.00  0.00    +0.000 C 
ATOM      9  C   UNL     1       1.485   8.509  21.293  0.00  0.00    +0.000 C 
ENDROOT
BRANCH   1  10
ATOM     10  C   UNL     1       2.457   6.286  18.332  0.00  0.00    +0.000 C 
BRANCH  10  12
ATOM     11  C   UNL     1       4.760   5.916  17.279  0.00  0.00    +0.000 C 
ATOM     12  C   UNL     1       3.775   5.507  18.380  0.00  0.00    +0.000 C 
BRANCH  12  13
ATOM     13  N   UNL     1       3.488   4.067  18.290  0.00  0.00    +0.000 N 
ATOM     14  C   UNL     1       2.538   3.486  17.488  0.00  0.00    +0.000 A 
ATOM     15  C   UNL     1       2.572   2.126  17.699  0.00  0.00    +0.000 A 
ATOM     16  C   UNL     1       3.566   1.876  18.673  0.00  0.00    +0.000 A 
ATOM     17  C   UNL     1       4.112   3.092  19.025  0.00  0.00    +0.000 A 
ENDBRANCH  12  13
ENDBRANCH  10  12
ENDBRANCH   1  10
BRANCH   7  18
ATOM     18  C   UNL     1       0.709  11.450  20.865  0.00  0.00    +0.000 C 
BRANCH  18  19
ATOM     19  C   UNL     1       0.181  12.749  20.330  0.00  0.00    +0.000 A 
ATOM     20  C   UNL     1       0.783  13.552  19.380  0.00  0.00    +0.000 A 
ATOM     21  S   UNL     1      -0.192  14.923  19.059  0.00  0.00    +0.000 S 
ATOM     22  C   UNL     1      -1.334  14.352  20.201  0.00  0.00    +0.000 A 
ATOM     23  N   UNL     1      -1.041  13.219  20.802  0.00  0.00    +0.000 NA
ENDBRANCH  18  19
ENDBRANCH   7  18
TORSDOF 5
ENDMDL
MODEL 7
REMARK VINA RESULT:      -6.1      5.838      7.418
REMARK  Name = 
REMARK  6 active torsions:
REMARK  status: ('A' for Active; 'I' for Inactive)
REMARK    1  A    between atoms: C_1  and  C_2
REMARK    2  A    between atoms: C_2  and  C_3
REMARK    3  A    between atoms: C_2  and  N_19
REMARK    4  A    between atoms: C_3  and  C_4
REMARK    5  A    between atoms: N_10  and  C_11
REMARK    6  A    between atoms: C_11  and  C_12
REMARK                            x       y       z     vdW  Elec       q    Type
REMARK                         _______ _______ _______ _____ _____    ______ ____
ROOT
ATOM      1  C   UNL     1       2.083   6.634  19.512  0.00  0.00    +0.000 C 
ATOM      2  O   UNL     1       1.718   5.757  20.292  0.00  0.00    +0.000 OA
ATOM      3  N   UNL     1       1.922   7.989  19.785  0.00  0.00    +0.000 N 
ATOM      4  C   UNL     1       2.175   9.064  18.829  0.00  0.00    +0.000 C 
ATOM      5  C   UNL     1       0.941   9.542  18.076  0.00  0.00    +0.000 C 
ATOM      6  C   UNL     1      -0.338   9.830  18.867  0.00  0.00    +0.000 C 
ATOM      7  N   UNL     1      -0.279  10.151  20.294  0.00  0.00    +0.000 NA
ATOM      8  C   UNL     1      -0.010   8.953  21.107  0.00  0.00    +0.000 C 
ATOM      9  C   UNL     1       1.424   8.393  21.105  0.00  0.00    +0.000 C 
ENDROOT
BRANCH   1  10
ATOM     10  C   UNL     1       2.758   6.292  18.195  0.00  0.00    +0.000 C 
BRANCH  10  12
ATOM     11  C   UNL     1       4.798   5.387  19.448  0.00  0.00    +0.000 C 
ATOM     12  C   UNL     1       3.809   5.183  18.294  0.00  0.00    +0.000 C 
BRANCH  12  13
ATOM     13  N   UNL     1       4.536   5.092  17.018  0.00  0.00    +0.000 N 
ATOM     14  C   UNL     1       4.992   6.153  16.276  0.00  0.00    +0.000 A 
ATOM     15  C   UNL     1       5.608   5.656  15.150  0.00  0.00    +0.000 A 
ATOM     16  C   UNL     1       5.510   4.246  15.205  0.00  0.00    +0.000 A 
ATOM     17  C   UNL     1       4.839   3.925  16.365  0.00  0.00    +0.000 A 
ENDBRANCH  12  13
ENDBRANCH  10  12
ENDBRANCH   1  10
BRANCH   7  18
ATOM     18  C   UNL     1       0.546  11.304  20.672  0.00  0.00    +0.000 C 
BRANCH  18  19
ATOM     19  C   UNL     1      -0.251  12.355  21.389  0.00  0.00    +0.000 A 
ATOM     20  C   UNL     1      -0.784  13.502  20.833  0.00  0.00    +0.000 A 
ATOM     21  S   UNL     1      -1.636  14.396  22.021  0.00  0.00    +0.000 S 
ATOM     22  C   UNL     1      -1.233  13.198  23.179  0.00  0.00    +0.000 A 
ATOM     23  N   UNL     1      -0.512  12.187  22.745  0.00  0.00    +0.000 NA
ENDBRANCH  18  19
ENDBRANCH   7  18
TORSDOF 5
ENDMDL
MODEL 8
REMARK VINA RESULT:      -6.0      6.812      8.870
REMARK  Name = 
REMARK  6 active torsions:
REMARK  status: ('A' for Active; 'I' for Inactive)
REMARK    1  A    between atoms: C_1  and  C_2
REMARK    2  A    between atoms: C_2  and  C_3
REMARK    3  A    between atoms: C_2  and  N_19
REMARK    4  A    between atoms: C_3  and  C_4
REMARK    5  A    between atoms: N_10  and  C_11
REMARK    6  A    between atoms: C_11  and  C_12
REMARK                            x       y       z     vdW  Elec       q    Type
REMARK                         _______ _______ _______ _____ _____    ______ ____
ROOT
ATOM      1  C   UNL     1       1.716   9.621  18.111  0.00  0.00    +0.000 C 
ATOM      2  O   UNL     1       2.508  10.397  17.581  0.00  0.00    +0.000 OA
ATOM      3  N   UNL     1       0.775  10.039  19.048  0.00  0.00    +0.000 N 
ATOM      4  C   UNL     1      -0.070   9.142  19.832  0.00  0.00    +0.000 C 
ATOM      5  C   UNL     1       0.477   8.809  21.214  0.00  0.00    +0.000 C 
ATOM      6  C   UNL     1       0.997   9.949  22.094  0.00  0.00    +0.000 C 
ATOM      7  N   UNL     1       0.537  11.323  21.889  0.00  0.00    +0.000 NA
ATOM      8  C   UNL     1       1.150  11.926  20.693  0.00  0.00    +0.000 C 
ATOM      9  C   UNL     1       0.631  11.474  19.316  0.00  0.00    +0.000 C 
ENDROOT
BRANCH   1  10
ATOM     10  C   UNL     1       1.697   8.144  17.758  0.00  0.00    +0.000 C 
BRANCH  10  12
ATOM     11  C   UNL     1       4.016   7.115  17.420  0.00  0.00    +0.000 C 
ATOM     12  C   UNL     1       2.839   7.333  18.378  0.00  0.00    +0.000 C 
BRANCH  12  13
ATOM     13  N   UNL     1       2.315   6.036  18.835  0.00  0.00    +0.000 N 
ATOM     14  C   UNL     1       2.058   5.688  20.138  0.00  0.00    +0.000 A 
ATOM     15  C   UNL     1       1.591   4.393  20.151  0.00  0.00    +0.000 A 
ATOM     16  C   UNL     1       1.579   3.936  18.813  0.00  0.00    +0.000 A 
ATOM     17  C   UNL     1       2.036   4.968  18.022  0.00  0.00    +0.000 A 
ENDBRANCH  12  13
ENDBRANCH  10  12
ENDBRANCH   1  10
BRANCH   7  18
ATOM     18  C   UNL     1      -0.911  11.548  21.972  0.00  0.00    +0.000 C 
BRANCH  18  19
ATOM     19  C   UNL     1      -1.240  12.963  22.347  0.00  0.00    +0.000 A 
ATOM     20  C   UNL     1      -2.117  13.805  21.688  0.00  0.00    +0.000 A 
ATOM     21  S   UNL     1      -2.196  15.319  22.486  0.00  0.00    +0.000 S 
ATOM     22  C   UNL     1      -1.065  14.747  23.638  0.00  0.00    +0.000 A 
ATOM     23  N   UNL     1      -0.634  13.515  23.471  0.00  0.00    +0.000 NA
ENDBRANCH  18  19
ENDBRANCH   7  18
TORSDOF 5
ENDMDL
MODEL 9
REMARK VINA RESULT:      -6.0      5.827      7.459
REMARK  Name = 
REMARK  6 active torsions:
REMARK  status: ('A' for Active; 'I' for Inactive)
REMARK    1  A    between atoms: C_1  and  C_2
REMARK    2  A    between atoms: C_2  and  C_3
REMARK    3  A    between atoms: C_2  and  N_19
REMARK    4  A    between atoms: C_3  and  C_4
REMARK    5  A    between atoms: N_10  and  C_11
REMARK    6  A    between atoms: C_11  and  C_12
REMARK                            x       y       z     vdW  Elec       q    Type
REMARK                         _______ _______ _______ _____ _____    ______ ____
ROOT
ATOM      1  C   UNL     1       1.997   6.470  19.525  0.00  0.00    +0.000 C 
ATOM      2  O   UNL     1       1.604   5.674  20.376  0.00  0.00    +0.000 OA
ATOM      3  N   UNL     1       1.966   7.847  19.723  0.00  0.00    +0.000 N 
ATOM      4  C   UNL     1       2.255   8.840  18.691  0.00  0.00    +0.000 C 
ATOM      5  C   UNL     1       1.025   9.380  17.974  0.00  0.00    +0.000 C 
ATOM      6  C   UNL     1      -0.179   9.823  18.809  0.00  0.00    +0.000 C 
ATOM      7  N   UNL     1      -0.014  10.218  20.208  0.00  0.00    +0.000 NA
ATOM      8  C   UNL     1       0.199   9.049  21.079  0.00  0.00    +0.000 C 
ATOM      9  C   UNL     1       1.578   8.367  21.039  0.00  0.00    +0.000 C 
ENDROOT
BRANCH   1  10
ATOM     10  C   UNL     1       2.567   5.996  18.200  0.00  0.00    +0.000 C 
BRANCH  10  12
ATOM     11  C   UNL     1       4.727   5.451  19.459  0.00  0.00    +0.000 C 
ATOM     12  C   UNL     1       3.769   5.056  18.329  0.00  0.00    +0.000 C 
BRANCH  12  13
ATOM     13  N   UNL     1       4.491   5.018  17.047  0.00  0.00    +0.000 N 
ATOM     14  C   UNL     1       4.838   3.885  16.355  0.00  0.00    +0.000 A 
ATOM     15  C   UNL     1       5.508   4.267  15.215  0.00  0.00    +0.000 A 
ATOM     16  C   UNL     1       5.583   5.679  15.225  0.00  0.00    +0.000 A 
ATOM     17  C   UNL     1       4.952   6.117  16.370  0.00  0.00    +0.000 A 
ENDBRANCH  12  13
ENDBRANCH  10  12
ENDBRANCH   1  10
BRANCH   7  18
ATOM     18  C   UNL     1       0.925  11.314  20.473  0.00  0.00    +0.000 C 
BRANCH  18  19
ATOM     19  C   UNL     1       0.367  12.645  20.061  0.00  0.00    +0.000 A 
ATOM     20  C   UNL     1       0.888  13.494  19.102  0.00  0.00    +0.000 A 
ATOM     21  S   UNL     1      -0.093  14.889  18.949  0.00  0.00    +0.000 S 
ATOM     22  C   UNL     1      -1.131  14.266  20.162  0.00  0.00    +0.000 A 
ATOM     23  N   UNL     1      -0.799  13.099  20.670  0.00  0.00    +0.000 NA
ENDBRANCH  18  19
ENDBRANCH   7  18
TORSDOF 5
ENDMDL
