MODEL 1
REMARK VINA RESULT:      -6.9      0.000      0.000
REMARK  Name = 
REMARK  7 active torsions:
REMARK  status: ('A' for Active; 'I' for Inactive)
REMARK    1  A    between atoms: C_1  and  N_2
REMARK    2  A    between atoms: N_5  and  C_6
REMARK    3  A    between atoms: C_6  and  C_7
REMARK    4  A    between atoms: C_7  and  C_8
REMARK    5  A    between atoms: C_11  and  N_12
REMARK    6  A    between atoms: N_12  and  S_13
REMARK    7  A    between atoms: S_13  and  C_14
REMARK                            x       y       z     vdW  Elec       q    Type
REMARK                         _______ _______ _______ _____ _____    ______ ____
ROOT
ATOM      1  C   UNL     1       7.847   7.902  17.991  0.00  0.00    +0.000 A 
ATOM      2  C   UNL     1       8.296   6.953  18.917  0.00  0.00    +0.000 A 
ATOM      3  C   UNL     1       7.757   5.664  18.938  0.00  0.00    +0.000 A 
ATOM      4  C   UNL     1       6.756   5.309  18.039  0.00  0.00    +0.000 A 
ATOM      5  C   UNL     1       6.271   6.247  17.133  0.00  0.00    +0.000 A 
ATOM      6  C   UNL     1       6.813   7.538  17.109  0.00  0.00    +0.000 A 
ENDROOT
BRANCH   4   7
ATOM      7  N   UNL     1       6.199   4.003  18.118  0.00  0.00    +0.000 N 
ATOM      8  H   UNL     1       6.076   3.516  17.227  0.00  0.00    +0.000 HD
BRANCH   7   9
ATOM      9  S   UNL     1       4.779   3.817  19.027  0.00  0.00    +0.000 S 
ATOM     10  C   UNL     1       3.597   3.418  17.758  0.00  0.00    +0.000 C 
ATOM     11  O   UNL     1       4.915   2.692  19.927  0.00  0.00    +0.000 OA
ATOM     12  O   UNL     1       4.472   5.143  19.520  0.00  0.00    +0.000 OA
ENDBRANCH   7   9
ENDBRANCH   4   7
BRANCH   1  13
ATOM     13  C   UNL     1       8.362   9.326  17.972  0.00  0.00    +0.000 C 
BRANCH  13  14
ATOM     14  C   UNL     1       9.094   9.808  19.231  0.00  0.00    +0.000 C 
BRANCH  14  19
ATOM     15  C   UNL     1      11.620  13.319  16.871  0.00  0.00    +0.000 C 
ATOM     16  N   UNL     1      11.068  12.522  17.956  0.00  0.00    +0.000 N 
ATOM     17  C   UNL     1      11.287  12.713  19.309  0.00  0.00    +0.000 A 
ATOM     18  C   UNL     1      10.582  11.742  19.964  0.00  0.00    +0.000 A 
ATOM     19  N   UNL     1       9.958  10.976  18.993  0.00  0.00    +0.000 N 
ATOM     20  C   UNL     1      10.258  11.467  17.781  0.00  0.00    +0.000 A 
ENDBRANCH  14  19
ENDBRANCH  13  14
ENDBRANCH   1  13
TORSDOF 5
ENDMDL
MODEL 2
REMARK VINA RESULT:      -6.9      1.129      1.416
REMARK  Name = 
REMARK  7 active torsions:
REMARK  status: ('A' for Active; 'I' for Inactive)
REMARK    1  A    between atoms: C_1  and  N_2
REMARK    2  A    between atoms: N_5  and  C_6
REMARK    3  A    between atoms: C_6  and  C_7
REMARK    4  A    between atoms: C_7  and  C_8
REMARK    5  A    between atoms: C_11  and  N_12
REMARK    6  A    between atoms: N_12  and  S_13
REMARK    7  A    between atoms: S_13  and  C_14
REMARK                            x       y       z     vdW  Elec       q    Type
REMARK                         _______ _______ _______ _____ _____    ______ ____
ROOT
ATOM      1  C   UNL     1       7.650   7.661  17.837  0.00  0.00    +0.000 A 
ATOM      2  C   UNL     1       8.172   6.793  18.804  0.00  0.00    +0.000 A 
ATOM      3  C   UNL     1       7.629   5.519  18.990  0.00  0.00    +0.000 A 
ATOM      4  C   UNL     1       6.550   5.099  18.219  0.00  0.00    +0.000 A 
ATOM      5  C   UNL     1       5.993   5.958  17.276  0.00  0.00    +0.000 A 
ATOM      6  C   UNL     1       6.540   7.233  17.087  0.00  0.00    +0.000 A 
ENDROOT
BRANCH   4   7
ATOM      7  N   UNL     1       5.993   3.815  18.466  0.00  0.00    +0.000 N 
ATOM      8  H   UNL     1       6.140   3.116  17.733  0.00  0.00    +0.000 HD
BRANCH   7   9
ATOM      9  S   UNL     1       4.367   3.750  18.944  0.00  0.00    +0.000 S 
ATOM     10  C   UNL     1       4.366   2.319  20.002  0.00  0.00    +0.000 C 
ATOM     11  O   UNL     1       4.037   4.923  19.724  0.00  0.00    +0.000 OA
ATOM     12  O   UNL     1       3.634   3.414  17.742  0.00  0.00    +0.000 OA
ENDBRANCH   7   9
ENDBRANCH   4   7
BRANCH   1  13
ATOM     13  C   UNL     1       8.171   9.069  17.643  0.00  0.00    +0.000 C 
BRANCH  13  14
ATOM     14  C   UNL     1       8.870   9.715  18.847  0.00  0.00    +0.000 C 
BRANCH  14  19
ATOM     15  C   UNL     1      12.238  13.300  18.568  0.00  0.00    +0.000 C 
ATOM     16  N   UNL     1      10.981  12.584  18.406  0.00  0.00    +0.000 N 
ATOM     17  C   UNL     1       9.836  13.063  17.794  0.00  0.00    +0.000 A 
ATOM     18  C   UNL     1       8.904  12.066  17.867  0.00  0.00    +0.000 A 
ATOM     19  N   UNL     1       9.500  11.007  18.531  0.00  0.00    +0.000 N 
ATOM     20  C   UNL     1      10.763  11.335  18.845  0.00  0.00    +0.000 A 
ENDBRANCH  14  19
ENDBRANCH  13  14
ENDBRANCH   1  13
TORSDOF 5
ENDMDL
MODEL 3
REMARK VINA RESULT:      -6.8      1.112      1.819
REMARK  Name = 
REMARK  7 active torsions:
REMARK  status: ('A' for Active; 'I' for Inactive)
REMARK    1  A    between atoms: C_1  and  N_2
REMARK    2  A    between atoms: N_5  and  C_6
REMARK    3  A    between atoms: C_6  and  C_7
REMARK    4  A    between atoms: C_7  and  C_8
REMARK    5  A    between atoms: C_11  and  N_12
REMARK    6  A    between atoms: N_12  and  S_13
REMARK    7  A    between atoms: S_13  and  C_14
REMARK                            x       y       z     vdW  Elec       q    Type
REMARK                         _______ _______ _______ _____ _____    ______ ____
ROOT
ATOM      1  C   UNL     1       7.583   7.700  17.896  0.00  0.00    +0.000 A 
ATOM      2  C   UNL     1       6.497   7.266  17.126  0.00  0.00    +0.000 A 
ATOM      3  C   UNL     1       5.951   5.993  17.313  0.00  0.00    +0.000 A 
ATOM      4  C   UNL     1       6.490   5.133  18.264  0.00  0.00    +0.000 A 
ATOM      5  C   UNL     1       7.591   5.530  19.017  0.00  0.00    +0.000 A 
ATOM      6  C   UNL     1       8.136   6.807  18.832  0.00  0.00    +0.000 A 
ENDROOT
BRANCH   4   7
ATOM      7  N   UNL     1       5.939   3.829  18.396  0.00  0.00    +0.000 N 
ATOM      8  H   UNL     1       6.063   3.209  17.592  0.00  0.00    +0.000 HD
BRANCH   7   9
ATOM      9  S   UNL     1       4.329   3.713  18.915  0.00  0.00    +0.000 S 
ATOM     10  C   UNL     1       4.394   2.264  19.948  0.00  0.00    +0.000 C 
ATOM     11  O   UNL     1       3.989   4.863  19.725  0.00  0.00    +0.000 OA
ATOM     12  O   UNL     1       3.574   3.379  17.727  0.00  0.00    +0.000 OA
ENDBRANCH   7   9
ENDBRANCH   4   7
BRANCH   1  13
ATOM     13  C   UNL     1       8.241   9.047  17.687  0.00  0.00    +0.000 C 
BRANCH  13  14
ATOM     14  C   UNL     1       8.963   9.653  18.898  0.00  0.00    +0.000 C 
BRANCH  14  19
ATOM     15  C   UNL     1      12.083  13.466  18.954  0.00  0.00    +0.000 C 
ATOM     16  N   UNL     1      10.911  12.658  18.650  0.00  0.00    +0.000 N 
ATOM     17  C   UNL     1       9.827  13.040  17.881  0.00  0.00    +0.000 A 
ATOM     18  C   UNL     1       8.964  11.980  17.861  0.00  0.00    +0.000 A 
ATOM     19  N   UNL     1       9.540  10.980  18.628  0.00  0.00    +0.000 N 
ATOM     20  C   UNL     1      10.724  11.406  19.094  0.00  0.00    +0.000 A 
ENDBRANCH  14  19
ENDBRANCH  13  14
ENDBRANCH   1  13
TORSDOF 5
ENDMDL
MODEL 4
REMARK VINA RESULT:      -6.8      0.836      1.499
REMARK  Name = 
REMARK  7 active torsions:
REMARK  status: ('A' for Active; 'I' for Inactive)
REMARK    1  A    between atoms: C_1  and  N_2
REMARK    2  A    between atoms: N_5  and  C_6
REMARK    3  A    between atoms: C_6  and  C_7
REMARK    4  A    between atoms: C_7  and  C_8
REMARK    5  A    between atoms: C_11  and  N_12
REMARK    6  A    between atoms: N_12  and  S_13
REMARK    7  A    between atoms: S_13  and  C_14
REMARK                            x       y       z     vdW  Elec       q    Type
REMARK                         _______ _______ _______ _____ _____    ______ ____
ROOT
ATOM      1  C   UNL     1       7.796   7.864  18.023  0.00  0.00    +0.000 A 
ATOM      2  C   UNL     1       6.756   7.462  17.176  0.00  0.00    +0.000 A 
ATOM      3  C   UNL     1       6.177   6.197  17.305  0.00  0.00    +0.000 A 
ATOM      4  C   UNL     1       6.637   5.313  18.276  0.00  0.00    +0.000 A 
ATOM      5  C   UNL     1       7.692   5.678  19.105  0.00  0.00    +0.000 A 
ATOM      6  C   UNL     1       8.270   6.947  18.979  0.00  0.00    +0.000 A 
ENDROOT
BRANCH   4   7
ATOM      7  N   UNL     1       6.056   4.017  18.349  0.00  0.00    +0.000 N 
ATOM      8  H   UNL     1       6.195   3.419  17.530  0.00  0.00    +0.000 HD
BRANCH   7   9
ATOM      9  S   UNL     1       4.426   3.920  18.809  0.00  0.00    +0.000 S 
ATOM     10  C   UNL     1       4.428   2.443  19.803  0.00  0.00    +0.000 C 
ATOM     11  O   UNL     1       4.081   5.054  19.637  0.00  0.00    +0.000 OA
ATOM     12  O   UNL     1       3.707   3.632  17.587  0.00  0.00    +0.000 OA
ENDBRANCH   7   9
ENDBRANCH   4   7
BRANCH   1  13
ATOM     13  C   UNL     1       8.490   9.202  17.881  0.00  0.00    +0.000 C 
BRANCH  13  14
ATOM     14  C   UNL     1       9.004   9.849  19.173  0.00  0.00    +0.000 C 
BRANCH  14  19
ATOM     15  C   UNL     1      11.651  13.290  16.843  0.00  0.00    +0.000 C 
ATOM     16  N   UNL     1      11.126  12.456  17.914  0.00  0.00    +0.000 N 
ATOM     17  C   UNL     1      11.499  12.500  19.247  0.00  0.00    +0.000 A 
ATOM     18  C   UNL     1      10.760  11.549  19.893  0.00  0.00    +0.000 A 
ATOM     19  N   UNL     1       9.963  10.941  18.937  0.00  0.00    +0.000 N 
ATOM     20  C   UNL     1      10.193  11.509  17.743  0.00  0.00    +0.000 A 
ENDBRANCH  14  19
ENDBRANCH  13  14
ENDBRANCH   1  13
TORSDOF 5
ENDMDL
MODEL 5
REMARK VINA RESULT:      -6.6      0.867      1.209
REMARK  Name = 
REMARK  7 active torsions:
REMARK  status: ('A' for Active; 'I' for Inactive)
REMARK    1  A    between atoms: C_1  and  N_2
REMARK    2  A    between atoms: N_5  and  C_6
REMARK    3  A    between atoms: C_6  and  C_7
REMARK    4  A    between atoms: C_7  and  C_8
REMARK    5  A    between atoms: C_11  and  N_12
REMARK    6  A    between atoms: N_12  and  S_13
REMARK    7  A    between atoms: S_13  and  C_14
REMARK                            x       y       z     vdW  Elec       q    Type
REMARK                         _______ _______ _______ _____ _____    ______ ____
ROOT
ATOM      1  C   UNL     1       7.501   7.595  17.764  0.00  0.00    +0.000 A 
ATOM      2  C   UNL     1       8.001   6.616  18.631  0.00  0.00    +0.000 A 
ATOM      3  C   UNL     1       7.436   5.338  18.669  0.00  0.00    +0.000 A 
ATOM      4  C   UNL     1       6.356   5.026  17.849  0.00  0.00    +0.000 A 
ATOM      5  C   UNL     1       5.822   5.994  17.004  0.00  0.00    +0.000 A 
ATOM      6  C   UNL     1       6.391   7.273  16.963  0.00  0.00    +0.000 A 
ENDROOT
BRANCH   4   7
ATOM      7  N   UNL     1       5.777   3.731  17.946  0.00  0.00    +0.000 N 
ATOM      8  H   UNL     1       5.422   3.334  17.072  0.00  0.00    +0.000 HD
BRANCH   7   9
ATOM      9  S   UNL     1       4.611   3.489  19.154  0.00  0.00    +0.000 S 
ATOM     10  C   UNL     1       3.289   2.743  18.224  0.00  0.00    +0.000 C 
ATOM     11  O   UNL     1       5.103   2.544  20.131  0.00  0.00    +0.000 OA
ATOM     12  O   UNL     1       4.187   4.819  19.538  0.00  0.00    +0.000 OA
ENDBRANCH   7   9
ENDBRANCH   4   7
BRANCH   1  13
ATOM     13  C   UNL     1       8.045   9.007  17.732  0.00  0.00    +0.000 C 
BRANCH  13  14
ATOM     14  C   UNL     1       8.925   9.430  18.916  0.00  0.00    +0.000 C 
BRANCH  14  19
ATOM     15  C   UNL     1      11.597  13.485  19.750  0.00  0.00    +0.000 C 
ATOM     16  N   UNL     1      10.605  12.592  19.169  0.00  0.00    +0.000 N 
ATOM     17  C   UNL     1       9.703  12.906  18.167  0.00  0.00    +0.000 A 
ATOM     18  C   UNL     1       8.966  11.780  17.933  0.00  0.00    +0.000 A 
ATOM     19  N   UNL     1       9.430  10.808  18.805  0.00  0.00    +0.000 N 
ATOM     20  C   UNL     1      10.429  11.316  19.543  0.00  0.00    +0.000 A 
ENDBRANCH  14  19
ENDBRANCH  13  14
ENDBRANCH   1  13
TORSDOF 5
ENDMDL
MODEL 6
REMARK VINA RESULT:      -6.6      5.385      7.647
REMARK  Name = 
REMARK  7 active torsions:
REMARK  status: ('A' for Active; 'I' for Inactive)
REMARK    1  A    between atoms: C_1  and  N_2
REMARK    2  A    between atoms: N_5  and  C_6
REMARK    3  A    between atoms: C_6  and  C_7
REMARK    4  A    between atoms: C_7  and  C_8
REMARK    5  A    between atoms: C_11  and  N_12
REMARK    6  A    between atoms: N_12  and  S_13
REMARK    7  A    between atoms: S_13  and  C_14
REMARK                            x       y       z     vdW  Elec       q    Type
REMARK                         _______ _______ _______ _____ _____    ______ ____
ROOT
ATOM      1  C   UNL     1       2.247   5.056  18.465  0.00  0.00    +0.000 A 
ATOM      2  C   UNL     1       1.857   4.719  19.767  0.00  0.00    +0.000 A 
ATOM      3  C   UNL     1       1.667   5.708  20.735  0.00  0.00    +0.000 A 
ATOM      4  C   UNL     1       1.875   7.047  20.418  0.00  0.00    +0.000 A 
ATOM      5  C   UNL     1       2.297   7.402  19.140  0.00  0.00    +0.000 A 
ATOM      6  C   UNL     1       2.483   6.411  18.169  0.00  0.00    +0.000 A 
ENDROOT
BRANCH   4   7
ATOM      7  N   UNL     1       1.717   8.023  21.440  0.00  0.00    +0.000 N 
ATOM      8  H   UNL     1       1.936   7.714  22.390  0.00  0.00    +0.000 HD
BRANCH   7   9
ATOM      9  S   UNL     1       0.252   8.876  21.481  0.00  0.00    +0.000 S 
ATOM     10  C   UNL     1       0.281   9.548  23.130  0.00  0.00    +0.000 C 
ATOM     11  O   UNL     1       0.286   9.959  20.522  0.00  0.00    +0.000 OA
ATOM     12  O   UNL     1      -0.776   7.860  21.433  0.00  0.00    +0.000 OA
ENDBRANCH   7   9
ENDBRANCH   4   7
BRANCH   1  13
ATOM     13  C   UNL     1       2.520   4.013  17.402  0.00  0.00    +0.000 C 
BRANCH  13  14
ATOM     14  C   UNL     1       3.766   3.140  17.602  0.00  0.00    +0.000 C 
BRANCH  14  19
ATOM     15  C   UNL     1       7.736   5.722  18.962  0.00  0.00    +0.000 C 
ATOM     16  N   UNL     1       6.774   5.029  18.116  0.00  0.00    +0.000 N 
ATOM     17  C   UNL     1       6.830   4.907  16.739  0.00  0.00    +0.000 A 
ATOM     18  C   UNL     1       5.731   4.186  16.363  0.00  0.00    +0.000 A 
ATOM     19  N   UNL     1       5.027   3.895  17.520  0.00  0.00    +0.000 N 
ATOM     20  C   UNL     1       5.677   4.409  18.575  0.00  0.00    +0.000 A 
ENDBRANCH  14  19
ENDBRANCH  13  14
ENDBRANCH   1  13
TORSDOF 5
ENDMDL
MODEL 7
REMARK VINA RESULT:      -6.5      5.824      7.157
REMARK  Name = 
REMARK  7 active torsions:
REMARK  status: ('A' for Active; 'I' for Inactive)
REMARK    1  A    between atoms: C_1  and  N_2
REMARK    2  A    between atoms: N_5  and  C_6
REMARK    3  A    between atoms: C_6  and  C_7
REMARK    4  A    between atoms: C_7  and  C_8
REMARK    5  A    between atoms: C_11  and  N_12
REMARK    6  A    between atoms: N_12  and  S_13
REMARK    7  A    between atoms: S_13  and  C_14
REMARK                            x       y       z     vdW  Elec       q    Type
REMARK                         _______ _______ _______ _____ _____    ______ ____
ROOT
ATOM      1  C   UNL     1       5.001   4.881  17.147  0.00  0.00    +0.000 A 
ATOM      2  C   UNL     1       5.362   5.156  18.472  0.00  0.00    +0.000 A 
ATOM      3  C   UNL     1       4.805   4.433  19.530  0.00  0.00    +0.000 A 
ATOM      4  C   UNL     1       3.872   3.432  19.278  0.00  0.00    +0.000 A 
ATOM      5  C   UNL     1       3.473   3.165  17.972  0.00  0.00    +0.000 A 
ATOM      6  C   UNL     1       4.034   3.887  16.912  0.00  0.00    +0.000 A 
ENDROOT
BRANCH   4   7
ATOM      7  N   UNL     1       3.291   2.747  20.381  0.00  0.00    +0.000 N 
ATOM      8  H   UNL     1       3.401   1.730  20.383  0.00  0.00    +0.000 HD
BRANCH   7   9
ATOM      9  S   UNL     1       1.678   3.109  20.759  0.00  0.00    +0.000 S 
ATOM     10  C   UNL     1       1.717   4.888  20.809  0.00  0.00    +0.000 C 
ATOM     11  O   UNL     1       0.812   2.679  19.683  0.00  0.00    +0.000 OA
ATOM     12  O   UNL     1       1.492   2.631  22.113  0.00  0.00    +0.000 OA
ENDBRANCH   7   9
ENDBRANCH   4   7
BRANCH   1  13
ATOM     13  C   UNL     1       5.536   5.678  15.977  0.00  0.00    +0.000 C 
BRANCH  13  14
ATOM     14  C   UNL     1       6.903   5.253  15.425  0.00  0.00    +0.000 C 
BRANCH  14  19
ATOM     15  C   UNL     1       5.472   2.470  11.619  0.00  0.00    +0.000 C 
ATOM     16  N   UNL     1       6.204   3.461  12.394  0.00  0.00    +0.000 N 
ATOM     17  C   UNL     1       7.236   4.263  11.937  0.00  0.00    +0.000 A 
ATOM     18  C   UNL     1       7.628   5.038  12.992  0.00  0.00    +0.000 A 
ATOM     19  N   UNL     1       6.833   4.683  14.069  0.00  0.00    +0.000 N 
ATOM     20  C   UNL     1       5.969   3.730  13.687  0.00  0.00    +0.000 A 
ENDBRANCH  14  19
ENDBRANCH  13  14
ENDBRANCH   1  13
TORSDOF 5
ENDMDL
MODEL 8
REMARK VINA RESULT:      -6.5      5.898      7.302
REMARK  Name = 
REMARK  7 active torsions:
REMARK  status: ('A' for Active; 'I' for Inactive)
REMARK    1  A    between atoms: C_1  and  N_2
REMARK    2  A    between atoms: N_5  and  C_6
REMARK    3  A    between atoms: C_6  and  C_7
REMARK    4  A    between atoms: C_7  and  C_8
REMARK    5  A    between atoms: C_11  and  N_12
REMARK    6  A    between atoms: N_12  and  S_13
REMARK    7  A    between atoms: S_13  and  C_14
REMARK                            x       y       z     vdW  Elec       q    Type
REMARK                         _______ _______ _______ _____ _____    ______ ____
ROOT
ATOM      1  C   UNL     1       4.866   4.897  16.995  0.00  0.00    +0.000 A 
ATOM      2  C   UNL     1       3.791   4.018  16.810  0.00  0.00    +0.000 A 
ATOM      3  C   UNL     1       3.271   3.290  17.883  0.00  0.00    +0.000 A 
ATOM      4  C   UNL     1       3.825   3.421  19.152  0.00  0.00    +0.000 A 
ATOM      5  C   UNL     1       4.915   4.262  19.352  0.00  0.00    +0.000 A 
ATOM      6  C   UNL     1       5.434   4.995  18.277  0.00  0.00    +0.000 A 
ENDROOT
BRANCH   4   7
ATOM      7  N   UNL     1       3.300   2.630  20.212  0.00  0.00    +0.000 N 
ATOM      8  H   UNL     1       3.313   1.619  20.061  0.00  0.00    +0.000 HD
BRANCH   7   9
ATOM      9  S   UNL     1       1.778   3.060  20.822  0.00  0.00    +0.000 S 
ATOM     10  C   UNL     1       1.918   4.832  20.906  0.00  0.00    +0.000 C 
ATOM     11  O   UNL     1       0.748   2.705  19.870  0.00  0.00    +0.000 OA
ATOM     12  O   UNL     1       1.759   2.551  22.177  0.00  0.00    +0.000 OA
ENDBRANCH   7   9
ENDBRANCH   4   7
BRANCH   1  13
ATOM     13  C   UNL     1       5.497   5.661  15.850  0.00  0.00    +0.000 C 
BRANCH  13  14
ATOM     14  C   UNL     1       6.849   5.143  15.342  0.00  0.00    +0.000 C 
BRANCH  14  19
ATOM     15  C   UNL     1       5.464   2.340  11.535  0.00  0.00    +0.000 C 
ATOM     16  N   UNL     1       6.175   3.346  12.308  0.00  0.00    +0.000 N 
ATOM     17  C   UNL     1       7.183   4.176  11.848  0.00  0.00    +0.000 A 
ATOM     18  C   UNL     1       7.563   4.956  12.904  0.00  0.00    +0.000 A 
ATOM     19  N   UNL     1       6.784   4.577  13.985  0.00  0.00    +0.000 N 
ATOM     20  C   UNL     1       5.943   3.604  13.604  0.00  0.00    +0.000 A 
ENDBRANCH  14  19
ENDBRANCH  13  14
ENDBRANCH   1  13
TORSDOF 5
ENDMDL
MODEL 9
REMARK VINA RESULT:      -6.5      5.389      7.671
REMARK  Name = 
REMARK  7 active torsions:
REMARK  status: ('A' for Active; 'I' for Inactive)
REMARK    1  A    between atoms: C_1  and  N_2
REMARK    2  A    between atoms: N_5  and  C_6
REMARK    3  A    between atoms: C_6  and  C_7
REMARK    4  A    between atoms: C_7  and  C_8
REMARK    5  A    between atoms: C_11  and  N_12
REMARK    6  A    between atoms: N_12  and  S_13
REMARK    7  A    between atoms: S_13  and  C_14
REMARK                            x       y       z     vdW  Elec       q    Type
REMARK                         _______ _______ _______ _____ _____    ______ ____
ROOT
ATOM      1  C   UNL     1       2.314   5.136  18.485  0.00  0.00    +0.000 A 
ATOM      2  C   UNL     1       2.475   6.497  18.198  0.00  0.00    +0.000 A 
ATOM      3  C   UNL     1       2.288   7.464  19.189  0.00  0.00    +0.000 A 
ATOM      4  C   UNL     1       1.927   7.083  20.478  0.00  0.00    +0.000 A 
ATOM      5  C   UNL     1       1.728   5.739  20.777  0.00  0.00    +0.000 A 
ATOM      6  C   UNL     1       1.920   4.770  19.784  0.00  0.00    +0.000 A 
ENDROOT
BRANCH   4   7
ATOM      7  N   UNL     1       1.700   8.096  21.451  0.00  0.00    +0.000 N 
ATOM      8  H   UNL     1       1.908   7.839  22.419  0.00  0.00    +0.000 HD
BRANCH   7   9
ATOM      9  S   UNL     1       0.197   8.882  21.419  0.00  0.00    +0.000 S 
ATOM     10  C   UNL     1       0.175   9.665  23.017  0.00  0.00    +0.000 C 
ATOM     11  O   UNL     1       0.195   9.896  20.388  0.00  0.00    +0.000 OA
ATOM     12  O   UNL     1      -0.784   7.818  21.432  0.00  0.00    +0.000 OA
ENDBRANCH   7   9
ENDBRANCH   4   7
BRANCH   1  13
ATOM     13  C   UNL     1       2.450   4.061  17.428  0.00  0.00    +0.000 C 
BRANCH  13  14
ATOM     14  C   UNL     1       3.723   3.205  17.480  0.00  0.00    +0.000 C 
BRANCH  14  19
ATOM     15  C   UNL     1       7.695   5.694  18.998  0.00  0.00    +0.000 C 
ATOM     16  N   UNL     1       6.710   5.092  18.111  0.00  0.00    +0.000 N 
ATOM     17  C   UNL     1       6.704   5.154  16.728  0.00  0.00    +0.000 A 
ATOM     18  C   UNL     1       5.605   4.459  16.308  0.00  0.00    +0.000 A 
ATOM     19  N   UNL     1       4.962   3.999  17.445  0.00  0.00    +0.000 N 
ATOM     20  C   UNL     1       5.649   4.387  18.530  0.00  0.00    +0.000 A 
ENDBRANCH  14  19
ENDBRANCH  13  14
ENDBRANCH   1  13
TORSDOF 5
ENDMDL
