MODEL 1
REMARK VINA RESULT:      -7.4      0.000      0.000
REMARK  Name = 
REMARK  8 active torsions:
REMARK  status: ('A' for Active; 'I' for Inactive)
REMARK    1  A    between atoms: C_1  and  N_2
REMARK    2  A    between atoms: N_2  and  C_19
REMARK    3  A    between atoms: C_3  and  C_5
REMARK    4  A    between atoms: C_5  and  N_6
REMARK    5  A    between atoms: C_7  and  C_9
REMARK    6  A    between atoms: C_19  and  C_20
REMARK    7  A    between atoms: C_19  and  C_21
REMARK    8  A    between atoms: C_19  and  C_22
REMARK                            x       y       z     vdW  Elec       q    Type
REMARK                         _______ _______ _______ _____ _____    ______ ____
ROOT
ATOM      1  N   UNL     1       7.943   6.527  18.620  0.00  0.00    +0.000 N 
ATOM      2  C   UNL     1       7.746   7.528  17.704  0.00  0.00    +0.000 C 
ATOM      3  O   UNL     1       7.154   7.349  16.644  0.00  0.00    +0.000 OA
ATOM      4  H   UNL     1       8.358   6.733  19.521  0.00  0.00    +0.000 HD
ENDROOT
BRANCH   2   5
ATOM      5  C   UNL     1       8.245   8.828  18.092  0.00  0.00    +0.000 A 
ATOM      6  C   UNL     1       8.142  10.077  17.505  0.00  0.00    +0.000 A 
ATOM      7  C   UNL     1       8.841  11.014  18.319  0.00  0.00    +0.000 A 
ATOM      8  C   UNL     1       9.082  12.399  18.236  0.00  0.00    +0.000 A 
ATOM      9  C   UNL     1       9.855  13.011  19.228  0.00  0.00    +0.000 A 
ATOM     10 CL   UNL     1      10.159  14.705  19.134  0.00  0.00    +0.000 Cl
ATOM     11  C   UNL     1      10.387  12.275  20.286  0.00  0.00    +0.000 A 
ATOM     12  C   UNL     1      10.142  10.904  20.397  0.00  0.00    +0.000 A 
ATOM     13  C   UNL     1       9.362  10.306  19.401  0.00  0.00    +0.000 A 
ATOM     14  N   UNL     1       8.950   9.004  19.261  0.00  0.00    +0.000 N 
ATOM     15  H   UNL     1       9.147   8.254  19.912  0.00  0.00    +0.000 HD
ENDBRANCH   2   5
BRANCH   1  16
ATOM     16  C   UNL     1       7.506   5.162  18.386  0.00  0.00    +0.000 C 
BRANCH  16  19
ATOM     17  C   UNL     1       5.526   4.141  16.394  0.00  0.00    +0.000 C 
ATOM     18  N   UNL     1       5.117   4.499  17.753  0.00  0.00    +0.000 N 
ATOM     19  C   UNL     1       6.003   5.037  18.695  0.00  0.00    +0.000 C 
ATOM     20  O   UNL     1       5.624   5.450  19.797  0.00  0.00    +0.000 OA
BRANCH  18  21
ATOM     21  C   UNL     1       3.661   4.294  18.120  0.00  0.00    +0.000 C 
ATOM     22  C   UNL     1       3.472   3.662  19.528  0.00  0.00    +0.000 C 
ATOM     23  C   UNL     1       2.918   5.646  18.154  0.00  0.00    +0.000 C 
ATOM     24  C   UNL     1       2.954   3.340  17.131  0.00  0.00    +0.000 C 
ENDBRANCH  18  21
ENDBRANCH  16  19
ENDBRANCH   1  16
TORSDOF 4
ENDMDL
MODEL 2
REMARK VINA RESULT:      -7.4      1.445      1.876
REMARK  Name = 
REMARK  8 active torsions:
REMARK  status: ('A' for Active; 'I' for Inactive)
REMARK    1  A    between atoms: C_1  and  N_2
REMARK    2  A    between atoms: N_2  and  C_19
REMARK    3  A    between atoms: C_3  and  C_5
REMARK    4  A    between atoms: C_5  and  N_6
REMARK    5  A    between atoms: C_7  and  C_9
REMARK    6  A    between atoms: C_19  and  C_20
REMARK    7  A    between atoms: C_19  and  C_21
REMARK    8  A    between atoms: C_19  and  C_22
REMARK                            x       y       z     vdW  Elec       q    Type
REMARK                         _______ _______ _______ _____ _____    ______ ____
ROOT
ATOM      1  N   UNL     1       7.048   7.563  17.138  0.00  0.00    +0.000 N 
ATOM      2  C   UNL     1       7.929   7.733  18.174  0.00  0.00    +0.000 C 
ATOM      3  O   UNL     1       8.286   6.810  18.900  0.00  0.00    +0.000 OA
ATOM      4  H   UNL     1       6.847   8.330  16.507  0.00  0.00    +0.000 HD
ENDROOT
BRANCH   2   5
ATOM      5  C   UNL     1       8.451   9.073  18.329  0.00  0.00    +0.000 A 
ATOM      6  C   UNL     1       8.361  10.203  17.535  0.00  0.00    +0.000 A 
ATOM      7  C   UNL     1       9.081  11.254  18.170  0.00  0.00    +0.000 A 
ATOM      8  C   UNL     1       9.342  12.600  17.847  0.00  0.00    +0.000 A 
ATOM      9  C   UNL     1      10.133  13.362  18.713  0.00  0.00    +0.000 A 
ATOM     10 CL   UNL     1      10.462  15.009  18.326  0.00  0.00    +0.000 Cl
ATOM     11  C   UNL     1      10.665  12.811  19.879  0.00  0.00    +0.000 A 
ATOM     12  C   UNL     1      10.401  11.484  20.226  0.00  0.00    +0.000 A 
ATOM     13  C   UNL     1       9.602  10.736  19.354  0.00  0.00    +0.000 A 
ATOM     14  N   UNL     1       9.170   9.436  19.445  0.00  0.00    +0.000 N 
ATOM     15  H   UNL     1       9.363   8.807  20.213  0.00  0.00    +0.000 HD
ENDBRANCH   2   5
BRANCH   1  16
ATOM     16  C   UNL     1       6.429   6.282  16.845  0.00  0.00    +0.000 C 
BRANCH  16  19
ATOM     17  C   UNL     1       5.383   4.451  18.963  0.00  0.00    +0.000 C 
ATOM     18  N   UNL     1       4.525   5.462  18.345  0.00  0.00    +0.000 N 
ATOM     19  C   UNL     1       4.961   6.297  17.308  0.00  0.00    +0.000 C 
ATOM     20  O   UNL     1       4.195   7.062  16.710  0.00  0.00    +0.000 OA
BRANCH  18  21
ATOM     21  C   UNL     1       3.099   5.569  18.848  0.00  0.00    +0.000 C 
ATOM     22  C   UNL     1       2.061   4.946  17.872  0.00  0.00    +0.000 C 
ATOM     23  C   UNL     1       2.940   4.811  20.183  0.00  0.00    +0.000 C 
ATOM     24  C   UNL     1       2.671   7.041  19.035  0.00  0.00    +0.000 C 
ENDBRANCH  18  21
ENDBRANCH  16  19
ENDBRANCH   1  16
TORSDOF 4
ENDMDL
MODEL 3
REMARK VINA RESULT:      -7.2      6.060      7.493
REMARK  Name = 
REMARK  8 active torsions:
REMARK  status: ('A' for Active; 'I' for Inactive)
REMARK    1  A    between atoms: C_1  and  N_2
REMARK    2  A    between atoms: N_2  and  C_19
REMARK    3  A    between atoms: C_3  and  C_5
REMARK    4  A    between atoms: C_5  and  N_6
REMARK    5  A    between atoms: C_7  and  C_9
REMARK    6  A    between atoms: C_19  and  C_20
REMARK    7  A    between atoms: C_19  and  C_21
REMARK    8  A    between atoms: C_19  and  C_22
REMARK                            x       y       z     vdW  Elec       q    Type
REMARK                         _______ _______ _______ _____ _____    ______ ____
ROOT
ATOM      1  N   UNL     1       2.321   7.358  18.749  0.00  0.00    +0.000 N 
ATOM      2  C   UNL     1       1.943   8.624  18.382  0.00  0.00    +0.000 C 
ATOM      3  O   UNL     1       2.242   9.118  17.300  0.00  0.00    +0.000 OA
ATOM      4  H   UNL     1       1.981   6.953  19.613  0.00  0.00    +0.000 HD
ENDROOT
BRANCH   2   5
ATOM      5  C   UNL     1       1.123   9.326  19.344  0.00  0.00    +0.000 A 
ATOM      6  C   UNL     1       0.387  10.496  19.261  0.00  0.00    +0.000 A 
ATOM      7  C   UNL     1      -0.223  10.732  20.525  0.00  0.00    +0.000 A 
ATOM      8  C   UNL     1      -1.064  11.739  21.037  0.00  0.00    +0.000 A 
ATOM      9  C   UNL     1      -1.467  11.668  22.375  0.00  0.00    +0.000 A 
ATOM     10 CL   UNL     1      -2.493  12.897  23.013  0.00  0.00    +0.000 Cl
ATOM     11  C   UNL     1      -1.049  10.625  23.201  0.00  0.00    +0.000 A 
ATOM     12  C   UNL     1      -0.232   9.606  22.706  0.00  0.00    +0.000 A 
ATOM     13  C   UNL     1       0.158   9.687  21.365  0.00  0.00    +0.000 A 
ATOM     14  N   UNL     1       0.930   8.834  20.615  0.00  0.00    +0.000 N 
ATOM     15  H   UNL     1       1.331   7.965  20.943  0.00  0.00    +0.000 HD
ENDBRANCH   2   5
BRANCH   1  16
ATOM     16  C   UNL     1       3.148   6.518  17.901  0.00  0.00    +0.000 C 
BRANCH  16  19
ATOM     17  C   UNL     1       5.102   4.648  19.171  0.00  0.00    +0.000 C 
ATOM     18  N   UNL     1       3.752   4.207  18.819  0.00  0.00    +0.000 N 
ATOM     19  C   UNL     1       2.829   5.036  18.168  0.00  0.00    +0.000 C 
ATOM     20  O   UNL     1       1.737   4.618  17.765  0.00  0.00    +0.000 OA
BRANCH  18  21
ATOM     21  C   UNL     1       3.373   2.780  19.160  0.00  0.00    +0.000 C 
ATOM     22  C   UNL     1       2.007   2.672  19.895  0.00  0.00    +0.000 C 
ATOM     23  C   UNL     1       3.235   1.937  17.874  0.00  0.00    +0.000 C 
ATOM     24  C   UNL     1       4.410   2.125  20.099  0.00  0.00    +0.000 C 
ENDBRANCH  18  21
ENDBRANCH  16  19
ENDBRANCH   1  16
TORSDOF 4
ENDMDL
MODEL 4
REMARK VINA RESULT:      -7.2      4.612      6.925
REMARK  Name = 
REMARK  8 active torsions:
REMARK  status: ('A' for Active; 'I' for Inactive)
REMARK    1  A    between atoms: C_1  and  N_2
REMARK    2  A    between atoms: N_2  and  C_19
REMARK    3  A    between atoms: C_3  and  C_5
REMARK    4  A    between atoms: C_5  and  N_6
REMARK    5  A    between atoms: C_7  and  C_9
REMARK    6  A    between atoms: C_19  and  C_20
REMARK    7  A    between atoms: C_19  and  C_21
REMARK    8  A    between atoms: C_19  and  C_22
REMARK                            x       y       z     vdW  Elec       q    Type
REMARK                         _______ _______ _______ _____ _____    ______ ____
ROOT
ATOM      1  N   UNL     1       3.227   5.666  20.074  0.00  0.00    +0.000 N 
ATOM      2  C   UNL     1       2.450   6.406  19.220  0.00  0.00    +0.000 C 
ATOM      3  O   UNL     1       2.259   6.084  18.051  0.00  0.00    +0.000 OA
ATOM      4  H   UNL     1       3.289   5.915  21.054  0.00  0.00    +0.000 HD
ENDROOT
BRANCH   2   5
ATOM      5  C   UNL     1       1.828   7.572  19.805  0.00  0.00    +0.000 A 
ATOM      6  C   UNL     1       1.341   7.829  21.075  0.00  0.00    +0.000 A 
ATOM      7  C   UNL     1       0.818   9.153  21.095  0.00  0.00    +0.000 A 
ATOM      8  C   UNL     1       0.204   9.951  22.079  0.00  0.00    +0.000 A 
ATOM      9  C   UNL     1      -0.224  11.238  21.736  0.00  0.00    +0.000 A 
ATOM     10 CL   UNL     1      -0.981  12.222  22.931  0.00  0.00    +0.000 Cl
ATOM     11  C   UNL     1      -0.055  11.735  20.443  0.00  0.00    +0.000 A 
ATOM     12  C   UNL     1       0.570  10.966  19.459  0.00  0.00    +0.000 A 
ATOM     13  C   UNL     1       0.999   9.684  19.819  0.00  0.00    +0.000 A 
ATOM     14  N   UNL     1       1.649   8.727  19.077  0.00  0.00    +0.000 N 
ATOM     15  H   UNL     1       1.945   8.833  18.116  0.00  0.00    +0.000 HD
ENDBRANCH   2   5
BRANCH   1  16
ATOM     16  C   UNL     1       3.925   4.466  19.647  0.00  0.00    +0.000 C 
BRANCH  16  19
ATOM     17  C   UNL     1       4.544   4.086  16.749  0.00  0.00    +0.000 C 
ATOM     18  N   UNL     1       5.512   4.707  17.654  0.00  0.00    +0.000 N 
ATOM     19  C   UNL     1       5.282   4.847  19.029  0.00  0.00    +0.000 C 
ATOM     20  O   UNL     1       6.153   5.259  19.805  0.00  0.00    +0.000 OA
BRANCH  18  21
ATOM     21  C   UNL     1       6.821   5.183  17.057  0.00  0.00    +0.000 C 
ATOM     22  C   UNL     1       7.055   6.709  17.245  0.00  0.00    +0.000 C 
ATOM     23  C   UNL     1       8.013   4.479  17.739  0.00  0.00    +0.000 C 
ATOM     24  C   UNL     1       6.875   4.933  15.534  0.00  0.00    +0.000 C 
ENDBRANCH  18  21
ENDBRANCH  16  19
ENDBRANCH   1  16
TORSDOF 4
ENDMDL
MODEL 5
REMARK VINA RESULT:      -7.1      4.665      6.921
REMARK  Name = 
REMARK  8 active torsions:
REMARK  status: ('A' for Active; 'I' for Inactive)
REMARK    1  A    between atoms: C_1  and  N_2
REMARK    2  A    between atoms: N_2  and  C_19
REMARK    3  A    between atoms: C_3  and  C_5
REMARK    4  A    between atoms: C_5  and  N_6
REMARK    5  A    between atoms: C_7  and  C_9
REMARK    6  A    between atoms: C_19  and  C_20
REMARK    7  A    between atoms: C_19  and  C_21
REMARK    8  A    between atoms: C_19  and  C_22
REMARK                            x       y       z     vdW  Elec       q    Type
REMARK                         _______ _______ _______ _____ _____    ______ ____
ROOT
ATOM      1  N   UNL     1       2.996   5.636  20.110  0.00  0.00    +0.000 N 
ATOM      2  C   UNL     1       2.559   6.598  19.237  0.00  0.00    +0.000 C 
ATOM      3  O   UNL     1       2.717   6.513  18.023  0.00  0.00    +0.000 OA
ATOM      4  H   UNL     1       2.770   5.698  21.095  0.00  0.00    +0.000 HD
ENDROOT
BRANCH   2   5
ATOM      5  C   UNL     1       1.852   7.705  19.841  0.00  0.00    +0.000 A 
ATOM      6  C   UNL     1       1.473   8.944  19.353  0.00  0.00    +0.000 A 
ATOM      7  C   UNL     1       0.806   9.650  20.394  0.00  0.00    +0.000 A 
ATOM      8  C   UNL     1       0.213  10.923  20.493  0.00  0.00    +0.000 A 
ATOM      9  C   UNL     1      -0.346  11.316  21.714  0.00  0.00    +0.000 A 
ATOM     10 CL   UNL     1      -1.070  12.874  21.848  0.00  0.00    +0.000 Cl
ATOM     11  C   UNL     1      -0.322  10.472  22.824  0.00  0.00    +0.000 A 
ATOM     12  C   UNL     1       0.243   9.197  22.739  0.00  0.00    +0.000 A 
ATOM     13  C   UNL     1       0.792   8.816  21.511  0.00  0.00    +0.000 A 
ATOM     14  N   UNL     1       1.388   7.637  21.135  0.00  0.00    +0.000 N 
ATOM     15  H   UNL     1       1.500   6.823  21.725  0.00  0.00    +0.000 HD
ENDBRANCH   2   5
BRANCH   1  16
ATOM     16  C   UNL     1       3.726   4.460  19.669  0.00  0.00    +0.000 C 
BRANCH  16  19
ATOM     17  C   UNL     1       4.477   3.779  16.858  0.00  0.00    +0.000 C 
ATOM     18  N   UNL     1       5.353   4.595  17.698  0.00  0.00    +0.000 N 
ATOM     19  C   UNL     1       5.064   4.885  19.038  0.00  0.00    +0.000 C 
ATOM     20  O   UNL     1       5.867   5.470  19.775  0.00  0.00    +0.000 OA
BRANCH  18  21
ATOM     21  C   UNL     1       6.634   5.112  17.075  0.00  0.00    +0.000 C 
ATOM     22  C   UNL     1       6.813   4.667  15.596  0.00  0.00    +0.000 C 
ATOM     23  C   UNL     1       6.643   6.655  17.063  0.00  0.00    +0.000 C 
ATOM     24  C   UNL     1       7.881   4.594  17.825  0.00  0.00    +0.000 C 
ENDBRANCH  18  21
ENDBRANCH  16  19
ENDBRANCH   1  16
TORSDOF 4
ENDMDL
MODEL 6
REMARK VINA RESULT:      -7.1      0.766      1.642
REMARK  Name = 
REMARK  8 active torsions:
REMARK  status: ('A' for Active; 'I' for Inactive)
REMARK    1  A    between atoms: C_1  and  N_2
REMARK    2  A    between atoms: N_2  and  C_19
REMARK    3  A    between atoms: C_3  and  C_5
REMARK    4  A    between atoms: C_5  and  N_6
REMARK    5  A    between atoms: C_7  and  C_9
REMARK    6  A    between atoms: C_19  and  C_20
REMARK    7  A    between atoms: C_19  and  C_21
REMARK    8  A    between atoms: C_19  and  C_22
REMARK                            x       y       z     vdW  Elec       q    Type
REMARK                         _______ _______ _______ _____ _____    ______ ____
ROOT
ATOM      1  N   UNL     1       7.994   6.570  18.512  0.00  0.00    +0.000 N 
ATOM      2  C   UNL     1       7.717   7.641  17.702  0.00  0.00    +0.000 C 
ATOM      3  O   UNL     1       7.015   7.550  16.700  0.00  0.00    +0.000 OA
ATOM      4  H   UNL     1       8.503   6.702  19.378  0.00  0.00    +0.000 HD
ENDROOT
BRANCH   2   5
ATOM      5  C   UNL     1       8.272   8.904  18.135  0.00  0.00    +0.000 A 
ATOM      6  C   UNL     1       9.067   9.249  19.215  0.00  0.00    +0.000 A 
ATOM      7  C   UNL     1       9.309  10.651  19.162  0.00  0.00    +0.000 A 
ATOM      8  C   UNL     1      10.028  11.554  19.969  0.00  0.00    +0.000 A 
ATOM      9  C   UNL     1      10.034  12.910  19.626  0.00  0.00    +0.000 A 
ATOM     10 CL   UNL     1      10.907  14.024  20.609  0.00  0.00    +0.000 Cl
ATOM     11  C   UNL     1       9.342  13.376  18.508  0.00  0.00    +0.000 A 
ATOM     12  C   UNL     1       8.640  12.492  17.685  0.00  0.00    +0.000 A 
ATOM     13  C   UNL     1       8.648  11.138  18.036  0.00  0.00    +0.000 A 
ATOM     14  N   UNL     1       8.071  10.058  17.414  0.00  0.00    +0.000 N 
ATOM     15  H   UNL     1       7.545  10.093  16.550  0.00  0.00    +0.000 HD
ENDBRANCH   2   5
BRANCH   1  16
ATOM     16  C   UNL     1       7.516   5.230  18.221  0.00  0.00    +0.000 C 
BRANCH  16  19
ATOM     17  C   UNL     1       5.401   4.181  16.388  0.00  0.00    +0.000 C 
ATOM     18  N   UNL     1       5.090   4.551  17.769  0.00  0.00    +0.000 N 
ATOM     19  C   UNL     1       6.039   5.103  18.638  0.00  0.00    +0.000 C 
ATOM     20  O   UNL     1       5.738   5.527  19.761  0.00  0.00    +0.000 OA
BRANCH  18  21
ATOM     21  C   UNL     1       3.665   4.345  18.242  0.00  0.00    +0.000 C 
ATOM     22  C   UNL     1       2.811   3.504  17.251  0.00  0.00    +0.000 C 
ATOM     23  C   UNL     1       3.647   3.579  19.581  0.00  0.00    +0.000 C 
ATOM     24  C   UNL     1       2.920   5.689  18.405  0.00  0.00    +0.000 C 
ENDBRANCH  18  21
ENDBRANCH  16  19
ENDBRANCH   1  16
TORSDOF 4
ENDMDL
MODEL 7
REMARK VINA RESULT:      -7.1      5.565      8.202
REMARK  Name = 
REMARK  8 active torsions:
REMARK  status: ('A' for Active; 'I' for Inactive)
REMARK    1  A    between atoms: C_1  and  N_2
REMARK    2  A    between atoms: N_2  and  C_19
REMARK    3  A    between atoms: C_3  and  C_5
REMARK    4  A    between atoms: C_5  and  N_6
REMARK    5  A    between atoms: C_7  and  C_9
REMARK    6  A    between atoms: C_19  and  C_20
REMARK    7  A    between atoms: C_19  and  C_21
REMARK    8  A    between atoms: C_19  and  C_22
REMARK                            x       y       z     vdW  Elec       q    Type
REMARK                         _______ _______ _______ _____ _____    ______ ____
ROOT
ATOM      1  N   UNL     1       2.107   7.392  20.284  0.00  0.00    +0.000 N 
ATOM      2  C   UNL     1       2.340   6.048  20.145  0.00  0.00    +0.000 C 
ATOM      3  O   UNL     1       1.760   5.201  20.818  0.00  0.00    +0.000 OA
ATOM      4  H   UNL     1       2.539   8.054  19.651  0.00  0.00    +0.000 HD
ENDROOT
BRANCH   2   5
ATOM      5  C   UNL     1       3.286   5.689  19.112  0.00  0.00    +0.000 A 
ATOM      6  C   UNL     1       3.136   5.446  17.757  0.00  0.00    +0.000 A 
ATOM      7  C   UNL     1       4.412   5.116  17.218  0.00  0.00    +0.000 A 
ATOM      8  C   UNL     1       4.876   4.777  15.933  0.00  0.00    +0.000 A 
ATOM      9  C   UNL     1       6.232   4.479  15.761  0.00  0.00    +0.000 A 
ATOM     10 CL   UNL     1       6.810   4.058  14.192  0.00  0.00    +0.000 Cl
ATOM     11  C   UNL     1       7.121   4.510  16.835  0.00  0.00    +0.000 A 
ATOM     12  C   UNL     1       6.683   4.863  18.113  0.00  0.00    +0.000 A 
ATOM     13  C   UNL     1       5.326   5.165  18.269  0.00  0.00    +0.000 A 
ATOM     14  N   UNL     1       4.628   5.556  19.386  0.00  0.00    +0.000 N 
ATOM     15  H   UNL     1       5.028   5.710  20.302  0.00  0.00    +0.000 HD
ENDBRANCH   2   5
BRANCH   1  16
ATOM     16  C   UNL     1       1.189   7.923  21.276  0.00  0.00    +0.000 C 
BRANCH  16  19
ATOM     17  C   UNL     1      -0.317   9.746  23.104  0.00  0.00    +0.000 C 
ATOM     18  N   UNL     1       0.068  10.173  21.758  0.00  0.00    +0.000 N 
ATOM     19  C   UNL     1       0.720   9.326  20.852  0.00  0.00    +0.000 C 
ATOM     20  O   UNL     1       0.930   9.653  19.677  0.00  0.00    +0.000 OA
BRANCH  18  21
ATOM     21  C   UNL     1      -0.293  11.585  21.343  0.00  0.00    +0.000 C 
ATOM     22  C   UNL     1       0.932  12.405  20.848  0.00  0.00    +0.000 C 
ATOM     23  C   UNL     1      -1.297  11.563  20.171  0.00  0.00    +0.000 C 
ATOM     24  C   UNL     1      -0.890  12.387  22.520  0.00  0.00    +0.000 C 
ENDBRANCH  18  21
ENDBRANCH  16  19
ENDBRANCH   1  16
TORSDOF 4
ENDMDL
MODEL 8
REMARK VINA RESULT:      -7.1      1.204      1.553
REMARK  Name = 
REMARK  8 active torsions:
REMARK  status: ('A' for Active; 'I' for Inactive)
REMARK    1  A    between atoms: C_1  and  N_2
REMARK    2  A    between atoms: N_2  and  C_19
REMARK    3  A    between atoms: C_3  and  C_5
REMARK    4  A    between atoms: C_5  and  N_6
REMARK    5  A    between atoms: C_7  and  C_9
REMARK    6  A    between atoms: C_19  and  C_20
REMARK    7  A    between atoms: C_19  and  C_21
REMARK    8  A    between atoms: C_19  and  C_22
REMARK                            x       y       z     vdW  Elec       q    Type
REMARK                         _______ _______ _______ _____ _____    ______ ____
ROOT
ATOM      1  N   UNL     1       6.814   6.381  18.593  0.00  0.00    +0.000 N 
ATOM      2  C   UNL     1       7.509   7.014  17.596  0.00  0.00    +0.000 C 
ATOM      3  O   UNL     1       7.659   6.528  16.479  0.00  0.00    +0.000 OA
ATOM      4  H   UNL     1       6.636   6.852  19.472  0.00  0.00    +0.000 HD
ENDROOT
BRANCH   2   5
ATOM      5  C   UNL     1       8.019   8.324  17.935  0.00  0.00    +0.000 A 
ATOM      6  C   UNL     1       7.912   9.554  17.309  0.00  0.00    +0.000 A 
ATOM      7  C   UNL     1       8.627  10.513  18.082  0.00  0.00    +0.000 A 
ATOM      8  C   UNL     1       8.872  11.893  17.951  0.00  0.00    +0.000 A 
ATOM      9  C   UNL     1       9.663  12.534  18.911  0.00  0.00    +0.000 A 
ATOM     10 CL   UNL     1       9.973  14.222  18.758  0.00  0.00    +0.000 Cl
ATOM     11  C   UNL     1      10.209  11.829  19.984  0.00  0.00    +0.000 A 
ATOM     12  C   UNL     1       9.960  10.464  20.141  0.00  0.00    +0.000 A 
ATOM     13  C   UNL     1       9.163   9.838  19.178  0.00  0.00    +0.000 A 
ATOM     14  N   UNL     1       8.743   8.533  19.087  0.00  0.00    +0.000 N 
ATOM     15  H   UNL     1       8.948   7.804  19.757  0.00  0.00    +0.000 HD
ENDBRANCH   2   5
BRANCH   1  16
ATOM     16  C   UNL     1       6.238   5.058  18.420  0.00  0.00    +0.000 C 
BRANCH  16  19
ATOM     17  C   UNL     1       4.562   2.894  19.618  0.00  0.00    +0.000 C 
ATOM     18  N   UNL     1       3.959   4.134  19.128  0.00  0.00    +0.000 N 
ATOM     19  C   UNL     1       4.703   5.145  18.506  0.00  0.00    +0.000 C 
ATOM     20  O   UNL     1       4.169   6.132  17.986  0.00  0.00    +0.000 OA
BRANCH  18  21
ATOM     21  C   UNL     1       2.460   4.292  19.289  0.00  0.00    +0.000 C 
ATOM     22  C   UNL     1       2.065   5.577  20.071  0.00  0.00    +0.000 C 
ATOM     23  C   UNL     1       1.779   4.404  17.909  0.00  0.00    +0.000 C 
ATOM     24  C   UNL     1       1.845   3.113  20.075  0.00  0.00    +0.000 C 
ENDBRANCH  18  21
ENDBRANCH  16  19
ENDBRANCH   1  16
TORSDOF 4
ENDMDL
MODEL 9
REMARK VINA RESULT:      -7.0      1.297      1.302
REMARK  Name = 
REMARK  8 active torsions:
REMARK  status: ('A' for Active; 'I' for Inactive)
REMARK    1  A    between atoms: C_1  and  N_2
REMARK    2  A    between atoms: N_2  and  C_19
REMARK    3  A    between atoms: C_3  and  C_5
REMARK    4  A    between atoms: C_5  and  N_6
REMARK    5  A    between atoms: C_7  and  C_9
REMARK    6  A    between atoms: C_19  and  C_20
REMARK    7  A    between atoms: C_19  and  C_21
REMARK    8  A    between atoms: C_19  and  C_22
REMARK                            x       y       z     vdW  Elec       q    Type
REMARK                         _______ _______ _______ _____ _____    ______ ____
ROOT
ATOM      1  N   UNL     1       7.007   7.549  17.006  0.00  0.00    +0.000 N 
ATOM      2  C   UNL     1       7.866   7.676  18.066  0.00  0.00    +0.000 C 
ATOM      3  O   UNL     1       8.196   6.726  18.769  0.00  0.00    +0.000 OA
ATOM      4  H   UNL     1       6.827   8.338  16.396  0.00  0.00    +0.000 HD
ENDROOT
BRANCH   2   5
ATOM      5  C   UNL     1       8.398   9.004  18.275  0.00  0.00    +0.000 A 
ATOM      6  C   UNL     1       8.320  10.165  17.526  0.00  0.00    +0.000 A 
ATOM      7  C   UNL     1       9.047  11.185  18.204  0.00  0.00    +0.000 A 
ATOM      8  C   UNL     1       9.320  12.540  17.935  0.00  0.00    +0.000 A 
ATOM      9  C   UNL     1      10.116  13.260  18.832  0.00  0.00    +0.000 A 
ATOM     10 CL   UNL     1      10.459  14.918  18.511  0.00  0.00    +0.000 Cl
ATOM     11  C   UNL     1      10.640  12.659  19.976  0.00  0.00    +0.000 A 
ATOM     12  C   UNL     1      10.364  11.322  20.270  0.00  0.00    +0.000 A 
ATOM     13  C   UNL     1       9.562  10.616  19.367  0.00  0.00    +0.000 A 
ATOM     14  N   UNL     1       9.118   9.316  19.406  0.00  0.00    +0.000 N 
ATOM     15  H   UNL     1       9.304   8.656  20.149  0.00  0.00    +0.000 HD
ENDBRANCH   2   5
BRANCH   1  16
ATOM     16  C   UNL     1       6.380   6.285  16.659  0.00  0.00    +0.000 C 
BRANCH  16  19
ATOM     17  C   UNL     1       4.833   3.734  16.833  0.00  0.00    +0.000 C 
ATOM     18  N   UNL     1       4.322   4.971  17.426  0.00  0.00    +0.000 N 
ATOM     19  C   UNL     1       4.990   6.198  17.313  0.00  0.00    +0.000 C 
ATOM     20  O   UNL     1       4.492   7.259  17.711  0.00  0.00    +0.000 OA
BRANCH  18  21
ATOM     21  C   UNL     1       3.001   4.897  18.164  0.00  0.00    +0.000 C 
ATOM     22  C   UNL     1       3.171   4.766  19.704  0.00  0.00    +0.000 C 
ATOM     23  C   UNL     1       2.181   6.184  17.931  0.00  0.00    +0.000 C 
ATOM     24  C   UNL     1       2.172   3.670  17.725  0.00  0.00    +0.000 C 
ENDBRANCH  18  21
ENDBRANCH  16  19
ENDBRANCH   1  16
TORSDOF 4
ENDMDL
