MODEL 1
REMARK VINA RESULT:      -8.3      0.000      0.000
REMARK  Name = 
REMARK  4 active torsions:
REMARK  status: ('A' for Active; 'I' for Inactive)
REMARK    1  A    between atoms: C_1  and  C_2
REMARK    2  A    between atoms: C_2  and  C_3
REMARK    3  A    between atoms: C_3  and  O_4
REMARK    4  A    between atoms: C_22  and  C_23
REMARK                            x       y       z     vdW  Elec       q    Type
REMARK                         _______ _______ _______ _____ _____    ______ ____
ROOT
ATOM      1  C   UNL     1       2.846   4.920  17.958  0.00  0.00    +0.000 C 
ATOM      2  C   UNL     1       3.112   4.034  19.219  0.00  0.00    +0.000 C 
ATOM      3  O   UNL     1       4.206   3.697  19.665  0.00  0.00    +0.000 OA
ATOM      4  O   UNL     1       1.998   3.949  19.976  0.00  0.00    +0.000 OA
ATOM      5  C   UNL     1       2.118   5.088  20.797  0.00  0.00    +0.000 C 
ATOM      6  C   UNL     1       2.231   6.341  19.956  0.00  0.00    +0.000 A 
ATOM      7  C   UNL     1       2.745   6.417  18.680  0.00  0.00    +0.000 A 
ATOM      8  C   UNL     1       2.748   7.871  18.102  0.00  0.00    +0.000 A 
ATOM      9  C   UNL     1       2.074   8.905  18.726  0.00  0.00    +0.000 A 
ATOM     10  N   UNL     1       1.329   8.578  19.844  0.00  0.00    +0.000 N 
ATOM     11  C   UNL     1       1.467   7.436  20.573  0.00  0.00    +0.000 A 
ATOM     12  O   UNL     1       0.906   7.296  21.674  0.00  0.00    +0.000 OA
ATOM     13  C   UNL     1       0.384   9.579  20.280  0.00  0.00    +0.000 C 
ATOM     14  C   UNL     1       0.762  10.771  19.473  0.00  0.00    +0.000 A 
ATOM     15  C   UNL     1       1.814  10.451  18.610  0.00  0.00    +0.000 A 
ATOM     16  N   UNL     1       2.520  11.446  18.030  0.00  0.00    +0.000 NA
ATOM     17  C   UNL     1       2.112  12.773  18.280  0.00  0.00    +0.000 A 
ATOM     18  C   UNL     1       2.839  13.893  17.822  0.00  0.00    +0.000 A 
ATOM     19  C   UNL     1       2.448  15.243  18.038  0.00  0.00    +0.000 A 
ATOM     20  C   UNL     1       3.220  16.431  17.524  0.00  0.00    +0.000 C 
ATOM     21  C   UNL     1       1.269  15.501  18.724  0.00  0.00    +0.000 A 
ATOM     22  C   UNL     1       0.514  14.450  19.235  0.00  0.00    +0.000 A 
ATOM     23  C   UNL     1       0.943  13.095  19.043  0.00  0.00    +0.000 A 
ATOM     24  C   UNL     1       0.256  12.067  19.657  0.00  0.00    +0.000 A 
ATOM     25  C   UNL     1      -0.894  12.325  20.605  0.00  0.00    +0.000 C 
ATOM     26  C   UNL     1      -1.578  13.691  20.521  0.00  0.00    +0.000 C 
ATOM     27  C   UNL     1      -0.739  14.832  19.982  0.00  0.00    +0.000 C 
ENDROOT
BRANCH   1  29
ATOM     28  C   UNL     1       5.009   4.384  16.220  0.00  0.00    +0.000 C 
ATOM     29  C   UNL     1       3.637   4.016  16.864  0.00  0.00    +0.000 C 
ENDBRANCH   1  29
BRANCH   1  30
ATOM     30  O   UNL     1       1.494   4.904  17.418  0.00  0.00    +0.000 OA
ATOM     31  H   UNL     1       1.461   5.375  16.570  0.00  0.00    +0.000 HD
ENDBRANCH   1  30
TORSDOF 2
ENDMDL
MODEL 2
REMARK VINA RESULT:      -8.2      3.151      8.831
REMARK  Name = 
REMARK  4 active torsions:
REMARK  status: ('A' for Active; 'I' for Inactive)
REMARK    1  A    between atoms: C_1  and  C_2
REMARK    2  A    between atoms: C_2  and  C_3
REMARK    3  A    between atoms: C_3  and  O_4
REMARK    4  A    between atoms: C_22  and  C_23
REMARK                            x       y       z     vdW  Elec       q    Type
REMARK                         _______ _______ _______ _____ _____    ______ ____
ROOT
ATOM      1  C   UNL     1      -1.817  12.900  19.848  0.00  0.00    +0.000 C 
ATOM      2  C   UNL     1      -1.104  14.281  20.018  0.00  0.00    +0.000 C 
ATOM      3  O   UNL     1      -0.921  14.891  21.068  0.00  0.00    +0.000 OA
ATOM      4  O   UNL     1      -0.399  14.586  18.907  0.00  0.00    +0.000 OA
ATOM      5  C   UNL     1       0.835  13.959  19.166  0.00  0.00    +0.000 C 
ATOM      6  C   UNL     1       0.638  12.479  19.418  0.00  0.00    +0.000 A 
ATOM      7  C   UNL     1      -0.497  11.888  19.928  0.00  0.00    +0.000 A 
ATOM      8  C   UNL     1      -0.363  10.338  20.096  0.00  0.00    +0.000 A 
ATOM      9  C   UNL     1       0.696   9.635  19.552  0.00  0.00    +0.000 A 
ATOM     10  N   UNL     1       1.592  10.353  18.783  0.00  0.00    +0.000 N 
ATOM     11  C   UNL     1       1.724  11.709  18.792  0.00  0.00    +0.000 A 
ATOM     12  O   UNL     1       2.677  12.273  18.227  0.00  0.00    +0.000 OA
ATOM     13  C   UNL     1       2.485   9.567  17.965  0.00  0.00    +0.000 C 
ATOM     14  C   UNL     1       2.275   8.185  18.473  0.00  0.00    +0.000 A 
ATOM     15  C   UNL     1       1.299   8.185  19.474  0.00  0.00    +0.000 A 
ATOM     16  N   UNL     1       1.185   7.112  20.287  0.00  0.00    +0.000 NA
ATOM     17  C   UNL     1       2.025   6.007  20.039  0.00  0.00    +0.000 A 
ATOM     18  C   UNL     1       2.074   4.881  20.889  0.00  0.00    +0.000 A 
ATOM     19  C   UNL     1       2.894   3.742  20.660  0.00  0.00    +0.000 A 
ATOM     20  C   UNL     1       2.920   2.534  21.562  0.00  0.00    +0.000 C 
ATOM     21  C   UNL     1       3.692   3.704  19.525  0.00  0.00    +0.000 A 
ATOM     22  C   UNL     1       3.723   4.790  18.655  0.00  0.00    +0.000 A 
ATOM     23  C   UNL     1       2.920   5.947  18.922  0.00  0.00    +0.000 A 
ATOM     24  C   UNL     1       3.050   7.067  18.124  0.00  0.00    +0.000 A 
ATOM     25  C   UNL     1       4.079   7.150  17.019  0.00  0.00    +0.000 C 
ATOM     26  C   UNL     1       4.656   5.831  16.499  0.00  0.00    +0.000 C 
ATOM     27  C   UNL     1       4.635   4.661  17.462  0.00  0.00    +0.000 C 
ENDROOT
BRANCH   1  29
ATOM     28  C   UNL     1      -3.752  12.780  21.903  0.00  0.00    +0.000 C 
ATOM     29  C   UNL     1      -3.244  13.288  20.519  0.00  0.00    +0.000 C 
ENDBRANCH   1  29
BRANCH   1  30
ATOM     30  O   UNL     1      -2.225  12.535  18.498  0.00  0.00    +0.000 OA
ATOM     31  H   UNL     1      -1.502  12.690  17.870  0.00  0.00    +0.000 HD
ENDBRANCH   1  30
TORSDOF 2
ENDMDL
MODEL 3
REMARK VINA RESULT:      -7.7      2.607      8.381
REMARK  Name = 
REMARK  4 active torsions:
REMARK  status: ('A' for Active; 'I' for Inactive)
REMARK    1  A    between atoms: C_1  and  C_2
REMARK    2  A    between atoms: C_2  and  C_3
REMARK    3  A    between atoms: C_3  and  O_4
REMARK    4  A    between atoms: C_22  and  C_23
REMARK                            x       y       z     vdW  Elec       q    Type
REMARK                         _______ _______ _______ _____ _____    ______ ____
ROOT
ATOM      1  C   UNL     1       1.686  13.676  19.089  0.00  0.00    +0.000 C 
ATOM      2  C   UNL     1       0.180  14.094  19.122  0.00  0.00    +0.000 C 
ATOM      3  O   UNL     1      -0.470  14.579  18.200  0.00  0.00    +0.000 OA
ATOM      4  O   UNL     1      -0.435  13.547  20.191  0.00  0.00    +0.000 OA
ATOM      5  C   UNL     1      -0.833  12.293  19.688  0.00  0.00    +0.000 C 
ATOM      6  C   UNL     1       0.363  11.523  19.170  0.00  0.00    +0.000 A 
ATOM      7  C   UNL     1       1.526  12.072  18.674  0.00  0.00    +0.000 A 
ATOM      8  C   UNL     1       2.556  10.997  18.189  0.00  0.00    +0.000 A 
ATOM      9  C   UNL     1       2.394   9.653  18.471  0.00  0.00    +0.000 A 
ATOM     10  N   UNL     1       1.320   9.308  19.270  0.00  0.00    +0.000 N 
ATOM     11  C   UNL     1       0.239  10.099  19.515  0.00  0.00    +0.000 A 
ATOM     12  O   UNL     1      -0.777   9.655  20.079  0.00  0.00    +0.000 OA
ATOM     13  C   UNL     1       1.352   7.973  19.819  0.00  0.00    +0.000 C 
ATOM     14  C   UNL     1       2.467   7.331  19.073  0.00  0.00    +0.000 A 
ATOM     15  C   UNL     1       3.052   8.252  18.198  0.00  0.00    +0.000 A 
ATOM     16  N   UNL     1       3.852   7.805  17.205  0.00  0.00    +0.000 NA
ATOM     17  C   UNL     1       4.109   6.419  17.141  0.00  0.00    +0.000 A 
ATOM     18  C   UNL     1       4.835   5.827  16.086  0.00  0.00    +0.000 A 
ATOM     19  C   UNL     1       5.130   4.439  15.999  0.00  0.00    +0.000 A 
ATOM     20  C   UNL     1       5.927   3.821  14.878  0.00  0.00    +0.000 C 
ATOM     21  C   UNL     1       4.704   3.595  17.015  0.00  0.00    +0.000 A 
ATOM     22  C   UNL     1       3.955   4.099  18.074  0.00  0.00    +0.000 A 
ATOM     23  C   UNL     1       3.632   5.495  18.126  0.00  0.00    +0.000 A 
ATOM     24  C   UNL     1       2.786   5.964  19.112  0.00  0.00    +0.000 A 
ATOM     25  C   UNL     1       2.112   5.037  20.099  0.00  0.00    +0.000 C 
ATOM     26  C   UNL     1       2.725   3.647  20.285  0.00  0.00    +0.000 C 
ATOM     27  C   UNL     1       3.522   3.101  19.117  0.00  0.00    +0.000 C 
ENDROOT
BRANCH   1  29
ATOM     28  C   UNL     1       3.480  15.306  17.636  0.00  0.00    +0.000 C 
ATOM     29  C   UNL     1       2.319  15.109  18.659  0.00  0.00    +0.000 C 
ENDBRANCH   1  29
BRANCH   1  30
ATOM     30  O   UNL     1       2.333  13.452  20.374  0.00  0.00    +0.000 OA
ATOM     31  H   UNL     1       2.344  14.269  20.897  0.00  0.00    +0.000 HD
ENDBRANCH   1  30
TORSDOF 2
ENDMDL
MODEL 4
REMARK VINA RESULT:      -7.6      2.119      3.760
REMARK  Name = 
REMARK  4 active torsions:
REMARK  status: ('A' for Active; 'I' for Inactive)
REMARK    1  A    between atoms: C_1  and  C_2
REMARK    2  A    between atoms: C_2  and  C_3
REMARK    3  A    between atoms: C_3  and  O_4
REMARK    4  A    between atoms: C_22  and  C_23
REMARK                            x       y       z     vdW  Elec       q    Type
REMARK                         _______ _______ _______ _____ _____    ______ ____
ROOT
ATOM      1  C   UNL     1       5.458   4.953  15.221  0.00  0.00    +0.000 C 
ATOM      2  C   UNL     1       6.689   4.259  15.888  0.00  0.00    +0.000 C 
ATOM      3  O   UNL     1       7.868   4.586  15.779  0.00  0.00    +0.000 OA
ATOM      4  O   UNL     1       6.285   3.445  16.886  0.00  0.00    +0.000 OA
ATOM      5  C   UNL     1       6.238   4.330  17.981  0.00  0.00    +0.000 C 
ATOM      6  C   UNL     1       5.316   5.494  17.686  0.00  0.00    +0.000 A 
ATOM      7  C   UNL     1       5.031   6.005  16.438  0.00  0.00    +0.000 A 
ATOM      8  C   UNL     1       4.062   7.234  16.482  0.00  0.00    +0.000 A 
ATOM      9  C   UNL     1       3.387   7.588  17.636  0.00  0.00    +0.000 A 
ATOM     10  N   UNL     1       3.544   6.758  18.730  0.00  0.00    +0.000 N 
ATOM     11  C   UNL     1       4.542   5.845  18.886  0.00  0.00    +0.000 A 
ATOM     12  O   UNL     1       4.738   5.275  19.974  0.00  0.00    +0.000 OA
ATOM     13  C   UNL     1       2.593   6.948  19.800  0.00  0.00    +0.000 C 
ATOM     14  C   UNL     1       1.911   8.215  19.422  0.00  0.00    +0.000 A 
ATOM     15  C   UNL     1       2.409   8.681  18.202  0.00  0.00    +0.000 A 
ATOM     16  N   UNL     1       2.172   9.960  17.836  0.00  0.00    +0.000 NA
ATOM     17  C   UNL     1       1.369  10.749  18.686  0.00  0.00    +0.000 A 
ATOM     18  C   UNL     1       1.148  12.126  18.464  0.00  0.00    +0.000 A 
ATOM     19  C   UNL     1       0.330  12.946  19.288  0.00  0.00    +0.000 A 
ATOM     20  C   UNL     1       0.083  14.411  19.028  0.00  0.00    +0.000 C 
ATOM     21  C   UNL     1      -0.318  12.376  20.375  0.00  0.00    +0.000 A 
ATOM     22  C   UNL     1      -0.125  11.032  20.677  0.00  0.00    +0.000 A 
ATOM     23  C   UNL     1       0.735  10.227  19.860  0.00  0.00    +0.000 A 
ATOM     24  C   UNL     1       1.019   8.929  20.237  0.00  0.00    +0.000 A 
ATOM     25  C   UNL     1       0.520   8.345  21.540  0.00  0.00    +0.000 C 
ATOM     26  C   UNL     1      -0.667   9.042  22.210  0.00  0.00    +0.000 C 
ATOM     27  C   UNL     1      -0.856  10.511  21.888  0.00  0.00    +0.000 C 
ENDROOT
BRANCH   1  29
ATOM     28  C   UNL     1       5.977   3.498  12.855  0.00  0.00    +0.000 C 
ATOM     29  C   UNL     1       5.927   4.826  13.671  0.00  0.00    +0.000 C 
ENDBRANCH   1  29
BRANCH   1  30
ATOM     30  O   UNL     1       4.210   4.202  15.204  0.00  0.00    +0.000 OA
ATOM     31  H   UNL     1       3.944   4.005  14.292  0.00  0.00    +0.000 HD
ENDBRANCH   1  30
TORSDOF 2
ENDMDL
MODEL 5
REMARK VINA RESULT:      -7.5      3.696      8.910
REMARK  Name = 
REMARK  4 active torsions:
REMARK  status: ('A' for Active; 'I' for Inactive)
REMARK    1  A    between atoms: C_1  and  C_2
REMARK    2  A    between atoms: C_2  and  C_3
REMARK    3  A    between atoms: C_3  and  O_4
REMARK    4  A    between atoms: C_22  and  C_23
REMARK                            x       y       z     vdW  Elec       q    Type
REMARK                         _______ _______ _______ _____ _____    ______ ____
ROOT
ATOM      1  C   UNL     1      -2.361  12.421  22.698  0.00  0.00    +0.000 C 
ATOM      2  C   UNL     1      -1.710  13.793  23.069  0.00  0.00    +0.000 C 
ATOM      3  O   UNL     1      -1.371  14.169  24.188  0.00  0.00    +0.000 OA
ATOM      4  O   UNL     1      -1.243  14.406  21.960  0.00  0.00    +0.000 OA
ATOM      5  C   UNL     1       0.052  13.862  21.852  0.00  0.00    +0.000 C 
ATOM      6  C   UNL     1      -0.009  12.352  21.775  0.00  0.00    +0.000 A 
ATOM      7  C   UNL     1      -0.994  11.553  22.314  0.00  0.00    +0.000 A 
ATOM      8  C   UNL     1      -0.742  10.025  22.085  0.00  0.00    +0.000 A 
ATOM      9  C   UNL     1       0.237   9.569  21.220  0.00  0.00    +0.000 A 
ATOM     10  N   UNL     1       0.931  10.526  20.504  0.00  0.00    +0.000 N 
ATOM     11  C   UNL     1       0.984  11.852  20.813  0.00  0.00    +0.000 A 
ATOM     12  O   UNL     1       1.781  12.620  20.246  0.00  0.00    +0.000 OA
ATOM     13  C   UNL     1       1.700  10.034  19.386  0.00  0.00    +0.000 C 
ATOM     14  C   UNL     1       1.668   8.560  19.580  0.00  0.00    +0.000 A 
ATOM     15  C   UNL     1       0.897   8.241  20.701  0.00  0.00    +0.000 A 
ATOM     16  N   UNL     1       0.998   7.007  21.244  0.00  0.00    +0.000 NA
ATOM     17  C   UNL     1       1.840   6.074  20.604  0.00  0.00    +0.000 A 
ATOM     18  C   UNL     1       2.111   4.798  21.142  0.00  0.00    +0.000 A 
ATOM     19  C   UNL     1       2.937   3.826  20.516  0.00  0.00    +0.000 A 
ATOM     20  C   UNL     1       3.201   2.456  21.088  0.00  0.00    +0.000 C 
ATOM     21  C   UNL     1       3.511   4.120  19.287  0.00  0.00    +0.000 A 
ATOM     22  C   UNL     1       3.317   5.370  18.707  0.00  0.00    +0.000 A 
ATOM     23  C   UNL     1       2.513   6.354  19.371  0.00  0.00    +0.000 A 
ATOM     24  C   UNL     1       2.427   7.630  18.851  0.00  0.00    +0.000 A 
ATOM     25  C   UNL     1       3.227   8.060  17.640  0.00  0.00    +0.000 C 
ATOM     26  C   UNL     1       3.772   6.954  16.734  0.00  0.00    +0.000 C 
ATOM     27  C   UNL     1       3.998   5.602  17.381  0.00  0.00    +0.000 C 
ENDROOT
BRANCH   1  29
ATOM     28  C   UNL     1      -4.941  13.346  23.386  0.00  0.00    +0.000 C 
ATOM     29  C   UNL     1      -3.659  12.506  23.672  0.00  0.00    +0.000 C 
ENDBRANCH   1  29
BRANCH   1  30
ATOM     30  O   UNL     1      -2.992  12.326  21.389  0.00  0.00    +0.000 OA
ATOM     31  H   UNL     1      -2.343  12.487  20.686  0.00  0.00    +0.000 HD
ENDBRANCH   1  30
TORSDOF 2
ENDMDL
MODEL 6
REMARK VINA RESULT:      -7.5      2.060      4.237
REMARK  Name = 
REMARK  4 active torsions:
REMARK  status: ('A' for Active; 'I' for Inactive)
REMARK    1  A    between atoms: C_1  and  C_2
REMARK    2  A    between atoms: C_2  and  C_3
REMARK    3  A    between atoms: C_3  and  O_4
REMARK    4  A    between atoms: C_22  and  C_23
REMARK                            x       y       z     vdW  Elec       q    Type
REMARK                         _______ _______ _______ _____ _____    ______ ____
ROOT
ATOM      1  C   UNL     1       2.838   4.865  19.951  0.00  0.00    +0.000 C 
ATOM      2  C   UNL     1       2.845   4.417  18.453  0.00  0.00    +0.000 C 
ATOM      3  O   UNL     1       2.060   3.642  17.913  0.00  0.00    +0.000 OA
ATOM      4  O   UNL     1       3.618   5.246  17.719  0.00  0.00    +0.000 OA
ATOM      5  C   UNL     1       2.706   6.262  17.373  0.00  0.00    +0.000 C 
ATOM      6  C   UNL     1       2.100   6.880  18.615  0.00  0.00    +0.000 A 
ATOM      7  C   UNL     1       1.925   6.252  19.829  0.00  0.00    +0.000 A 
ATOM      8  C   UNL     1       1.237   7.163  20.900  0.00  0.00    +0.000 A 
ATOM      9  C   UNL     1       1.063   8.520  20.699  0.00  0.00    +0.000 A 
ATOM     10  N   UNL     1       1.596   9.052  19.541  0.00  0.00    +0.000 N 
ATOM     11  C   UNL     1       1.964   8.334  18.444  0.00  0.00    +0.000 A 
ATOM     12  O   UNL     1       2.251   8.890  17.368  0.00  0.00    +0.000 OA
ATOM     13  C   UNL     1       1.698  10.492  19.503  0.00  0.00    +0.000 C 
ATOM     14  C   UNL     1       0.907  10.915  20.690  0.00  0.00    +0.000 A 
ATOM     15  C   UNL     1       0.433   9.792  21.374  0.00  0.00    +0.000 A 
ATOM     16  N   UNL     1      -0.562   9.938  22.278  0.00  0.00    +0.000 NA
ATOM     17  C   UNL     1      -1.031  11.244  22.532  0.00  0.00    +0.000 A 
ATOM     18  C   UNL     1      -2.139  11.506  23.368  0.00  0.00    +0.000 A 
ATOM     19  C   UNL     1      -2.627  12.808  23.662  0.00  0.00    +0.000 A 
ATOM     20  C   UNL     1      -3.796  13.078  24.575  0.00  0.00    +0.000 C 
ATOM     21  C   UNL     1      -1.978  13.909  23.120  0.00  0.00    +0.000 A 
ATOM     22  C   UNL     1      -0.898  13.731  22.261  0.00  0.00    +0.000 A 
ATOM     23  C   UNL     1      -0.443  12.409  21.942  0.00  0.00    +0.000 A 
ATOM     24  C   UNL     1       0.547  12.237  20.995  0.00  0.00    +0.000 A 
ATOM     25  C   UNL     1       1.116  13.398  20.209  0.00  0.00    +0.000 C 
ATOM     26  C   UNL     1       0.917  14.800  20.789  0.00  0.00    +0.000 C 
ATOM     27  C   UNL     1      -0.273  14.987  21.708  0.00  0.00    +0.000 C 
ENDROOT
BRANCH   1  29
ATOM     28  C   UNL     1       1.878   2.761  21.574  0.00  0.00    +0.000 C 
ATOM     29  C   UNL     1       2.949   3.397  20.637  0.00  0.00    +0.000 C 
ENDBRANCH   1  29
BRANCH   1  30
ATOM     30  O   UNL     1       4.047   5.506  20.450  0.00  0.00    +0.000 OA
ATOM     31  H   UNL     1       4.508   5.969  19.732  0.00  0.00    +0.000 HD
ENDBRANCH   1  30
TORSDOF 2
ENDMDL
MODEL 7
REMARK VINA RESULT:      -7.4      1.101      1.332
REMARK  Name = 
REMARK  4 active torsions:
REMARK  status: ('A' for Active; 'I' for Inactive)
REMARK    1  A    between atoms: C_1  and  C_2
REMARK    2  A    between atoms: C_2  and  C_3
REMARK    3  A    between atoms: C_3  and  O_4
REMARK    4  A    between atoms: C_22  and  C_23
REMARK                            x       y       z     vdW  Elec       q    Type
REMARK                         _______ _______ _______ _____ _____    ______ ____
ROOT
ATOM      1  C   UNL     1       4.482   4.920  17.271  0.00  0.00    +0.000 C 
ATOM      2  C   UNL     1       4.778   3.949  18.460  0.00  0.00    +0.000 C 
ATOM      3  O   UNL     1       5.854   3.787  19.028  0.00  0.00    +0.000 OA
ATOM      4  O   UNL     1       3.624   3.540  19.029  0.00  0.00    +0.000 OA
ATOM      5  C   UNL     1       3.387   4.561  19.971  0.00  0.00    +0.000 C 
ATOM      6  C   UNL     1       3.324   5.910  19.288  0.00  0.00    +0.000 A 
ATOM      7  C   UNL     1       3.964   6.256  18.118  0.00  0.00    +0.000 A 
ATOM      8  C   UNL     1       3.718   7.744  17.698  0.00  0.00    +0.000 A 
ATOM      9  C   UNL     1       2.760   8.527  18.316  0.00  0.00    +0.000 A 
ATOM     10  N   UNL     1       1.972   7.911  19.270  0.00  0.00    +0.000 N 
ATOM     11  C   UNL     1       2.267   6.736  19.891  0.00  0.00    +0.000 A 
ATOM     12  O   UNL     1       1.618   6.340  20.876  0.00  0.00    +0.000 OA
ATOM     13  C   UNL     1       0.783   8.632  19.659  0.00  0.00    +0.000 C 
ATOM     14  C   UNL     1       0.987   9.971  19.043  0.00  0.00    +0.000 A 
ATOM     15  C   UNL     1       2.183   9.989  18.319  0.00  0.00    +0.000 A 
ATOM     16  N   UNL     1       2.719  11.175  17.957  0.00  0.00    +0.000 NA
ATOM     17  C   UNL     1       2.000  12.346  18.276  0.00  0.00    +0.000 A 
ATOM     18  C   UNL     1       2.514  13.641  18.049  0.00  0.00    +0.000 A 
ATOM     19  C   UNL     1       1.811  14.842  18.341  0.00  0.00    +0.000 A 
ATOM     20  C   UNL     1       2.360  16.220  18.072  0.00  0.00    +0.000 C 
ATOM     21  C   UNL     1       0.528  14.761  18.865  0.00  0.00    +0.000 A 
ATOM     22  C   UNL     1      -0.035  13.521  19.147  0.00  0.00    +0.000 A 
ATOM     23  C   UNL     1       0.704  12.320  18.884  0.00  0.00    +0.000 A 
ATOM     24  C   UNL     1       0.188  11.101  19.281  0.00  0.00    +0.000 A 
ATOM     25  C   UNL     1      -1.099  10.991  20.067  0.00  0.00    +0.000 C 
ATOM     26  C   UNL     1      -2.051  12.189  20.021  0.00  0.00    +0.000 C 
ATOM     27  C   UNL     1      -1.424  13.538  19.733  0.00  0.00    +0.000 C 
ENDROOT
BRANCH   1  29
ATOM     28  C   UNL     1       5.410   4.310  14.672  0.00  0.00    +0.000 C 
ATOM     29  C   UNL     1       5.583   4.349  16.222  0.00  0.00    +0.000 C 
ENDBRANCH   1  29
BRANCH   1  30
ATOM     30  O   UNL     1       3.245   4.699  16.535  0.00  0.00    +0.000 OA
ATOM     31  H   UNL     1       2.492   4.643  17.145  0.00  0.00    +0.000 HD
ENDBRANCH   1  30
TORSDOF 2
ENDMDL
MODEL 8
REMARK VINA RESULT:      -6.8      1.504      3.664
REMARK  Name = 
REMARK  4 active torsions:
REMARK  status: ('A' for Active; 'I' for Inactive)
REMARK    1  A    between atoms: C_1  and  C_2
REMARK    2  A    between atoms: C_2  and  C_3
REMARK    3  A    between atoms: C_3  and  O_4
REMARK    4  A    between atoms: C_22  and  C_23
REMARK                            x       y       z     vdW  Elec       q    Type
REMARK                         _______ _______ _______ _____ _____    ______ ____
ROOT
ATOM      1  C   UNL     1       2.920   4.428  20.127  0.00  0.00    +0.000 C 
ATOM      2  C   UNL     1       3.076   3.645  18.783  0.00  0.00    +0.000 C 
ATOM      3  O   UNL     1       2.294   2.822  18.315  0.00  0.00    +0.000 OA
ATOM      4  O   UNL     1       4.018   4.224  18.009  0.00  0.00    +0.000 OA
ATOM      5  C   UNL     1       3.267   5.194  17.315  0.00  0.00    +0.000 C 
ATOM      6  C   UNL     1       2.570   6.123  18.285  0.00  0.00    +0.000 A 
ATOM      7  C   UNL     1       2.176   5.808  19.567  0.00  0.00    +0.000 A 
ATOM      8  C   UNL     1       1.450   6.987  20.297  0.00  0.00    +0.000 A 
ATOM      9  C   UNL     1       1.442   8.269  19.778  0.00  0.00    +0.000 A 
ATOM     10  N   UNL     1       2.173   8.480  18.625  0.00  0.00    +0.000 N 
ATOM     11  C   UNL     1       2.606   7.504  17.780  0.00  0.00    +0.000 A 
ATOM     12  O   UNL     1       3.085   7.774  16.665  0.00  0.00    +0.000 OA
ATOM     13  C   UNL     1       2.424   9.862  18.287  0.00  0.00    +0.000 C 
ATOM     14  C   UNL     1       1.532  10.602  19.220  0.00  0.00    +0.000 A 
ATOM     15  C   UNL     1       0.861   9.704  20.055  0.00  0.00    +0.000 A 
ATOM     16  N   UNL     1      -0.222  10.124  20.745  0.00  0.00    +0.000 NA
ATOM     17  C   UNL     1      -0.586  11.482  20.633  0.00  0.00    +0.000 A 
ATOM     18  C   UNL     1      -1.760  12.007  21.214  0.00  0.00    +0.000 A 
ATOM     19  C   UNL     1      -2.148  13.373  21.138  0.00  0.00    +0.000 A 
ATOM     20  C   UNL     1      -3.393  13.927  21.784  0.00  0.00    +0.000 C 
ATOM     21  C   UNL     1      -1.326  14.270  20.471  0.00  0.00    +0.000 A 
ATOM     22  C   UNL     1      -0.167  13.823  19.844  0.00  0.00    +0.000 A 
ATOM     23  C   UNL     1       0.189  12.435  19.896  0.00  0.00    +0.000 A 
ATOM     24  C   UNL     1       1.271  11.980  19.169  0.00  0.00    +0.000 A 
ATOM     25  C   UNL     1       2.053  12.885  18.242  0.00  0.00    +0.000 C 
ATOM     26  C   UNL     1       1.924  14.393  18.463  0.00  0.00    +0.000 C 
ATOM     27  C   UNL     1       0.648  14.870  19.129  0.00  0.00    +0.000 C 
ENDROOT
BRANCH   1  29
ATOM     28  C   UNL     1       1.452   2.584  21.686  0.00  0.00    +0.000 C 
ATOM     29  C   UNL     1       2.792   3.154  21.128  0.00  0.00    +0.000 C 
ENDBRANCH   1  29
BRANCH   1  30
ATOM     30  O   UNL     1       4.113   5.081  20.648  0.00  0.00    +0.000 OA
ATOM     31  H   UNL     1       4.700   4.433  21.068  0.00  0.00    +0.000 HD
ENDBRANCH   1  30
TORSDOF 2
ENDMDL
MODEL 9
REMARK VINA RESULT:      -6.7      6.896      9.259
REMARK  Name = 
REMARK  4 active torsions:
REMARK  status: ('A' for Active; 'I' for Inactive)
REMARK    1  A    between atoms: C_1  and  C_2
REMARK    2  A    between atoms: C_2  and  C_3
REMARK    3  A    between atoms: C_3  and  O_4
REMARK    4  A    between atoms: C_22  and  C_23
REMARK                            x       y       z     vdW  Elec       q    Type
REMARK                         _______ _______ _______ _____ _____    ______ ____
ROOT
ATOM      1  C   UNL     1      10.586  14.325  18.746  0.00  0.00    +0.000 C 
ATOM      2  C   UNL     1      11.436  15.337  17.910  0.00  0.00    +0.000 C 
ATOM      3  O   UNL     1      11.838  15.186  16.759  0.00  0.00    +0.000 OA
ATOM      4  O   UNL     1      11.401  16.561  18.477  0.00  0.00    +0.000 OA
ATOM      5  C   UNL     1      10.241  17.115  17.900  0.00  0.00    +0.000 C 
ATOM      6  C   UNL     1       9.037  16.241  18.180  0.00  0.00    +0.000 A 
ATOM      7  C   UNL     1       9.057  14.880  18.392  0.00  0.00    +0.000 A 
ATOM      8  C   UNL     1       7.633  14.272  18.622  0.00  0.00    +0.000 A 
ATOM      9  C   UNL     1       6.524  15.071  18.831  0.00  0.00    +0.000 A 
ATOM     10  N   UNL     1       6.743  16.433  18.908  0.00  0.00    +0.000 N 
ATOM     11  C   UNL     1       7.860  17.075  18.466  0.00  0.00    +0.000 A 
ATOM     12  O   UNL     1       7.909  18.315  18.386  0.00  0.00    +0.000 OA
ATOM     13  C   UNL     1       5.653  17.212  19.447  0.00  0.00    +0.000 C 
ATOM     14  C   UNL     1       4.531  16.237  19.485  0.00  0.00    +0.000 A 
ATOM     15  C   UNL     1       4.969  14.985  19.043  0.00  0.00    +0.000 A 
ATOM     16  N   UNL     1       4.057  14.051  18.691  0.00  0.00    +0.000 NA
ATOM     17  C   UNL     1       2.693  14.372  18.851  0.00  0.00    +0.000 A 
ATOM     18  C   UNL     1       1.654  13.522  18.414  0.00  0.00    +0.000 A 
ATOM     19  C   UNL     1       0.270  13.803  18.576  0.00  0.00    +0.000 A 
ATOM     20  C   UNL     1      -0.831  12.877  18.125  0.00  0.00    +0.000 C 
ATOM     21  C   UNL     1      -0.109  14.973  19.220  0.00  0.00    +0.000 A 
ATOM     22  C   UNL     1       0.857  15.877  19.652  0.00  0.00    +0.000 A 
ATOM     23  C   UNL     1       2.248  15.597  19.444  0.00  0.00    +0.000 A 
ATOM     24  C   UNL     1       3.192  16.554  19.764  0.00  0.00    +0.000 A 
ATOM     25  C   UNL     1       2.805  17.933  20.249  0.00  0.00    +0.000 C 
ATOM     26  C   UNL     1       1.393  18.105  20.815  0.00  0.00    +0.000 C 
ATOM     27  C   UNL     1       0.346  17.127  20.322  0.00  0.00    +0.000 C 
ENDROOT
BRANCH   1  29
ATOM     28  C   UNL     1      11.393  11.800  17.769  0.00  0.00    +0.000 C 
ATOM     29  C   UNL     1      11.595  13.054  18.673  0.00  0.00    +0.000 C 
ENDBRANCH   1  29
BRANCH   1  30
ATOM     30  O   UNL     1      10.519  14.555  20.182  0.00  0.00    +0.000 OA
ATOM     31  H   UNL     1      10.220  15.459  20.369  0.00  0.00    +0.000 HD
ENDBRANCH   1  30
TORSDOF 2
ENDMDL
