MODEL 1
REMARK VINA RESULT:      -7.6      0.000      0.000
REMARK  Name = 
REMARK  7 active torsions:
REMARK  status: ('A' for Active; 'I' for Inactive)
REMARK    1  A    between atoms: C_1  and  C_2
REMARK    2  A    between atoms: C_2  and  O_3
REMARK    3  A    between atoms: O_3  and  C_4
REMARK    4  A    between atoms: C_5  and  N_6
REMARK    5  A    between atoms: N_25  and  C_26
REMARK    6  A    between atoms: C_26  and  C_27
REMARK    7  A    between atoms: C_26  and  C_28
REMARK                            x       y       z     vdW  Elec       q    Type
REMARK                         _______ _______ _______ _____ _____    ______ ____
ROOT
ATOM      1  C   UNL     1       1.381   7.968  19.986  0.00  0.00    +0.000 A 
ATOM      2  C   UNL     1       1.525   9.185  19.262  0.00  0.00    +0.000 A 
ATOM      3  C   UNL     1       2.291   9.231  18.108  0.00  0.00    +0.000 A 
ATOM      4  C   UNL     1       2.950   8.097  17.653  0.00  0.00    +0.000 A 
ATOM      5  C   UNL     1       2.906   6.907  18.409  0.00  0.00    +0.000 A 
ATOM      6  C   UNL     1       2.160   6.809  19.604  0.00  0.00    +0.000 A 
ATOM      7  C   UNL     1       2.445   5.476  20.128  0.00  0.00    +0.000 A 
ATOM      8  C   UNL     1       2.110   4.748  21.301  0.00  0.00    +0.000 A 
ATOM      9  C   UNL     1       2.477   3.409  21.477  0.00  0.00    +0.000 A 
ATOM     10  C   UNL     1       3.254   2.776  20.530  0.00  0.00    +0.000 A 
ATOM     11  C   UNL     1       3.669   3.468  19.395  0.00  0.00    +0.000 A 
ATOM     12  C   UNL     1       3.252   4.804  19.201  0.00  0.00    +0.000 A 
ATOM     13  N   UNL     1       3.517   5.684  18.169  0.00  0.00    +0.000 N 
ENDROOT
BRANCH   2  14
ATOM     14  N   UNL     1       0.859  10.369  19.705  0.00  0.00    +0.000 N 
ATOM     15  C   UNL     1      -0.457  10.619  19.361  0.00  0.00    +0.000 C 
ATOM     16  O   UNL     1      -1.113   9.895  18.613  0.00  0.00    +0.000 OA
ATOM     17  N   UNL     1      -1.005  11.783  19.882  0.00  0.00    +0.000 N 
ATOM     18  C   UNL     1      -0.420  12.635  20.921  0.00  0.00    +0.000 C 
ATOM     19  C   UNL     1      -1.510  13.197  21.855  0.00  0.00    +0.000 C 
ATOM     20  O   UNL     1      -2.551  13.850  21.113  0.00  0.00    +0.000 OA
ATOM     21  C   UNL     1      -3.191  12.915  20.234  0.00  0.00    +0.000 C 
ATOM     22  C   UNL     1      -2.194  12.345  19.226  0.00  0.00    +0.000 C 
ATOM     23  H   UNL     1       1.451  11.190  19.693  0.00  0.00    +0.000 HD
ENDBRANCH   2  14
BRANCH  13  24
ATOM     24  C   UNL     1       4.339   5.339  17.001  0.00  0.00    +0.000 C 
ATOM     25  C   UNL     1       5.816   5.687  17.187  0.00  0.00    +0.000 C 
ATOM     26  C   UNL     1       4.124   3.908  16.504  0.00  0.00    +0.000 C 
ENDBRANCH  13  24
BRANCH   1  27
ATOM     27  O   UNL     1       0.505   8.103  21.074  0.00  0.00    +0.000 OA
BRANCH  27  29
ATOM     28  C   UNL     1      -0.037   9.450  23.015  0.00  0.00    +0.000 C 
ATOM     29  C   UNL     1       1.035   8.717  22.237  0.00  0.00    +0.000 C 
ENDBRANCH  27  29
ENDBRANCH   1  27
TORSDOF 4
ENDMDL
MODEL 2
REMARK VINA RESULT:      -7.0      0.903      1.159
REMARK  Name = 
REMARK  7 active torsions:
REMARK  status: ('A' for Active; 'I' for Inactive)
REMARK    1  A    between atoms: C_1  and  C_2
REMARK    2  A    between atoms: C_2  and  O_3
REMARK    3  A    between atoms: O_3  and  C_4
REMARK    4  A    between atoms: C_5  and  N_6
REMARK    5  A    between atoms: N_25  and  C_26
REMARK    6  A    between atoms: C_26  and  C_27
REMARK    7  A    between atoms: C_26  and  C_28
REMARK                            x       y       z     vdW  Elec       q    Type
REMARK                         _______ _______ _______ _____ _____    ______ ____
ROOT
ATOM      1  C   UNL     1       1.797   7.423  19.707  0.00  0.00    +0.000 A 
ATOM      2  C   UNL     1       2.075   8.578  18.923  0.00  0.00    +0.000 A 
ATOM      3  C   UNL     1       2.987   8.519  17.880  0.00  0.00    +0.000 A 
ATOM      4  C   UNL     1       3.663   7.339  17.601  0.00  0.00    +0.000 A 
ATOM      5  C   UNL     1       3.481   6.211  18.428  0.00  0.00    +0.000 A 
ATOM      6  C   UNL     1       2.582   6.221  19.517  0.00  0.00    +0.000 A 
ATOM      7  C   UNL     1       2.752   4.925  20.169  0.00  0.00    +0.000 A 
ATOM      8  C   UNL     1       2.243   4.296  21.336  0.00  0.00    +0.000 A 
ATOM      9  C   UNL     1       2.540   2.966  21.655  0.00  0.00    +0.000 A 
ATOM     10  C   UNL     1       3.413   2.246  20.869  0.00  0.00    +0.000 A 
ATOM     11  C   UNL     1       3.997   2.841  19.753  0.00  0.00    +0.000 A 
ATOM     12  C   UNL     1       3.652   4.167  19.409  0.00  0.00    +0.000 A 
ATOM     13  N   UNL     1       4.079   4.960  18.360  0.00  0.00    +0.000 N 
ENDROOT
BRANCH   2  14
ATOM     14  N   UNL     1       1.395   9.807  19.187  0.00  0.00    +0.000 N 
ATOM     15  C   UNL     1       0.170  10.083  18.607  0.00  0.00    +0.000 C 
ATOM     16  O   UNL     1      -0.379   9.343  17.792  0.00  0.00    +0.000 OA
ATOM     17  N   UNL     1      -0.408  11.292  18.970  0.00  0.00    +0.000 N 
ATOM     18  C   UNL     1       0.027  12.179  20.053  0.00  0.00    +0.000 C 
ATOM     19  C   UNL     1      -1.181  12.829  20.754  0.00  0.00    +0.000 C 
ATOM     20  O   UNL     1      -2.050  13.476  19.813  0.00  0.00    +0.000 OA
ATOM     21  C   UNL     1      -2.570  12.518  18.882  0.00  0.00    +0.000 C 
ATOM     22  C   UNL     1      -1.440  11.859  18.091  0.00  0.00    +0.000 C 
ATOM     23  H   UNL     1       2.016  10.605  19.238  0.00  0.00    +0.000 HD
ENDBRANCH   2  14
BRANCH  13  24
ATOM     24  C   UNL     1       5.035   4.509  17.341  0.00  0.00    +0.000 C 
ATOM     25  C   UNL     1       4.427   4.446  15.939  0.00  0.00    +0.000 C 
ATOM     26  C   UNL     1       6.367   5.260  17.376  0.00  0.00    +0.000 C 
ENDBRANCH  13  24
BRANCH   1  27
ATOM     27  O   UNL     1       0.791   7.659  20.656  0.00  0.00    +0.000 OA
BRANCH  27  29
ATOM     28  C   UNL     1      -0.008   9.136  22.405  0.00  0.00    +0.000 C 
ATOM     29  C   UNL     1       1.171   8.398  21.806  0.00  0.00    +0.000 C 
ENDBRANCH  27  29
ENDBRANCH   1  27
TORSDOF 4
ENDMDL
MODEL 3
REMARK VINA RESULT:      -6.8      1.330      1.527
REMARK  Name = 
REMARK  7 active torsions:
REMARK  status: ('A' for Active; 'I' for Inactive)
REMARK    1  A    between atoms: C_1  and  C_2
REMARK    2  A    between atoms: C_2  and  O_3
REMARK    3  A    between atoms: O_3  and  C_4
REMARK    4  A    between atoms: C_5  and  N_6
REMARK    5  A    between atoms: N_25  and  C_26
REMARK    6  A    between atoms: C_26  and  C_27
REMARK    7  A    between atoms: C_26  and  C_28
REMARK                            x       y       z     vdW  Elec       q    Type
REMARK                         _______ _______ _______ _____ _____    ______ ____
ROOT
ATOM      1  C   UNL     1       1.436   7.978  19.953  0.00  0.00    +0.000 A 
ATOM      2  C   UNL     1       1.618   9.172  19.198  0.00  0.00    +0.000 A 
ATOM      3  C   UNL     1       2.388   9.166  18.046  0.00  0.00    +0.000 A 
ATOM      4  C   UNL     1       3.016   8.002  17.622  0.00  0.00    +0.000 A 
ATOM      5  C   UNL     1       2.935   6.834  18.409  0.00  0.00    +0.000 A 
ATOM      6  C   UNL     1       2.183   6.788  19.603  0.00  0.00    +0.000 A 
ATOM      7  C   UNL     1       2.427   5.461  20.163  0.00  0.00    +0.000 A 
ATOM      8  C   UNL     1       2.068   4.774  21.352  0.00  0.00    +0.000 A 
ATOM      9  C   UNL     1       2.395   3.430  21.564  0.00  0.00    +0.000 A 
ATOM     10  C   UNL     1       3.156   2.751  20.637  0.00  0.00    +0.000 A 
ATOM     11  C   UNL     1       3.595   3.401  19.486  0.00  0.00    +0.000 A 
ATOM     12  C   UNL     1       3.217   4.742  19.256  0.00  0.00    +0.000 A 
ATOM     13  N   UNL     1       3.511   5.588  18.203  0.00  0.00    +0.000 N 
ENDROOT
BRANCH   2  14
ATOM     14  N   UNL     1       0.985  10.385  19.608  0.00  0.00    +0.000 N 
ATOM     15  C   UNL     1       1.335  11.599  19.044  0.00  0.00    +0.000 C 
ATOM     16  O   UNL     1       2.238  11.729  18.219  0.00  0.00    +0.000 OA
ATOM     17  N   UNL     1       0.625  12.701  19.498  0.00  0.00    +0.000 N 
ATOM     18  C   UNL     1      -0.585  12.681  20.326  0.00  0.00    +0.000 C 
ATOM     19  C   UNL     1      -1.558  13.802  19.910  0.00  0.00    +0.000 C 
ATOM     20  O   UNL     1      -0.909  15.082  19.895  0.00  0.00    +0.000 OA
ATOM     21  C   UNL     1       0.162  15.081  18.942  0.00  0.00    +0.000 C 
ATOM     22  C   UNL     1       1.214  14.034  19.307  0.00  0.00    +0.000 C 
ATOM     23  H   UNL     1       0.811  10.430  20.604  0.00  0.00    +0.000 HD
ENDBRANCH   2  14
BRANCH  13  24
ATOM     24  C   UNL     1       4.326   5.189  17.047  0.00  0.00    +0.000 C 
ATOM     25  C   UNL     1       5.817   5.461  17.246  0.00  0.00    +0.000 C 
ATOM     26  C   UNL     1       4.041   3.767  16.560  0.00  0.00    +0.000 C 
ENDBRANCH  13  24
BRANCH   1  27
ATOM     27  O   UNL     1       0.561   8.167  21.033  0.00  0.00    +0.000 OA
BRANCH  27  29
ATOM     28  C   UNL     1       0.046   9.457  23.020  0.00  0.00    +0.000 C 
ATOM     29  C   UNL     1       1.113   8.772  22.192  0.00  0.00    +0.000 C 
ENDBRANCH  27  29
ENDBRANCH   1  27
TORSDOF 4
ENDMDL
MODEL 4
REMARK VINA RESULT:      -6.8      1.498      1.872
REMARK  Name = 
REMARK  7 active torsions:
REMARK  status: ('A' for Active; 'I' for Inactive)
REMARK    1  A    between atoms: C_1  and  C_2
REMARK    2  A    between atoms: C_2  and  O_3
REMARK    3  A    between atoms: O_3  and  C_4
REMARK    4  A    between atoms: C_5  and  N_6
REMARK    5  A    between atoms: N_25  and  C_26
REMARK    6  A    between atoms: C_26  and  C_27
REMARK    7  A    between atoms: C_26  and  C_28
REMARK                            x       y       z     vdW  Elec       q    Type
REMARK                         _______ _______ _______ _____ _____    ______ ____
ROOT
ATOM      1  C   UNL     1       0.983   8.816  19.785  0.00  0.00    +0.000 A 
ATOM      2  C   UNL     1       1.139  10.069  19.128  0.00  0.00    +0.000 A 
ATOM      3  C   UNL     1       2.021  10.202  18.067  0.00  0.00    +0.000 A 
ATOM      4  C   UNL     1       2.785   9.123  17.644  0.00  0.00    +0.000 A 
ATOM      5  C   UNL     1       2.723   7.900  18.345  0.00  0.00    +0.000 A 
ATOM      6  C   UNL     1       1.860   7.714  19.446  0.00  0.00    +0.000 A 
ATOM      7  C   UNL     1       2.157   6.375  19.948  0.00  0.00    +0.000 A 
ATOM      8  C   UNL     1       1.737   5.581  21.048  0.00  0.00    +0.000 A 
ATOM      9  C   UNL     1       2.154   4.255  21.212  0.00  0.00    +0.000 A 
ATOM     10  C   UNL     1       3.061   3.703  20.333  0.00  0.00    +0.000 A 
ATOM     11  C   UNL     1       3.559   4.463  19.277  0.00  0.00    +0.000 A 
ATOM     12  C   UNL     1       3.094   5.784  19.090  0.00  0.00    +0.000 A 
ATOM     13  N   UNL     1       3.421   6.721  18.127  0.00  0.00    +0.000 N 
ENDROOT
BRANCH   2  14
ATOM     14  N   UNL     1       0.368  11.198  19.540  0.00  0.00    +0.000 N 
ATOM     15  C   UNL     1       0.859  12.097  20.471  0.00  0.00    +0.000 C 
ATOM     16  O   UNL     1       1.937  11.957  21.047  0.00  0.00    +0.000 OA
ATOM     17  N   UNL     1       0.032  13.173  20.763  0.00  0.00    +0.000 N 
ATOM     18  C   UNL     1      -1.177  13.569  20.036  0.00  0.00    +0.000 C 
ATOM     19  C   UNL     1      -1.305  15.103  19.970  0.00  0.00    +0.000 C 
ATOM     20  O   UNL     1      -1.216  15.694  21.275  0.00  0.00    +0.000 OA
ATOM     21  C   UNL     1       0.060  15.403  21.862  0.00  0.00    +0.000 C 
ATOM     22  C   UNL     1       0.254  13.896  22.023  0.00  0.00    +0.000 C 
ATOM     23  H   UNL     1      -0.617  10.994  19.646  0.00  0.00    +0.000 HD
ENDBRANCH   2  14
BRANCH  13  24
ATOM     24  C   UNL     1       4.381   6.467  17.044  0.00  0.00    +0.000 C 
ATOM     25  C   UNL     1       5.788   6.974  17.362  0.00  0.00    +0.000 C 
ATOM     26  C   UNL     1       4.370   5.021  16.544  0.00  0.00    +0.000 C 
ENDBRANCH  13  24
BRANCH   1  27
ATOM     27  O   UNL     1      -0.010   8.860  20.775  0.00  0.00    +0.000 OA
BRANCH  27  29
ATOM     28  C   UNL     1      -0.413   9.761  22.989  0.00  0.00    +0.000 C 
ATOM     29  C   UNL     1       0.440   8.862  22.120  0.00  0.00    +0.000 C 
ENDBRANCH  27  29
ENDBRANCH   1  27
TORSDOF 4
ENDMDL
MODEL 5
REMARK VINA RESULT:      -6.8      2.761      9.655
REMARK  Name = 
REMARK  7 active torsions:
REMARK  status: ('A' for Active; 'I' for Inactive)
REMARK    1  A    between atoms: C_1  and  C_2
REMARK    2  A    between atoms: C_2  and  O_3
REMARK    3  A    between atoms: O_3  and  C_4
REMARK    4  A    between atoms: C_5  and  N_6
REMARK    5  A    between atoms: N_25  and  C_26
REMARK    6  A    between atoms: C_26  and  C_27
REMARK    7  A    between atoms: C_26  and  C_28
REMARK                            x       y       z     vdW  Elec       q    Type
REMARK                         _______ _______ _______ _____ _____    ______ ____
ROOT
ATOM      1  C   UNL     1      -2.720  11.439  19.022  0.00  0.00    +0.000 A 
ATOM      2  C   UNL     1      -1.526  11.549  19.790  0.00  0.00    +0.000 A 
ATOM      3  C   UNL     1      -1.500  12.313  20.946  0.00  0.00    +0.000 A 
ATOM      4  C   UNL     1      -2.630  13.006  21.359  0.00  0.00    +0.000 A 
ATOM      5  C   UNL     1      -3.793  12.996  20.560  0.00  0.00    +0.000 A 
ATOM      6  C   UNL     1      -3.869  12.253  19.362  0.00  0.00    +0.000 A 
ATOM      7  C   UNL     1      -5.173  12.576  18.790  0.00  0.00    +0.000 A 
ATOM      8  C   UNL     1      -5.868  12.261  17.592  0.00  0.00    +0.000 A 
ATOM      9  C   UNL     1      -7.188  12.667  17.367  0.00  0.00    +0.000 A 
ATOM     10  C   UNL     1      -7.832  13.463  18.291  0.00  0.00    +0.000 A 
ATOM     11  C   UNL     1      -7.170  13.859  19.451  0.00  0.00    +0.000 A 
ATOM     12  C   UNL     1      -5.855  13.402  19.693  0.00  0.00    +0.000 A 
ATOM     13  N   UNL     1      -5.005  13.643  20.756  0.00  0.00    +0.000 N 
ENDROOT
BRANCH   2  14
ATOM     14  N   UNL     1      -0.347  10.849  19.389  0.00  0.00    +0.000 N 
ATOM     15  C   UNL     1       0.019   9.660  19.997  0.00  0.00    +0.000 C 
ATOM     16  O   UNL     1      -0.590   9.167  20.945  0.00  0.00    +0.000 OA
ATOM     17  N   UNL     1       1.163   9.056  19.496  0.00  0.00    +0.000 N 
ATOM     18  C   UNL     1       1.878   9.418  18.268  0.00  0.00    +0.000 C 
ATOM     19  C   UNL     1       2.421   8.165  17.554  0.00  0.00    +0.000 C 
ATOM     20  O   UNL     1       3.206   7.355  18.442  0.00  0.00    +0.000 OA
ATOM     21  C   UNL     1       2.398   6.898  19.535  0.00  0.00    +0.000 C 
ATOM     22  C   UNL     1       1.859   8.078  20.343  0.00  0.00    +0.000 C 
ATOM     23  H   UNL     1       0.431  11.461  19.181  0.00  0.00    +0.000 HD
ENDBRANCH   2  14
BRANCH  13  24
ATOM     24  C   UNL     1      -5.368  14.474  21.911  0.00  0.00    +0.000 C 
ATOM     25  C   UNL     1      -5.443  13.682  23.217  0.00  0.00    +0.000 C 
ATOM     26  C   UNL     1      -4.530  15.748  22.037  0.00  0.00    +0.000 C 
ENDBRANCH  13  24
BRANCH   1  27
ATOM     27  O   UNL     1      -2.571  10.560  17.939  0.00  0.00    +0.000 OA
BRANCH  27  29
ATOM     28  C   UNL     1      -3.084  10.262  15.588  0.00  0.00    +0.000 C 
ATOM     29  C   UNL     1      -2.480  11.152  16.654  0.00  0.00    +0.000 C 
ENDBRANCH  27  29
ENDBRANCH   1  27
TORSDOF 4
ENDMDL
MODEL 6
REMARK VINA RESULT:      -6.7      1.410      3.288
REMARK  Name = 
REMARK  7 active torsions:
REMARK  status: ('A' for Active; 'I' for Inactive)
REMARK    1  A    between atoms: C_1  and  C_2
REMARK    2  A    between atoms: C_2  and  O_3
REMARK    3  A    between atoms: O_3  and  C_4
REMARK    4  A    between atoms: C_5  and  N_6
REMARK    5  A    between atoms: N_25  and  C_26
REMARK    6  A    between atoms: C_26  and  C_27
REMARK    7  A    between atoms: C_26  and  C_28
REMARK                            x       y       z     vdW  Elec       q    Type
REMARK                         _______ _______ _______ _____ _____    ______ ____
ROOT
ATOM      1  C   UNL     1       2.272   8.007  19.493  0.00  0.00    +0.000 A 
ATOM      2  C   UNL     1       1.263   8.034  20.498  0.00  0.00    +0.000 A 
ATOM      3  C   UNL     1       0.799   6.856  21.060  0.00  0.00    +0.000 A 
ATOM      4  C   UNL     1       1.290   5.629  20.636  0.00  0.00    +0.000 A 
ATOM      5  C   UNL     1       2.213   5.572  19.571  0.00  0.00    +0.000 A 
ATOM      6  C   UNL     1       2.705   6.738  18.945  0.00  0.00    +0.000 A 
ATOM      7  C   UNL     1       3.544   6.263  17.848  0.00  0.00    +0.000 A 
ATOM      8  C   UNL     1       4.271   6.864  16.786  0.00  0.00    +0.000 A 
ATOM      9  C   UNL     1       5.078   6.118  15.920  0.00  0.00    +0.000 A 
ATOM     10  C   UNL     1       5.127   4.745  16.034  0.00  0.00    +0.000 A 
ATOM     11  C   UNL     1       4.376   4.100  17.014  0.00  0.00    +0.000 A 
ATOM     12  C   UNL     1       3.604   4.865  17.916  0.00  0.00    +0.000 A 
ATOM     13  N   UNL     1       2.795   4.467  18.964  0.00  0.00    +0.000 N 
ENDROOT
BRANCH   2  14
ATOM     14  N   UNL     1       0.737   9.281  20.955  0.00  0.00    +0.000 N 
ATOM     15  C   UNL     1      -0.349   9.869  20.331  0.00  0.00    +0.000 C 
ATOM     16  O   UNL     1      -0.884   9.410  19.324  0.00  0.00    +0.000 OA
ATOM     17  N   UNL     1      -0.791  11.061  20.889  0.00  0.00    +0.000 N 
ATOM     18  C   UNL     1      -0.381  11.628  22.177  0.00  0.00    +0.000 C 
ATOM     19  C   UNL     1      -1.566  12.317  22.880  0.00  0.00    +0.000 C 
ATOM     20  O   UNL     1      -2.201  13.275  22.021  0.00  0.00    +0.000 OA
ATOM     21  C   UNL     1      -2.725  12.623  20.857  0.00  0.00    +0.000 C 
ATOM     22  C   UNL     1      -1.606  11.957  20.057  0.00  0.00    +0.000 C 
ATOM     23  H   UNL     1       1.453   9.937  21.240  0.00  0.00    +0.000 HD
ENDBRANCH   2  14
BRANCH  13  24
ATOM     24  C   UNL     1       2.601   3.063  19.349  0.00  0.00    +0.000 C 
ATOM     25  C   UNL     1       2.981   2.785  20.804  0.00  0.00    +0.000 C 
ATOM     26  C   UNL     1       1.223   2.512  18.979  0.00  0.00    +0.000 C 
ENDBRANCH  13  24
BRANCH   1  27
ATOM     27  O   UNL     1       2.667   9.297  19.108  0.00  0.00    +0.000 OA
BRANCH  27  29
ATOM     28  C   UNL     1       2.081  11.280  17.844  0.00  0.00    +0.000 C 
ATOM     29  C   UNL     1       2.160   9.769  17.870  0.00  0.00    +0.000 C 
ENDBRANCH  27  29
ENDBRANCH   1  27
TORSDOF 4
ENDMDL
MODEL 7
REMARK VINA RESULT:      -6.7      2.457      7.800
REMARK  Name = 
REMARK  7 active torsions:
REMARK  status: ('A' for Active; 'I' for Inactive)
REMARK    1  A    between atoms: C_1  and  C_2
REMARK    2  A    between atoms: C_2  and  O_3
REMARK    3  A    between atoms: O_3  and  C_4
REMARK    4  A    between atoms: C_5  and  N_6
REMARK    5  A    between atoms: N_25  and  C_26
REMARK    6  A    between atoms: C_26  and  C_27
REMARK    7  A    between atoms: C_26  and  C_28
REMARK                            x       y       z     vdW  Elec       q    Type
REMARK                         _______ _______ _______ _____ _____    ______ ____
ROOT
ATOM      1  C   UNL     1       1.855   8.053  19.545  0.00  0.00    +0.000 A 
ATOM      2  C   UNL     1       2.298   8.030  18.192  0.00  0.00    +0.000 A 
ATOM      3  C   UNL     1       2.173   9.155  17.391  0.00  0.00    +0.000 A 
ATOM      4  C   UNL     1       1.590  10.313  17.888  0.00  0.00    +0.000 A 
ATOM      5  C   UNL     1       1.051  10.326  19.191  0.00  0.00    +0.000 A 
ATOM      6  C   UNL     1       1.130   9.203  20.043  0.00  0.00    +0.000 A 
ATOM      7  C   UNL     1       0.385   9.575  21.242  0.00  0.00    +0.000 A 
ATOM      8  C   UNL     1      -0.004   8.926  22.444  0.00  0.00    +0.000 A 
ATOM      9  C   UNL     1      -0.663   9.603  23.477  0.00  0.00    +0.000 A 
ATOM     10  C   UNL     1      -1.024  10.924  23.316  0.00  0.00    +0.000 A 
ATOM     11  C   UNL     1      -0.730  11.586  22.127  0.00  0.00    +0.000 A 
ATOM     12  C   UNL     1      -0.020  10.910  21.110  0.00  0.00    +0.000 A 
ATOM     13  N   UNL     1       0.394  11.346  19.865  0.00  0.00    +0.000 N 
ENDROOT
BRANCH   2  14
ATOM     14  N   UNL     1       2.901   6.853  17.652  0.00  0.00    +0.000 N 
ATOM     15  C   UNL     1       4.236   6.838  17.287  0.00  0.00    +0.000 C 
ATOM     16  O   UNL     1       4.964   7.827  17.335  0.00  0.00    +0.000 OA
ATOM     17  N   UNL     1       4.715   5.625  16.811  0.00  0.00    +0.000 N 
ATOM     18  C   UNL     1       4.030   4.330  16.869  0.00  0.00    +0.000 C 
ATOM     19  C   UNL     1       5.030   3.188  17.135  0.00  0.00    +0.000 C 
ATOM     20  O   UNL     1       6.113   3.209  16.193  0.00  0.00    +0.000 OA
ATOM     21  C   UNL     1       6.841   4.438  16.306  0.00  0.00    +0.000 C 
ATOM     22  C   UNL     1       5.941   5.634  15.999  0.00  0.00    +0.000 C 
ATOM     23  H   UNL     1       2.295   6.347  17.019  0.00  0.00    +0.000 HD
ENDBRANCH   2  14
BRANCH  13  24
ATOM     24  C   UNL     1       0.151  12.704  19.361  0.00  0.00    +0.000 C 
ATOM     25  C   UNL     1       1.441  13.470  19.063  0.00  0.00    +0.000 C 
ATOM     26  C   UNL     1      -0.850  12.758  18.207  0.00  0.00    +0.000 C 
ENDBRANCH  13  24
BRANCH   1  27
ATOM     27  O   UNL     1       2.141   6.853  20.213  0.00  0.00    +0.000 OA
BRANCH  27  29
ATOM     28  C   UNL     1       1.407   4.562  20.516  0.00  0.00    +0.000 C 
ATOM     29  C   UNL     1       1.031   6.029  20.531  0.00  0.00    +0.000 C 
ENDBRANCH  27  29
ENDBRANCH   1  27
TORSDOF 4
ENDMDL
MODEL 8
REMARK VINA RESULT:      -6.6      1.165      1.219
REMARK  Name = 
REMARK  7 active torsions:
REMARK  status: ('A' for Active; 'I' for Inactive)
REMARK    1  A    between atoms: C_1  and  C_2
REMARK    2  A    between atoms: C_2  and  O_3
REMARK    3  A    between atoms: O_3  and  C_4
REMARK    4  A    between atoms: C_5  and  N_6
REMARK    5  A    between atoms: N_25  and  C_26
REMARK    6  A    between atoms: C_26  and  C_27
REMARK    7  A    between atoms: C_26  and  C_28
REMARK                            x       y       z     vdW  Elec       q    Type
REMARK                         _______ _______ _______ _____ _____    ______ ____
ROOT
ATOM      1  C   UNL     1       1.826   7.765  20.053  0.00  0.00    +0.000 A 
ATOM      2  C   UNL     1       2.036   8.834  19.136  0.00  0.00    +0.000 A 
ATOM      3  C   UNL     1       2.498   8.580  17.854  0.00  0.00    +0.000 A 
ATOM      4  C   UNL     1       2.788   7.283  17.452  0.00  0.00    +0.000 A 
ATOM      5  C   UNL     1       2.687   6.221  18.376  0.00  0.00    +0.000 A 
ATOM      6  C   UNL     1       2.242   6.424  19.700  0.00  0.00    +0.000 A 
ATOM      7  C   UNL     1       2.369   5.124  20.353  0.00  0.00    +0.000 A 
ATOM      8  C   UNL     1       2.184   4.620  21.668  0.00  0.00    +0.000 A 
ATOM      9  C   UNL     1       2.305   3.259  21.968  0.00  0.00    +0.000 A 
ATOM     10  C   UNL     1       2.690   2.368  20.989  0.00  0.00    +0.000 A 
ATOM     11  C   UNL     1       2.955   2.822  19.699  0.00  0.00    +0.000 A 
ATOM     12  C   UNL     1       2.780   4.190  19.393  0.00  0.00    +0.000 A 
ATOM     13  N   UNL     1       2.964   4.872  18.205  0.00  0.00    +0.000 N 
ENDROOT
BRANCH   2  14
ATOM     14  N   UNL     1       1.747  10.179  19.520  0.00  0.00    +0.000 N 
ATOM     15  C   UNL     1       0.537  10.769  19.200  0.00  0.00    +0.000 C 
ATOM     16  O   UNL     1      -0.329  10.218  18.521  0.00  0.00    +0.000 OA
ATOM     17  N   UNL     1       0.359  12.066  19.660  0.00  0.00    +0.000 N 
ATOM     18  C   UNL     1       1.207  12.776  20.622  0.00  0.00    +0.000 C 
ATOM     19  C   UNL     1       0.361  13.671  21.549  0.00  0.00    +0.000 C 
ATOM     20  O   UNL     1      -0.491  14.548  20.798  0.00  0.00    +0.000 OA
ATOM     21  C   UNL     1      -1.407  13.783  20.002  0.00  0.00    +0.000 C 
ATOM     22  C   UNL     1      -0.656  12.902  19.004  0.00  0.00    +0.000 C 
ATOM     23  H   UNL     1       2.542  10.799  19.436  0.00  0.00    +0.000 HD
ENDBRANCH   2  14
BRANCH  13  24
ATOM     24  C   UNL     1       3.397   4.226  16.959  0.00  0.00    +0.000 C 
ATOM     25  C   UNL     1       4.919   4.182  16.807  0.00  0.00    +0.000 C 
ATOM     26  C   UNL     1       2.737   2.869  16.712  0.00  0.00    +0.000 C 
ENDBRANCH  13  24
BRANCH   1  27
ATOM     27  O   UNL     1       1.280   8.212  21.266  0.00  0.00    +0.000 OA
BRANCH  27  29
ATOM     28  C   UNL     1      -0.661   9.061  22.444  0.00  0.00    +0.000 C 
ATOM     29  C   UNL     1      -0.128   8.100  21.403  0.00  0.00    +0.000 C 
ENDBRANCH  27  29
ENDBRANCH   1  27
TORSDOF 4
ENDMDL
MODEL 9
REMARK VINA RESULT:      -6.6      6.328      9.141
REMARK  Name = 
REMARK  7 active torsions:
REMARK  status: ('A' for Active; 'I' for Inactive)
REMARK    1  A    between atoms: C_1  and  C_2
REMARK    2  A    between atoms: C_2  and  O_3
REMARK    3  A    between atoms: O_3  and  C_4
REMARK    4  A    between atoms: C_5  and  N_6
REMARK    5  A    between atoms: N_25  and  C_26
REMARK    6  A    between atoms: C_26  and  C_27
REMARK    7  A    between atoms: C_26  and  C_28
REMARK                            x       y       z     vdW  Elec       q    Type
REMARK                         _______ _______ _______ _____ _____    ______ ____
ROOT
ATOM      1  C   UNL     1      -2.741  13.080  21.050  0.00  0.00    +0.000 A 
ATOM      2  C   UNL     1      -1.937  12.660  19.952  0.00  0.00    +0.000 A 
ATOM      3  C   UNL     1      -2.519  12.083  18.834  0.00  0.00    +0.000 A 
ATOM      4  C   UNL     1      -3.891  11.882  18.777  0.00  0.00    +0.000 A 
ATOM      5  C   UNL     1      -4.695  12.194  19.894  0.00  0.00    +0.000 A 
ATOM      6  C   UNL     1      -4.154  12.764  21.067  0.00  0.00    +0.000 A 
ATOM      7  C   UNL     1      -5.270  12.844  22.006  0.00  0.00    +0.000 A 
ATOM      8  C   UNL     1      -5.435  13.228  23.363  0.00  0.00    +0.000 A 
ATOM      9  C   UNL     1      -6.692  13.280  23.976  0.00  0.00    +0.000 A 
ATOM     10  C   UNL     1      -7.814  12.878  23.283  0.00  0.00    +0.000 A 
ATOM     11  C   UNL     1      -7.696  12.424  21.971  0.00  0.00    +0.000 A 
ATOM     12  C   UNL     1      -6.430  12.423  21.344  0.00  0.00    +0.000 A 
ATOM     13  N   UNL     1      -6.063  12.037  20.069  0.00  0.00    +0.000 N 
ENDROOT
BRANCH   2  14
ATOM     14  N   UNL     1      -0.522  12.854  19.982  0.00  0.00    +0.000 N 
ATOM     15  C   UNL     1       0.060  13.956  19.382  0.00  0.00    +0.000 C 
ATOM     16  O   UNL     1      -0.571  14.792  18.738  0.00  0.00    +0.000 OA
ATOM     17  N   UNL     1       1.439  14.052  19.510  0.00  0.00    +0.000 N 
ATOM     18  C   UNL     1       2.294  13.249  20.390  0.00  0.00    +0.000 C 
ATOM     19  C   UNL     1       3.441  14.098  20.972  0.00  0.00    +0.000 C 
ATOM     20  O   UNL     1       4.174  14.770  19.937  0.00  0.00    +0.000 OA
ATOM     21  C   UNL     1       3.310  15.664  19.222  0.00  0.00    +0.000 C 
ATOM     22  C   UNL     1       2.167  14.900  18.555  0.00  0.00    +0.000 C 
ATOM     23  H   UNL     1       0.002  11.996  19.865  0.00  0.00    +0.000 HD
ENDBRANCH   2  14
BRANCH  13  24
ATOM     24  C   UNL     1      -7.014  11.532  19.070  0.00  0.00    +0.000 C 
ATOM     25  C   UNL     1      -7.042  12.375  17.794  0.00  0.00    +0.000 C 
ATOM     26  C   UNL     1      -6.870  10.035  18.790  0.00  0.00    +0.000 C 
ENDBRANCH  13  24
BRANCH   1  27
ATOM     27  O   UNL     1      -1.983  13.713  22.047  0.00  0.00    +0.000 OA
BRANCH  27  29
ATOM     28  C   UNL     1      -1.462  11.599  23.114  0.00  0.00    +0.000 C 
ATOM     29  C   UNL     1      -1.892  13.040  23.292  0.00  0.00    +0.000 C 
ENDBRANCH  27  29
ENDBRANCH   1  27
TORSDOF 4
ENDMDL
