MODEL 1
REMARK VINA RESULT:      -8.1      0.000      0.000
REMARK  Name = 
REMARK  9 active torsions:
REMARK  status: ('A' for Active; 'I' for Inactive)
REMARK    1  A    between atoms: C_1  and  C_2
REMARK    2  A    between atoms: C_4  and  C_5
REMARK    3  A    between atoms: C_5  and  C_6
REMARK    4  A    between atoms: C_6  and  C_7
REMARK    5  A    between atoms: C_7  and  C_8
REMARK    6  A    between atoms: C_8  and  C_9
REMARK    7  A    between atoms: C_9  and  C_10
REMARK    8  A    between atoms: C_10  and  C_11
REMARK    9  A    between atoms: C_11  and  C_13
REMARK                            x       y       z     vdW  Elec       q    Type
REMARK                         _______ _______ _______ _____ _____    ______ ____
ROOT
ATOM      1  C   UNL     1       4.027   7.361  16.677  0.00  0.00    +0.000 C 
ATOM      2  C   UNL     1       3.245   7.314  17.932  0.00  0.00    +0.000 A 
ATOM      3  N   UNL     1       3.246   6.188  18.721  0.00  0.00    +0.000 NA
ATOM      4  C   UNL     1       2.452   6.463  19.743  0.00  0.00    +0.000 A 
ATOM      5  N   UNL     1       1.968   7.757  19.673  0.00  0.00    +0.000 N 
ATOM      6  N   UNL     1       1.158   8.388  20.575  0.00  0.00    +0.000 NA
ATOM      7  C   UNL     1       0.772   9.562  20.172  0.00  0.00    +0.000 A 
ATOM      8  N   UNL     1      -0.083  10.343  20.983  0.00  0.00    +0.000 N 
ATOM      9  C   UNL     1      -1.003  11.297  20.575  0.00  0.00    +0.000 A 
ATOM     10  C   UNL     1      -1.600  11.856  21.682  0.00  0.00    +0.000 A 
ATOM     11  C   UNL     1      -1.044  11.232  22.817  0.00  0.00    +0.000 A 
ATOM     12  C   UNL     1      -0.155  10.281  22.365  0.00  0.00    +0.000 A 
ATOM     13  C   UNL     1       1.170  10.236  18.904  0.00  0.00    +0.000 A 
ATOM     14  C   UNL     1       2.017   9.575  18.107  0.00  0.00    +0.000 A 
ATOM     15  C   UNL     1       2.430   8.281  18.482  0.00  0.00    +0.000 A 
ENDROOT
BRANCH   4  16
ATOM     16  C   UNL     1       2.062   5.500  20.815  0.00  0.00    +0.000 C 
BRANCH  16  17
ATOM     17  C   UNL     1       0.932   4.583  20.337  0.00  0.00    +0.000 C 
BRANCH  17  18
ATOM     18  C   UNL     1       1.296   3.104  20.489  0.00  0.00    +0.000 C 
BRANCH  18  19
ATOM     19  C   UNL     1       1.127   2.352  19.166  0.00  0.00    +0.000 C 
BRANCH  19  20
ATOM     20  C   UNL     1       1.979   2.971  18.059  0.00  0.00    +0.000 C 
BRANCH  20  21
ATOM     21  C   UNL     1       3.312   2.236  17.901  0.00  0.00    +0.000 C 
BRANCH  21  22
ATOM     22  C   UNL     1       4.480   3.059  18.420  0.00  0.00    +0.000 C 
ATOM     23  O   UNL     1       4.744   3.154  19.617  0.00  0.00    +0.000 OA
BRANCH  22  24
ATOM     24  C   UNL     1       5.305   3.820  17.439  0.00  0.00    +0.000 A 
ATOM     25  C   UNL     1       6.378   4.579  17.924  0.00  0.00    +0.000 A 
ATOM     26  C   UNL     1       7.187   5.299  17.042  0.00  0.00    +0.000 A 
ATOM     27  C   UNL     1       6.934   5.254  15.672  0.00  0.00    +0.000 A 
ATOM     28  C   UNL     1       5.869   4.496  15.183  0.00  0.00    +0.000 A 
ATOM     29  C   UNL     1       5.052   3.782  16.063  0.00  0.00    +0.000 A 
ENDBRANCH  22  24
ENDBRANCH  21  22
ENDBRANCH  20  21
ENDBRANCH  19  20
ENDBRANCH  18  19
ENDBRANCH  17  18
ENDBRANCH  16  17
ENDBRANCH   4  16
TORSDOF 8
ENDMDL
MODEL 2
REMARK VINA RESULT:      -7.8      5.300      8.601
REMARK  Name = 
REMARK  9 active torsions:
REMARK  status: ('A' for Active; 'I' for Inactive)
REMARK    1  A    between atoms: C_1  and  C_2
REMARK    2  A    between atoms: C_4  and  C_5
REMARK    3  A    between atoms: C_5  and  C_6
REMARK    4  A    between atoms: C_6  and  C_7
REMARK    5  A    between atoms: C_7  and  C_8
REMARK    6  A    between atoms: C_8  and  C_9
REMARK    7  A    between atoms: C_9  and  C_10
REMARK    8  A    between atoms: C_10  and  C_11
REMARK    9  A    between atoms: C_11  and  C_13
REMARK                            x       y       z     vdW  Elec       q    Type
REMARK                         _______ _______ _______ _____ _____    ______ ____
ROOT
ATOM      1  C   UNL     1       7.100   4.602  13.958  0.00  0.00    +0.000 C 
ATOM      2  C   UNL     1       6.768   5.111  15.307  0.00  0.00    +0.000 A 
ATOM      3  N   UNL     1       7.597   6.002  15.948  0.00  0.00    +0.000 NA
ATOM      4  C   UNL     1       7.031   6.243  17.118  0.00  0.00    +0.000 A 
ATOM      5  N   UNL     1       5.827   5.576  17.245  0.00  0.00    +0.000 N 
ATOM      6  N   UNL     1       4.958   5.626  18.299  0.00  0.00    +0.000 NA
ATOM      7  C   UNL     1       3.969   4.791  18.179  0.00  0.00    +0.000 A 
ATOM      8  N   UNL     1       2.986   4.708  19.191  0.00  0.00    +0.000 N 
ATOM      9  C   UNL     1       2.214   3.609  19.537  0.00  0.00    +0.000 A 
ATOM     10  C   UNL     1       1.349   3.961  20.549  0.00  0.00    +0.000 A 
ATOM     11  C   UNL     1       1.589   5.316  20.850  0.00  0.00    +0.000 A 
ATOM     12  C   UNL     1       2.622   5.738  20.043  0.00  0.00    +0.000 A 
ATOM     13  C   UNL     1       3.712   3.885  17.023  0.00  0.00    +0.000 A 
ATOM     14  C   UNL     1       4.577   3.945  16.004  0.00  0.00    +0.000 A 
ATOM     15  C   UNL     1       5.689   4.804  16.108  0.00  0.00    +0.000 A 
ENDROOT
BRANCH   4  16
ATOM     16  C   UNL     1       7.623   7.077  18.206  0.00  0.00    +0.000 C 
BRANCH  16  17
ATOM     17  C   UNL     1       7.960   8.480  17.692  0.00  0.00    +0.000 C 
BRANCH  17  18
ATOM     18  C   UNL     1       8.784   9.276  18.707  0.00  0.00    +0.000 C 
BRANCH  18  19
ATOM     19  C   UNL     1       9.009  10.714  18.233  0.00  0.00    +0.000 C 
BRANCH  19  20
ATOM     20  C   UNL     1      10.363  11.250  18.697  0.00  0.00    +0.000 C 
BRANCH  20  21
ATOM     21  C   UNL     1      10.353  11.580  20.192  0.00  0.00    +0.000 C 
BRANCH  21  22
ATOM     22  C   UNL     1       9.627  12.884  20.480  0.00  0.00    +0.000 C 
ATOM     23  O   UNL     1       9.925  13.944  19.934  0.00  0.00    +0.000 OA
BRANCH  22  24
ATOM     24  C   UNL     1       8.543  12.883  21.504  0.00  0.00    +0.000 A 
ATOM     25  C   UNL     1       8.428  11.767  22.345  0.00  0.00    +0.000 A 
ATOM     26  C   UNL     1       7.436  11.725  23.327  0.00  0.00    +0.000 A 
ATOM     27  C   UNL     1       6.565  12.802  23.482  0.00  0.00    +0.000 A 
ATOM     28  C   UNL     1       6.678  13.918  22.651  0.00  0.00    +0.000 A 
ATOM     29  C   UNL     1       7.663  13.959  21.661  0.00  0.00    +0.000 A 
ENDBRANCH  22  24
ENDBRANCH  21  22
ENDBRANCH  20  21
ENDBRANCH  19  20
ENDBRANCH  18  19
ENDBRANCH  17  18
ENDBRANCH  16  17
ENDBRANCH   4  16
TORSDOF 8
ENDMDL
MODEL 3
REMARK VINA RESULT:      -7.8      5.826      8.916
REMARK  Name = 
REMARK  9 active torsions:
REMARK  status: ('A' for Active; 'I' for Inactive)
REMARK    1  A    between atoms: C_1  and  C_2
REMARK    2  A    between atoms: C_4  and  C_5
REMARK    3  A    between atoms: C_5  and  C_6
REMARK    4  A    between atoms: C_6  and  C_7
REMARK    5  A    between atoms: C_7  and  C_8
REMARK    6  A    between atoms: C_8  and  C_9
REMARK    7  A    between atoms: C_9  and  C_10
REMARK    8  A    between atoms: C_10  and  C_11
REMARK    9  A    between atoms: C_11  and  C_13
REMARK                            x       y       z     vdW  Elec       q    Type
REMARK                         _______ _______ _______ _____ _____    ______ ____
ROOT
ATOM      1  C   UNL     1       7.049   4.583  13.896  0.00  0.00    +0.000 C 
ATOM      2  C   UNL     1       6.737   5.086  15.252  0.00  0.00    +0.000 A 
ATOM      3  N   UNL     1       7.566   5.987  15.878  0.00  0.00    +0.000 NA
ATOM      4  C   UNL     1       7.020   6.219  17.060  0.00  0.00    +0.000 A 
ATOM      5  N   UNL     1       5.827   5.535  17.209  0.00  0.00    +0.000 N 
ATOM      6  N   UNL     1       4.979   5.572  18.280  0.00  0.00    +0.000 NA
ATOM      7  C   UNL     1       3.999   4.724  18.177  0.00  0.00    +0.000 A 
ATOM      8  N   UNL     1       3.037   4.626  19.209  0.00  0.00    +0.000 N 
ATOM      9  C   UNL     1       2.286   3.517  19.567  0.00  0.00    +0.000 A 
ATOM     10  C   UNL     1       1.436   3.855  20.597  0.00  0.00    +0.000 A 
ATOM     11  C   UNL     1       1.664   5.213  20.896  0.00  0.00    +0.000 A 
ATOM     12  C   UNL     1       2.675   5.651  20.069  0.00  0.00    +0.000 A 
ATOM     13  C   UNL     1       3.732   3.817  17.026  0.00  0.00    +0.000 A 
ATOM     14  C   UNL     1       4.575   3.890  15.990  0.00  0.00    +0.000 A 
ATOM     15  C   UNL     1       5.677   4.763  16.073  0.00  0.00    +0.000 A 
ENDROOT
BRANCH   4  16
ATOM     16  C   UNL     1       7.621   7.060  18.138  0.00  0.00    +0.000 C 
BRANCH  16  17
ATOM     17  C   UNL     1       7.946   8.462  17.615  0.00  0.00    +0.000 C 
BRANCH  17  18
ATOM     18  C   UNL     1       8.728   9.286  18.640  0.00  0.00    +0.000 C 
BRANCH  18  19
ATOM     19  C   UNL     1       8.881  10.739  18.185  0.00  0.00    +0.000 C 
BRANCH  19  20
ATOM     20  C   UNL     1      10.319  11.229  18.349  0.00  0.00    +0.000 C 
BRANCH  20  21
ATOM     21  C   UNL     1      10.565  12.520  17.565  0.00  0.00    +0.000 C 
BRANCH  21  22
ATOM     22  C   UNL     1      10.861  13.694  18.485  0.00  0.00    +0.000 C 
ATOM     23  O   UNL     1      11.864  14.394  18.364  0.00  0.00    +0.000 OA
BRANCH  22  24
ATOM     24  C   UNL     1       9.920  13.973  19.607  0.00  0.00    +0.000 A 
ATOM     25  C   UNL     1      10.416  13.923  20.916  0.00  0.00    +0.000 A 
ATOM     26  C   UNL     1       9.575  14.189  21.999  0.00  0.00    +0.000 A 
ATOM     27  C   UNL     1       8.239  14.519  21.777  0.00  0.00    +0.000 A 
ATOM     28  C   UNL     1       7.741  14.576  20.475  0.00  0.00    +0.000 A 
ATOM     29  C   UNL     1       8.577  14.300  19.390  0.00  0.00    +0.000 A 
ENDBRANCH  22  24
ENDBRANCH  21  22
ENDBRANCH  20  21
ENDBRANCH  19  20
ENDBRANCH  18  19
ENDBRANCH  17  18
ENDBRANCH  16  17
ENDBRANCH   4  16
TORSDOF 8
ENDMDL
MODEL 4
REMARK VINA RESULT:      -7.7      0.720      1.291
REMARK  Name = 
REMARK  9 active torsions:
REMARK  status: ('A' for Active; 'I' for Inactive)
REMARK    1  A    between atoms: C_1  and  C_2
REMARK    2  A    between atoms: C_4  and  C_5
REMARK    3  A    between atoms: C_5  and  C_6
REMARK    4  A    between atoms: C_6  and  C_7
REMARK    5  A    between atoms: C_7  and  C_8
REMARK    6  A    between atoms: C_8  and  C_9
REMARK    7  A    between atoms: C_9  and  C_10
REMARK    8  A    between atoms: C_10  and  C_11
REMARK    9  A    between atoms: C_11  and  C_13
REMARK                            x       y       z     vdW  Elec       q    Type
REMARK                         _______ _______ _______ _____ _____    ______ ____
ROOT
ATOM      1  C   UNL     1       3.957   7.424  16.668  0.00  0.00    +0.000 C 
ATOM      2  C   UNL     1       3.165   7.364  17.915  0.00  0.00    +0.000 A 
ATOM      3  N   UNL     1       3.138   6.222  18.679  0.00  0.00    +0.000 NA
ATOM      4  C   UNL     1       2.341   6.489  19.701  0.00  0.00    +0.000 A 
ATOM      5  N   UNL     1       1.882   7.793  19.657  0.00  0.00    +0.000 N 
ATOM      6  N   UNL     1       1.078   8.419  20.566  0.00  0.00    +0.000 NA
ATOM      7  C   UNL     1       0.717   9.609  20.187  0.00  0.00    +0.000 A 
ATOM      8  N   UNL     1      -0.128  10.388  21.009  0.00  0.00    +0.000 N 
ATOM      9  C   UNL     1      -1.027  11.369  20.616  0.00  0.00    +0.000 A 
ATOM     10  C   UNL     1      -1.623  11.914  21.731  0.00  0.00    +0.000 A 
ATOM     11  C   UNL     1      -1.087  11.254  22.855  0.00  0.00    +0.000 A 
ATOM     12  C   UNL     1      -0.213  10.297  22.389  0.00  0.00    +0.000 A 
ATOM     13  C   UNL     1       1.138  10.304  18.937  0.00  0.00    +0.000 A 
ATOM     14  C   UNL     1       1.979   9.644  18.133  0.00  0.00    +0.000 A 
ATOM     15  C   UNL     1       2.364   8.334  18.481  0.00  0.00    +0.000 A 
ENDROOT
BRANCH   4  16
ATOM     16  C   UNL     1       1.924   5.510  20.748  0.00  0.00    +0.000 C 
BRANCH  16  17
ATOM     17  C   UNL     1       0.987   4.450  20.160  0.00  0.00    +0.000 C 
BRANCH  17  18
ATOM     18  C   UNL     1       1.596   3.048  20.232  0.00  0.00    +0.000 C 
BRANCH  18  19
ATOM     19  C   UNL     1       2.946   3.066  20.954  0.00  0.00    +0.000 C 
BRANCH  19  20
ATOM     20  C   UNL     1       4.031   2.374  20.128  0.00  0.00    +0.000 C 
BRANCH  20  21
ATOM     21  C   UNL     1       4.114   2.953  18.714  0.00  0.00    +0.000 C 
BRANCH  21  22
ATOM     22  C   UNL     1       5.334   3.843  18.537  0.00  0.00    +0.000 C 
ATOM     23  O   UNL     1       5.943   4.332  19.487  0.00  0.00    +0.000 OA
BRANCH  22  24
ATOM     24  C   UNL     1       5.776   4.175  17.152  0.00  0.00    +0.000 A 
ATOM     25  C   UNL     1       4.852   4.029  16.109  0.00  0.00    +0.000 A 
ATOM     26  C   UNL     1       5.216   4.338  14.797  0.00  0.00    +0.000 A 
ATOM     27  C   UNL     1       6.500   4.806  14.524  0.00  0.00    +0.000 A 
ATOM     28  C   UNL     1       7.423   4.958  15.559  0.00  0.00    +0.000 A 
ATOM     29  C   UNL     1       7.065   4.639  16.871  0.00  0.00    +0.000 A 
ENDBRANCH  22  24
ENDBRANCH  21  22
ENDBRANCH  20  21
ENDBRANCH  19  20
ENDBRANCH  18  19
ENDBRANCH  17  18
ENDBRANCH  16  17
ENDBRANCH   4  16
TORSDOF 8
ENDMDL
MODEL 5
REMARK VINA RESULT:      -7.2      2.681      8.037
REMARK  Name = 
REMARK  9 active torsions:
REMARK  status: ('A' for Active; 'I' for Inactive)
REMARK    1  A    between atoms: C_1  and  C_2
REMARK    2  A    between atoms: C_4  and  C_5
REMARK    3  A    between atoms: C_5  and  C_6
REMARK    4  A    between atoms: C_6  and  C_7
REMARK    5  A    between atoms: C_7  and  C_8
REMARK    6  A    between atoms: C_8  and  C_9
REMARK    7  A    between atoms: C_9  and  C_10
REMARK    8  A    between atoms: C_10  and  C_11
REMARK    9  A    between atoms: C_11  and  C_13
REMARK                            x       y       z     vdW  Elec       q    Type
REMARK                         _______ _______ _______ _____ _____    ______ ____
ROOT
ATOM      1  C   UNL     1       7.630   5.897  19.269  0.00  0.00    +0.000 C 
ATOM      2  C   UNL     1       6.675   5.118  18.450  0.00  0.00    +0.000 A 
ATOM      3  N   UNL     1       5.609   4.473  19.032  0.00  0.00    +0.000 NA
ATOM      4  C   UNL     1       4.970   3.869  18.045  0.00  0.00    +0.000 A 
ATOM      5  N   UNL     1       5.556   4.140  16.822  0.00  0.00    +0.000 N 
ATOM      6  N   UNL     1       5.139   3.718  15.591  0.00  0.00    +0.000 NA
ATOM      7  C   UNL     1       5.968   4.033  14.641  0.00  0.00    +0.000 A 
ATOM      8  N   UNL     1       5.691   3.658  13.306  0.00  0.00    +0.000 N 
ATOM      9  C   UNL     1       6.599   3.405  12.289  0.00  0.00    +0.000 A 
ATOM     10  C   UNL     1       5.915   3.110  11.131  0.00  0.00    +0.000 A 
ATOM     11  C   UNL     1       4.540   3.174  11.431  0.00  0.00    +0.000 A 
ATOM     12  C   UNL     1       4.427   3.465  12.773  0.00  0.00    +0.000 A 
ATOM     13  C   UNL     1       7.228   4.815  14.790  0.00  0.00    +0.000 A 
ATOM     14  C   UNL     1       7.530   5.246  16.020  0.00  0.00    +0.000 A 
ATOM     15  C   UNL     1       6.683   4.892  17.089  0.00  0.00    +0.000 A 
ENDROOT
BRANCH   4  16
ATOM     16  C   UNL     1       3.798   2.957  18.206  0.00  0.00    +0.000 C 
BRANCH  16  17
ATOM     17  C   UNL     1       2.628   3.417  17.332  0.00  0.00    +0.000 C 
BRANCH  17  18
ATOM     18  C   UNL     1       1.318   3.481  18.121  0.00  0.00    +0.000 C 
BRANCH  18  19
ATOM     19  C   UNL     1       1.570   3.350  19.625  0.00  0.00    +0.000 C 
BRANCH  19  20
ATOM     20  C   UNL     1       1.079   4.584  20.383  0.00  0.00    +0.000 C 
BRANCH  20  21
ATOM     21  C   UNL     1       2.234   5.530  20.720  0.00  0.00    +0.000 C 
BRANCH  21  22
ATOM     22  C   UNL     1       2.328   6.683  19.733  0.00  0.00    +0.000 C 
ATOM     23  O   UNL     1       2.935   6.597  18.668  0.00  0.00    +0.000 OA
BRANCH  22  24
ATOM     24  C   UNL     1       1.697   7.984  20.098  0.00  0.00    +0.000 A 
ATOM     25  C   UNL     1       1.488   8.927  19.083  0.00  0.00    +0.000 A 
ATOM     26  C   UNL     1       0.890  10.154  19.374  0.00  0.00    +0.000 A 
ATOM     27  C   UNL     1       0.487  10.440  20.678  0.00  0.00    +0.000 A 
ATOM     28  C   UNL     1       0.688   9.503  21.692  0.00  0.00    +0.000 A 
ATOM     29  C   UNL     1       1.296   8.278  21.406  0.00  0.00    +0.000 A 
ENDBRANCH  22  24
ENDBRANCH  21  22
ENDBRANCH  20  21
ENDBRANCH  19  20
ENDBRANCH  18  19
ENDBRANCH  17  18
ENDBRANCH  16  17
ENDBRANCH   4  16
TORSDOF 8
ENDMDL
MODEL 6
REMARK VINA RESULT:      -7.1      4.951      7.052
REMARK  Name = 
REMARK  9 active torsions:
REMARK  status: ('A' for Active; 'I' for Inactive)
REMARK    1  A    between atoms: C_1  and  C_2
REMARK    2  A    between atoms: C_4  and  C_5
REMARK    3  A    between atoms: C_5  and  C_6
REMARK    4  A    between atoms: C_6  and  C_7
REMARK    5  A    between atoms: C_7  and  C_8
REMARK    6  A    between atoms: C_8  and  C_9
REMARK    7  A    between atoms: C_9  and  C_10
REMARK    8  A    between atoms: C_10  and  C_11
REMARK    9  A    between atoms: C_11  and  C_13
REMARK                            x       y       z     vdW  Elec       q    Type
REMARK                         _______ _______ _______ _____ _____    ______ ____
ROOT
ATOM      1  C   UNL     1       4.241   2.289  19.312  0.00  0.00    +0.000 C 
ATOM      2  C   UNL     1       4.210   3.645  18.721  0.00  0.00    +0.000 A 
ATOM      3  N   UNL     1       5.043   3.980  17.680  0.00  0.00    +0.000 NA
ATOM      4  C   UNL     1       4.779   5.246  17.399  0.00  0.00    +0.000 A 
ATOM      5  N   UNL     1       3.759   5.738  18.192  0.00  0.00    +0.000 N 
ATOM      6  N   UNL     1       3.203   6.985  18.148  0.00  0.00    +0.000 NA
ATOM      7  C   UNL     1       2.346   7.190  19.104  0.00  0.00    +0.000 A 
ATOM      8  N   UNL     1       1.689   8.437  19.210  0.00  0.00    +0.000 N 
ATOM      9  C   UNL     1       1.200   9.046  20.356  0.00  0.00    +0.000 A 
ATOM     10  C   UNL     1       0.593  10.234  20.017  0.00  0.00    +0.000 A 
ATOM     11  C   UNL     1       0.709  10.379  18.620  0.00  0.00    +0.000 A 
ATOM     12  C   UNL     1       1.420   9.295  18.155  0.00  0.00    +0.000 A 
ATOM     13  C   UNL     1       1.924   6.205  20.140  0.00  0.00    +0.000 A 
ATOM     14  C   UNL     1       2.470   4.986  20.072  0.00  0.00    +0.000 A 
ATOM     15  C   UNL     1       3.435   4.729  19.079  0.00  0.00    +0.000 A 
ENDROOT
BRANCH   4  16
ATOM     16  C   UNL     1       5.513   6.078  16.400  0.00  0.00    +0.000 C 
BRANCH  16  17
ATOM     17  C   UNL     1       6.982   6.241  16.803  0.00  0.00    +0.000 C 
BRANCH  17  18
ATOM     18  C   UNL     1       7.125   6.865  18.193  0.00  0.00    +0.000 C 
BRANCH  18  19
ATOM     19  C   UNL     1       8.363   7.762  18.273  0.00  0.00    +0.000 C 
BRANCH  19  20
ATOM     20  C   UNL     1       8.060   9.179  17.785  0.00  0.00    +0.000 C 
BRANCH  20  21
ATOM     21  C   UNL     1       8.684  10.232  18.703  0.00  0.00    +0.000 C 
BRANCH  21  22
ATOM     22  C   UNL     1       8.746  11.598  18.038  0.00  0.00    +0.000 C 
ATOM     23  O   UNL     1       7.840  12.034  17.331  0.00  0.00    +0.000 OA
BRANCH  22  24
ATOM     24  C   UNL     1       9.979  12.419  18.215  0.00  0.00    +0.000 A 
ATOM     25  C   UNL     1      11.110  12.087  17.456  0.00  0.00    +0.000 A 
ATOM     26  C   UNL     1      12.283  12.833  17.578  0.00  0.00    +0.000 A 
ATOM     27  C   UNL     1      12.328  13.921  18.448  0.00  0.00    +0.000 A 
ATOM     28  C   UNL     1      11.204  14.260  19.202  0.00  0.00    +0.000 A 
ATOM     29  C   UNL     1      10.031  13.509  19.090  0.00  0.00    +0.000 A 
ENDBRANCH  22  24
ENDBRANCH  21  22
ENDBRANCH  20  21
ENDBRANCH  19  20
ENDBRANCH  18  19
ENDBRANCH  17  18
ENDBRANCH  16  17
ENDBRANCH   4  16
TORSDOF 8
ENDMDL
MODEL 7
REMARK VINA RESULT:      -7.1      5.529      8.768
REMARK  Name = 
REMARK  9 active torsions:
REMARK  status: ('A' for Active; 'I' for Inactive)
REMARK    1  A    between atoms: C_1  and  C_2
REMARK    2  A    between atoms: C_4  and  C_5
REMARK    3  A    between atoms: C_5  and  C_6
REMARK    4  A    between atoms: C_6  and  C_7
REMARK    5  A    between atoms: C_7  and  C_8
REMARK    6  A    between atoms: C_8  and  C_9
REMARK    7  A    between atoms: C_9  and  C_10
REMARK    8  A    between atoms: C_10  and  C_11
REMARK    9  A    between atoms: C_11  and  C_13
REMARK                            x       y       z     vdW  Elec       q    Type
REMARK                         _______ _______ _______ _____ _____    ______ ____
ROOT
ATOM      1  C   UNL     1       7.080   4.751  14.147  0.00  0.00    +0.000 C 
ATOM      2  C   UNL     1       6.695   5.075  15.538  0.00  0.00    +0.000 A 
ATOM      3  N   UNL     1       7.434   5.963  16.285  0.00  0.00    +0.000 NA
ATOM      4  C   UNL     1       6.842   6.020  17.466  0.00  0.00    +0.000 A 
ATOM      5  N   UNL     1       5.704   5.234  17.501  0.00  0.00    +0.000 N 
ATOM      6  N   UNL     1       4.830   5.088  18.540  0.00  0.00    +0.000 NA
ATOM      7  C   UNL     1       3.924   4.183  18.314  0.00  0.00    +0.000 A 
ATOM      8  N   UNL     1       2.948   3.898  19.297  0.00  0.00    +0.000 N 
ATOM      9  C   UNL     1       2.280   2.701  19.508  0.00  0.00    +0.000 A 
ATOM     10  C   UNL     1       1.381   2.858  20.539  0.00  0.00    +0.000 A 
ATOM     11  C   UNL     1       1.491   4.188  20.991  0.00  0.00    +0.000 A 
ATOM     12  C   UNL     1       2.484   4.791  20.250  0.00  0.00    +0.000 A 
ATOM     13  C   UNL     1       3.759   3.390  17.063  0.00  0.00    +0.000 A 
ATOM     14  C   UNL     1       4.619   3.642  16.070  0.00  0.00    +0.000 A 
ATOM     15  C   UNL     1       5.645   4.583  16.284  0.00  0.00    +0.000 A 
ENDROOT
BRANCH   4  16
ATOM     16  C   UNL     1       7.347   6.781  18.648  0.00  0.00    +0.000 C 
BRANCH  16  17
ATOM     17  C   UNL     1       8.462   7.747  18.235  0.00  0.00    +0.000 C 
BRANCH  17  18
ATOM     18  C   UNL     1       7.913   9.127  17.867  0.00  0.00    +0.000 C 
BRANCH  18  19
ATOM     19  C   UNL     1       8.916  10.232  18.209  0.00  0.00    +0.000 C 
BRANCH  19  20
ATOM     20  C   UNL     1       9.094  10.377  19.720  0.00  0.00    +0.000 C 
BRANCH  20  21
ATOM     21  C   UNL     1      10.130  11.451  20.061  0.00  0.00    +0.000 C 
BRANCH  21  22
ATOM     22  C   UNL     1       9.476  12.746  20.515  0.00  0.00    +0.000 C 
ATOM     23  O   UNL     1       9.358  13.723  19.779  0.00  0.00    +0.000 OA
BRANCH  22  24
ATOM     24  C   UNL     1       9.003  12.846  21.926  0.00  0.00    +0.000 A 
ATOM     25  C   UNL     1       8.997  14.109  22.534  0.00  0.00    +0.000 A 
ATOM     26  C   UNL     1       8.552  14.255  23.849  0.00  0.00    +0.000 A 
ATOM     27  C   UNL     1       8.100  13.143  24.558  0.00  0.00    +0.000 A 
ATOM     28  C   UNL     1       8.099  11.884  23.956  0.00  0.00    +0.000 A 
ATOM     29  C   UNL     1       8.553  11.733  22.643  0.00  0.00    +0.000 A 
ENDBRANCH  22  24
ENDBRANCH  21  22
ENDBRANCH  20  21
ENDBRANCH  19  20
ENDBRANCH  18  19
ENDBRANCH  17  18
ENDBRANCH  16  17
ENDBRANCH   4  16
TORSDOF 8
ENDMDL
MODEL 8
REMARK VINA RESULT:      -7.1      5.999      8.821
REMARK  Name = 
REMARK  9 active torsions:
REMARK  status: ('A' for Active; 'I' for Inactive)
REMARK    1  A    between atoms: C_1  and  C_2
REMARK    2  A    between atoms: C_4  and  C_5
REMARK    3  A    between atoms: C_5  and  C_6
REMARK    4  A    between atoms: C_6  and  C_7
REMARK    5  A    between atoms: C_7  and  C_8
REMARK    6  A    between atoms: C_8  and  C_9
REMARK    7  A    between atoms: C_9  and  C_10
REMARK    8  A    between atoms: C_10  and  C_11
REMARK    9  A    between atoms: C_11  and  C_13
REMARK                            x       y       z     vdW  Elec       q    Type
REMARK                         _______ _______ _______ _____ _____    ______ ____
ROOT
ATOM      1  C   UNL     1       6.814   3.953  14.011  0.00  0.00    +0.000 C 
ATOM      2  C   UNL     1       6.545   4.558  15.334  0.00  0.00    +0.000 A 
ATOM      3  N   UNL     1       7.424   5.457  15.890  0.00  0.00    +0.000 NA
ATOM      4  C   UNL     1       6.905   5.791  17.060  0.00  0.00    +0.000 A 
ATOM      5  N   UNL     1       5.684   5.176  17.267  0.00  0.00    +0.000 N 
ATOM      6  N   UNL     1       4.853   5.323  18.342  0.00  0.00    +0.000 NA
ATOM      7  C   UNL     1       3.834   4.518  18.306  0.00  0.00    +0.000 A 
ATOM      8  N   UNL     1       2.883   4.533  19.352  0.00  0.00    +0.000 N 
ATOM      9  C   UNL     1       2.086   3.486  19.791  0.00  0.00    +0.000 A 
ATOM     10  C   UNL     1       1.268   3.931  20.805  0.00  0.00    +0.000 A 
ATOM     11  C   UNL     1       1.562   5.294  21.012  0.00  0.00    +0.000 A 
ATOM     12  C   UNL     1       2.581   5.627  20.147  0.00  0.00    +0.000 A 
ATOM     13  C   UNL     1       3.509   3.551  17.220  0.00  0.00    +0.000 A 
ATOM     14  C   UNL     1       4.340   3.516  16.173  0.00  0.00    +0.000 A 
ATOM     15  C   UNL     1       5.482   4.340  16.186  0.00  0.00    +0.000 A 
ENDROOT
BRANCH   4  16
ATOM     16  C   UNL     1       7.560   6.671  18.073  0.00  0.00    +0.000 C 
BRANCH  16  17
ATOM     17  C   UNL     1       7.349   8.148  17.727  0.00  0.00    +0.000 C 
BRANCH  17  18
ATOM     18  C   UNL     1       8.667   8.926  17.722  0.00  0.00    +0.000 C 
BRANCH  18  19
ATOM     19  C   UNL     1       8.745   9.894  18.905  0.00  0.00    +0.000 C 
BRANCH  19  20
ATOM     20  C   UNL     1       9.566  11.136  18.559  0.00  0.00    +0.000 C 
BRANCH  20  21
ATOM     21  C   UNL     1       8.792  12.080  17.637  0.00  0.00    +0.000 C 
BRANCH  21  22
ATOM     22  C   UNL     1       8.701  13.485  18.211  0.00  0.00    +0.000 C 
ATOM     23  O   UNL     1       7.641  14.103  18.288  0.00  0.00    +0.000 OA
BRANCH  22  24
ATOM     24  C   UNL     1       9.958  14.155  18.652  0.00  0.00    +0.000 A 
ATOM     25  C   UNL     1      10.922  14.459  17.682  0.00  0.00    +0.000 A 
ATOM     26  C   UNL     1      12.110  15.097  18.045  0.00  0.00    +0.000 A 
ATOM     27  C   UNL     1      12.333  15.445  19.376  0.00  0.00    +0.000 A 
ATOM     28  C   UNL     1      11.375  15.149  20.346  0.00  0.00    +0.000 A 
ATOM     29  C   UNL     1      10.190  14.502  19.988  0.00  0.00    +0.000 A 
ENDBRANCH  22  24
ENDBRANCH  21  22
ENDBRANCH  20  21
ENDBRANCH  19  20
ENDBRANCH  18  19
ENDBRANCH  17  18
ENDBRANCH  16  17
ENDBRANCH   4  16
TORSDOF 8
ENDMDL
MODEL 9
REMARK VINA RESULT:      -7.0      1.408      3.875
REMARK  Name = 
REMARK  9 active torsions:
REMARK  status: ('A' for Active; 'I' for Inactive)
REMARK    1  A    between atoms: C_1  and  C_2
REMARK    2  A    between atoms: C_4  and  C_5
REMARK    3  A    between atoms: C_5  and  C_6
REMARK    4  A    between atoms: C_6  and  C_7
REMARK    5  A    between atoms: C_7  and  C_8
REMARK    6  A    between atoms: C_8  and  C_9
REMARK    7  A    between atoms: C_9  and  C_10
REMARK    8  A    between atoms: C_10  and  C_11
REMARK    9  A    between atoms: C_11  and  C_13
REMARK                            x       y       z     vdW  Elec       q    Type
REMARK                         _______ _______ _______ _____ _____    ______ ____
ROOT
ATOM      1  C   UNL     1       1.917   5.096  21.067  0.00  0.00    +0.000 C 
ATOM      2  C   UNL     1       2.023   6.291  20.202  0.00  0.00    +0.000 A 
ATOM      3  N   UNL     1       2.740   6.252  19.030  0.00  0.00    +0.000 NA
ATOM      4  C   UNL     1       2.650   7.465  18.510  0.00  0.00    +0.000 A 
ATOM      5  N   UNL     1       1.850   8.287  19.282  0.00  0.00    +0.000 N 
ATOM      6  N   UNL     1       1.506   9.585  19.027  0.00  0.00    +0.000 NA
ATOM      7  C   UNL     1       0.842  10.132  20.002  0.00  0.00    +0.000 A 
ATOM      8  N   UNL     1       0.421  11.478  19.904  0.00  0.00    +0.000 N 
ATOM      9  C   UNL     1       0.210  12.380  20.936  0.00  0.00    +0.000 A 
ATOM     10  C   UNL     1      -0.236  13.573  20.414  0.00  0.00    +0.000 A 
ATOM     11  C   UNL     1      -0.302  13.418  19.015  0.00  0.00    +0.000 A 
ATOM     12  C   UNL     1       0.146  12.149  18.722  0.00  0.00    +0.000 A 
ATOM     13  C   UNL     1       0.419   9.467  21.266  0.00  0.00    +0.000 A 
ATOM     14  C   UNL     1       0.741   8.176  21.408  0.00  0.00    +0.000 A 
ATOM     15  C   UNL     1       1.497   7.551  20.397  0.00  0.00    +0.000 A 
ENDROOT
BRANCH   4  16
ATOM     16  C   UNL     1       3.357   7.931  17.281  0.00  0.00    +0.000 C 
BRANCH  16  17
ATOM     17  C   UNL     1       4.726   7.256  17.153  0.00  0.00    +0.000 C 
BRANCH  17  18
ATOM     18  C   UNL     1       4.909   6.594  15.785  0.00  0.00    +0.000 C 
BRANCH  18  19
ATOM     19  C   UNL     1       6.320   6.021  15.630  0.00  0.00    +0.000 C 
BRANCH  19  20
ATOM     20  C   UNL     1       7.053   5.969  16.971  0.00  0.00    +0.000 C 
BRANCH  20  21
ATOM     21  C   UNL     1       7.032   4.559  17.566  0.00  0.00    +0.000 C 
BRANCH  21  22
ATOM     22  C   UNL     1       6.067   4.452  18.737  0.00  0.00    +0.000 C 
ATOM     23  O   UNL     1       6.283   4.981  19.825  0.00  0.00    +0.000 OA
BRANCH  22  24
ATOM     24  C   UNL     1       4.834   3.631  18.568  0.00  0.00    +0.000 A 
ATOM     25  C   UNL     1       4.406   2.849  19.649  0.00  0.00    +0.000 A 
ATOM     26  C   UNL     1       3.250   2.073  19.543  0.00  0.00    +0.000 A 
ATOM     27  C   UNL     1       2.511   2.084  18.361  0.00  0.00    +0.000 A 
ATOM     28  C   UNL     1       2.930   2.864  17.283  0.00  0.00    +0.000 A 
ATOM     29  C   UNL     1       4.091   3.634  17.382  0.00  0.00    +0.000 A 
ENDBRANCH  22  24
ENDBRANCH  21  22
ENDBRANCH  20  21
ENDBRANCH  19  20
ENDBRANCH  18  19
ENDBRANCH  17  18
ENDBRANCH  16  17
ENDBRANCH   4  16
TORSDOF 8
ENDMDL
