MODEL 1
REMARK VINA RESULT:      -6.9      0.000      0.000
REMARK  Name = 
REMARK  6 active torsions:
REMARK  status: ('A' for Active; 'I' for Inactive)
REMARK    1  A    between atoms: C_1  and  C_2
REMARK    2  A    between atoms: C_2  and  C_3
REMARK    3  A    between atoms: C_2  and  C_4
REMARK    4  A    between atoms: C_2  and  O_5
REMARK    5  A    between atoms: O_5  and  C_6
REMARK    6  A    between atoms: C_11  and  C_12
REMARK                            x       y       z     vdW  Elec       q    Type
REMARK                         _______ _______ _______ _____ _____    ______ ____
ROOT
ATOM      1  C   UNL     1       6.709   4.688  14.179  0.00  0.00    +0.000 C 
ATOM      2  O   UNL     1       7.430   5.610  13.810  0.00  0.00    +0.000 OA
ATOM      3  N   UNL     1       5.861   4.804  15.258  0.00  0.00    +0.000 N 
ATOM      4  C   UNL     1       5.746   6.097  15.915  0.00  0.00    +0.000 C 
ATOM      5  C   UNL     1       6.264   6.004  17.344  0.00  0.00    +0.000 C 
ATOM      6  C   UNL     1       5.593   4.877  18.143  0.00  0.00    +0.000 C 
ATOM      7  C   UNL     1       5.630   3.551  17.357  0.00  0.00    +0.000 C 
ATOM      8  C   UNL     1       5.155   3.706  15.905  0.00  0.00    +0.000 C 
ENDROOT
BRANCH   6   9
ATOM      9  C   UNL     1       4.151   5.228  18.547  0.00  0.00    +0.000 C 
ATOM     10  O   UNL     1       3.764   6.400  18.539  0.00  0.00    +0.000 OA
ATOM     11  N   UNL     1       3.271   4.183  18.829  0.00  0.00    +0.000 N 
ATOM     12  C   UNL     1       1.839   4.492  18.865  0.00  0.00    +0.000 C 
ATOM     13  C   UNL     1       1.353   4.883  20.258  0.00  0.00    +0.000 C 
ATOM     14  C   UNL     1       1.178   3.703  21.211  0.00  0.00    +0.000 C 
ATOM     15  C   UNL     1       2.427   2.846  21.403  0.00  0.00    +0.000 C 
ATOM     16  C   UNL     1       2.802   2.059  20.147  0.00  0.00    +0.000 C 
ATOM     17  C   UNL     1       3.703   2.834  19.186  0.00  0.00    +0.000 C 
ENDBRANCH   6   9
BRANCH   1  18
ATOM     18  O   UNL     1       6.663   3.471  13.562  0.00  0.00    +0.000 OA
BRANCH  18  20
ATOM     19  C   UNL     1       7.121   4.435  11.351  0.00  0.00    +0.000 C 
ATOM     20  C   UNL     1       6.297   3.421  12.155  0.00  0.00    +0.000 C 
ATOM     21  C   UNL     1       4.783   3.597  11.949  0.00  0.00    +0.000 C 
ATOM     22  C   UNL     1       6.668   2.013  11.656  0.00  0.00    +0.000 C 
ENDBRANCH  18  20
ENDBRANCH   1  18
TORSDOF 3
ENDMDL
MODEL 2
REMARK VINA RESULT:      -6.5      5.710      8.753
REMARK  Name = 
REMARK  6 active torsions:
REMARK  status: ('A' for Active; 'I' for Inactive)
REMARK    1  A    between atoms: C_1  and  C_2
REMARK    2  A    between atoms: C_2  and  C_3
REMARK    3  A    between atoms: C_2  and  C_4
REMARK    4  A    between atoms: C_2  and  O_5
REMARK    5  A    between atoms: O_5  and  C_6
REMARK    6  A    between atoms: C_11  and  C_12
REMARK                            x       y       z     vdW  Elec       q    Type
REMARK                         _______ _______ _______ _____ _____    ______ ____
ROOT
ATOM      1  C   UNL     1      -1.748  11.379  18.569  0.00  0.00    +0.000 C 
ATOM      2  O   UNL     1      -2.129  12.141  19.452  0.00  0.00    +0.000 OA
ATOM      3  N   UNL     1      -0.894  10.328  18.823  0.00  0.00    +0.000 N 
ATOM      4  C   UNL     1      -0.517  10.057  20.202  0.00  0.00    +0.000 C 
ATOM      5  C   UNL     1       0.979  10.278  20.385  0.00  0.00    +0.000 C 
ATOM      6  C   UNL     1       1.821   9.481  19.378  0.00  0.00    +0.000 C 
ATOM      7  C   UNL     1       1.310   9.701  17.940  0.00  0.00    +0.000 C 
ATOM      8  C   UNL     1      -0.211   9.527  17.816  0.00  0.00    +0.000 C 
ENDROOT
BRANCH   6   9
ATOM      9  C   UNL     1       1.865   7.980  19.713  0.00  0.00    +0.000 C 
ATOM     10  O   UNL     1       1.330   7.550  20.738  0.00  0.00    +0.000 OA
ATOM     11  N   UNL     1       2.442   7.113  18.785  0.00  0.00    +0.000 N 
ATOM     12  C   UNL     1       2.172   5.680  18.936  0.00  0.00    +0.000 C 
ATOM     13  C   UNL     1       3.210   4.970  19.800  0.00  0.00    +0.000 C 
ATOM     14  C   UNL     1       4.534   4.702  19.088  0.00  0.00    +0.000 C 
ATOM     15  C   UNL     1       5.213   5.942  18.511  0.00  0.00    +0.000 C 
ATOM     16  C   UNL     1       4.447   6.538  17.330  0.00  0.00    +0.000 C 
ATOM     17  C   UNL     1       3.371   7.542  17.742  0.00  0.00    +0.000 C 
ENDBRANCH   6   9
BRANCH   1  18
ATOM     18  O   UNL     1      -2.132  11.482  17.263  0.00  0.00    +0.000 OA
BRANCH  18  20
ATOM     19  C   UNL     1      -4.554  11.793  16.998  0.00  0.00    +0.000 C 
ATOM     20  C   UNL     1      -3.367  10.832  16.852  0.00  0.00    +0.000 C 
ATOM     21  C   UNL     1      -3.591   9.503  17.594  0.00  0.00    +0.000 C 
ATOM     22  C   UNL     1      -3.211  10.503  15.357  0.00  0.00    +0.000 C 
ENDBRANCH  18  20
ENDBRANCH   1  18
TORSDOF 3
ENDMDL
MODEL 3
REMARK VINA RESULT:      -6.4      3.829      8.161
REMARK  Name = 
REMARK  6 active torsions:
REMARK  status: ('A' for Active; 'I' for Inactive)
REMARK    1  A    between atoms: C_1  and  C_2
REMARK    2  A    between atoms: C_2  and  C_3
REMARK    3  A    between atoms: C_2  and  C_4
REMARK    4  A    between atoms: C_2  and  O_5
REMARK    5  A    between atoms: O_5  and  C_6
REMARK    6  A    between atoms: C_11  and  C_12
REMARK                            x       y       z     vdW  Elec       q    Type
REMARK                         _______ _______ _______ _____ _____    ______ ____
ROOT
ATOM      1  C   UNL     1       0.750   9.392  19.331  0.00  0.00    +0.000 C 
ATOM      2  O   UNL     1       0.482  10.031  18.319  0.00  0.00    +0.000 OA
ATOM      3  N   UNL     1       1.709   8.403  19.344  0.00  0.00    +0.000 N 
ATOM      4  C   UNL     1       2.498   8.184  18.141  0.00  0.00    +0.000 C 
ATOM      5  C   UNL     1       2.215   6.798  17.576  0.00  0.00    +0.000 C 
ATOM      6  C   UNL     1       2.411   5.686  18.618  0.00  0.00    +0.000 C 
ATOM      7  C   UNL     1       1.657   6.017  19.922  0.00  0.00    +0.000 C 
ATOM      8  C   UNL     1       1.926   7.445  20.420  0.00  0.00    +0.000 C 
ENDROOT
BRANCH   6   9
ATOM      9  C   UNL     1       3.897   5.413  18.906  0.00  0.00    +0.000 C 
ATOM     10  O   UNL     1       4.435   5.868  19.919  0.00  0.00    +0.000 OA
ATOM     11  N   UNL     1       4.591   4.562  18.043  0.00  0.00    +0.000 N 
ATOM     12  C   UNL     1       5.876   4.030  18.504  0.00  0.00    +0.000 C 
ATOM     13  C   UNL     1       7.057   4.911  18.108  0.00  0.00    +0.000 C 
ATOM     14  C   UNL     1       7.467   4.782  16.643  0.00  0.00    +0.000 C 
ATOM     15  C   UNL     1       6.350   5.064  15.640  0.00  0.00    +0.000 C 
ATOM     16  C   UNL     1       5.259   3.993  15.656  0.00  0.00    +0.000 C 
ATOM     17  C   UNL     1       4.157   4.259  16.682  0.00  0.00    +0.000 C 
ENDBRANCH   6   9
BRANCH   1  18
ATOM     18  O   UNL     1       0.144   9.596  20.537  0.00  0.00    +0.000 OA
BRANCH  18  20
ATOM     19  C   UNL     1      -1.352  11.500  20.130  0.00  0.00    +0.000 C 
ATOM     20  C   UNL     1      -0.163  10.960  20.936  0.00  0.00    +0.000 C 
ATOM     21  C   UNL     1       1.071  11.875  20.848  0.00  0.00    +0.000 C 
ATOM     22  C   UNL     1      -0.586  10.900  22.414  0.00  0.00    +0.000 C 
ENDBRANCH  18  20
ENDBRANCH   1  18
TORSDOF 3
ENDMDL
MODEL 4
REMARK VINA RESULT:      -6.4      6.005      8.342
REMARK  Name = 
REMARK  6 active torsions:
REMARK  status: ('A' for Active; 'I' for Inactive)
REMARK    1  A    between atoms: C_1  and  C_2
REMARK    2  A    between atoms: C_2  and  C_3
REMARK    3  A    between atoms: C_2  and  C_4
REMARK    4  A    between atoms: C_2  and  O_5
REMARK    5  A    between atoms: O_5  and  C_6
REMARK    6  A    between atoms: C_11  and  C_12
REMARK                            x       y       z     vdW  Elec       q    Type
REMARK                         _______ _______ _______ _____ _____    ______ ____
ROOT
ATOM      1  C   UNL     1       2.185   6.336  19.225  0.00  0.00    +0.000 C 
ATOM      2  O   UNL     1       1.893   5.406  19.971  0.00  0.00    +0.000 OA
ATOM      3  N   UNL     1       2.011   7.653  19.588  0.00  0.00    +0.000 N 
ATOM      4  C   UNL     1       1.562   7.948  20.940  0.00  0.00    +0.000 C 
ATOM      5  C   UNL     1       0.189   8.606  20.902  0.00  0.00    +0.000 C 
ATOM      6  C   UNL     1       0.152   9.840  19.988  0.00  0.00    +0.000 C 
ATOM      7  C   UNL     1       0.749   9.516  18.604  0.00  0.00    +0.000 C 
ATOM      8  C   UNL     1       2.104   8.799  18.693  0.00  0.00    +0.000 C 
ENDROOT
BRANCH   6   9
ATOM      9  C   UNL     1       0.863  11.051  20.615  0.00  0.00    +0.000 C 
ATOM     10  O   UNL     1       1.424  10.953  21.709  0.00  0.00    +0.000 OA
ATOM     11  N   UNL     1       0.936  12.231  19.873  0.00  0.00    +0.000 N 
ATOM     12  C   UNL     1       1.898  13.247  20.308  0.00  0.00    +0.000 C 
ATOM     13  C   UNL     1       1.295  14.250  21.289  0.00  0.00    +0.000 C 
ATOM     14  C   UNL     1       0.399  15.299  20.634  0.00  0.00    +0.000 C 
ATOM     15  C   UNL     1      -0.759  14.731  19.816  0.00  0.00    +0.000 C 
ATOM     16  C   UNL     1      -0.290  14.021  18.546  0.00  0.00    +0.000 C 
ATOM     17  C   UNL     1       0.045  12.544  18.759  0.00  0.00    +0.000 C 
ENDBRANCH   6   9
BRANCH   1  18
ATOM     18  O   UNL     1       2.715   6.166  17.978  0.00  0.00    +0.000 OA
BRANCH  18  20
ATOM     19  C   UNL     1       4.688   5.460  19.259  0.00  0.00    +0.000 C 
ATOM     20  C   UNL     1       4.073   5.657  17.867  0.00  0.00    +0.000 C 
ATOM     21  C   UNL     1       4.945   6.541  16.958  0.00  0.00    +0.000 C 
ATOM     22  C   UNL     1       3.968   4.274  17.199  0.00  0.00    +0.000 C 
ENDBRANCH  18  20
ENDBRANCH   1  18
TORSDOF 3
ENDMDL
MODEL 5
REMARK VINA RESULT:      -6.4      6.205      8.671
REMARK  Name = 
REMARK  6 active torsions:
REMARK  status: ('A' for Active; 'I' for Inactive)
REMARK    1  A    between atoms: C_1  and  C_2
REMARK    2  A    between atoms: C_2  and  C_3
REMARK    3  A    between atoms: C_2  and  C_4
REMARK    4  A    between atoms: C_2  and  O_5
REMARK    5  A    between atoms: O_5  and  C_6
REMARK    6  A    between atoms: C_11  and  C_12
REMARK                            x       y       z     vdW  Elec       q    Type
REMARK                         _______ _______ _______ _____ _____    ______ ____
ROOT
ATOM      1  C   UNL     1       2.195   6.729  19.513  0.00  0.00    +0.000 C 
ATOM      2  O   UNL     1       2.097   5.783  20.288  0.00  0.00    +0.000 OA
ATOM      3  N   UNL     1       1.827   8.009  19.864  0.00  0.00    +0.000 N 
ATOM      4  C   UNL     1       1.406   8.260  21.234  0.00  0.00    +0.000 C 
ATOM      5  C   UNL     1      -0.056   8.686  21.260  0.00  0.00    +0.000 C 
ATOM      6  C   UNL     1      -0.340   9.875  20.330  0.00  0.00    +0.000 C 
ATOM      7  C   UNL     1       0.230   9.619  18.921  0.00  0.00    +0.000 C 
ATOM      8  C   UNL     1       1.687   9.134  18.948  0.00  0.00    +0.000 C 
ENDROOT
BRANCH   6   9
ATOM      9  C   UNL     1       0.195  11.200  20.899  0.00  0.00    +0.000 C 
ATOM     10  O   UNL     1       1.274  11.238  21.495  0.00  0.00    +0.000 OA
ATOM     11  N   UNL     1      -0.525  12.368  20.641  0.00  0.00    +0.000 N 
ATOM     12  C   UNL     1       0.153  13.647  20.871  0.00  0.00    +0.000 C 
ATOM     13  C   UNL     1      -0.058  14.183  22.284  0.00  0.00    +0.000 C 
ATOM     14  C   UNL     1      -1.432  14.806  22.516  0.00  0.00    +0.000 C 
ATOM     15  C   UNL     1      -2.612  13.885  22.213  0.00  0.00    +0.000 C 
ATOM     16  C   UNL     1      -2.757  13.585  20.721  0.00  0.00    +0.000 C 
ATOM     17  C   UNL     1      -1.933  12.384  20.255  0.00  0.00    +0.000 C 
ENDBRANCH   6   9
BRANCH   1  18
ATOM     18  O   UNL     1       2.682   6.618  18.242  0.00  0.00    +0.000 OA
BRANCH  18  20
ATOM     19  C   UNL     1       3.299   4.353  17.522  0.00  0.00    +0.000 C 
ATOM     20  C   UNL     1       3.801   5.720  18.006  0.00  0.00    +0.000 C 
ATOM     21  C   UNL     1       4.718   5.608  19.236  0.00  0.00    +0.000 C 
ATOM     22  C   UNL     1       4.631   6.344  16.870  0.00  0.00    +0.000 C 
ENDBRANCH  18  20
ENDBRANCH   1  18
TORSDOF 3
ENDMDL
MODEL 6
REMARK VINA RESULT:      -6.2      6.145      8.587
REMARK  Name = 
REMARK  6 active torsions:
REMARK  status: ('A' for Active; 'I' for Inactive)
REMARK    1  A    between atoms: C_1  and  C_2
REMARK    2  A    between atoms: C_2  and  C_3
REMARK    3  A    between atoms: C_2  and  C_4
REMARK    4  A    between atoms: C_2  and  O_5
REMARK    5  A    between atoms: O_5  and  C_6
REMARK    6  A    between atoms: C_11  and  C_12
REMARK                            x       y       z     vdW  Elec       q    Type
REMARK                         _______ _______ _______ _____ _____    ______ ____
ROOT
ATOM      1  C   UNL     1       2.204   6.831  19.673  0.00  0.00    +0.000 C 
ATOM      2  O   UNL     1       1.902   6.068  20.585  0.00  0.00    +0.000 OA
ATOM      3  N   UNL     1       1.881   8.170  19.696  0.00  0.00    +0.000 N 
ATOM      4  C   UNL     1       1.252   8.712  20.890  0.00  0.00    +0.000 C 
ATOM      5  C   UNL     1      -0.156   9.194  20.565  0.00  0.00    +0.000 C 
ATOM      6  C   UNL     1      -0.184  10.179  19.386  0.00  0.00    +0.000 C 
ATOM      7  C   UNL     1       0.598   9.617  18.183  0.00  0.00    +0.000 C 
ATOM      8  C   UNL     1       1.987   9.088  18.569  0.00  0.00    +0.000 C 
ENDROOT
BRANCH   6   9
ATOM      9  C   UNL     1       0.346  11.569  19.776  0.00  0.00    +0.000 C 
ATOM     10  O   UNL     1       1.525  11.872  19.572  0.00  0.00    +0.000 OA
ATOM     11  N   UNL     1      -0.560  12.506  20.276  0.00  0.00    +0.000 N 
ATOM     12  C   UNL     1      -0.136  13.908  20.311  0.00  0.00    +0.000 C 
ATOM     13  C   UNL     1       0.532  14.291  21.629  0.00  0.00    +0.000 C 
ATOM     14  C   UNL     1      -0.444  14.499  22.785  0.00  0.00    +0.000 C 
ATOM     15  C   UNL     1      -1.349  13.306  23.080  0.00  0.00    +0.000 C 
ATOM     16  C   UNL     1      -2.373  13.055  21.973  0.00  0.00    +0.000 C 
ATOM     17  C   UNL     1      -1.855  12.152  20.853  0.00  0.00    +0.000 C 
ENDBRANCH   6   9
BRANCH   1  18
ATOM     18  O   UNL     1       2.891   6.442  18.559  0.00  0.00    +0.000 OA
BRANCH  18  20
ATOM     19  C   UNL     1       1.714   4.402  17.865  0.00  0.00    +0.000 C 
ATOM     20  C   UNL     1       3.049   5.019  18.304  0.00  0.00    +0.000 C 
ATOM     21  C   UNL     1       3.669   4.286  19.506  0.00  0.00    +0.000 C 
ATOM     22  C   UNL     1       4.034   4.891  17.129  0.00  0.00    +0.000 C 
ENDBRANCH  18  20
ENDBRANCH   1  18
TORSDOF 3
ENDMDL
MODEL 7
REMARK VINA RESULT:      -6.2      3.453      5.358
REMARK  Name = 
REMARK  6 active torsions:
REMARK  status: ('A' for Active; 'I' for Inactive)
REMARK    1  A    between atoms: C_1  and  C_2
REMARK    2  A    between atoms: C_2  and  C_3
REMARK    3  A    between atoms: C_2  and  C_4
REMARK    4  A    between atoms: C_2  and  O_5
REMARK    5  A    between atoms: O_5  and  C_6
REMARK    6  A    between atoms: C_11  and  C_12
REMARK                            x       y       z     vdW  Elec       q    Type
REMARK                         _______ _______ _______ _____ _____    ______ ____
ROOT
ATOM      1  C   UNL     1       4.798   4.048  17.689  0.00  0.00    +0.000 C 
ATOM      2  O   UNL     1       4.329   3.023  17.203  0.00  0.00    +0.000 OA
ATOM      3  N   UNL     1       4.052   4.897  18.476  0.00  0.00    +0.000 N 
ATOM      4  C   UNL     1       2.693   4.508  18.824  0.00  0.00    +0.000 C 
ATOM      5  C   UNL     1       1.698   5.487  18.213  0.00  0.00    +0.000 C 
ATOM      6  C   UNL     1       2.005   6.946  18.581  0.00  0.00    +0.000 C 
ATOM      7  C   UNL     1       3.485   7.281  18.311  0.00  0.00    +0.000 C 
ATOM      8  C   UNL     1       4.448   6.235  18.893  0.00  0.00    +0.000 C 
ENDROOT
BRANCH   6   9
ATOM      9  C   UNL     1       1.633   7.270  20.038  0.00  0.00    +0.000 C 
ATOM     10  O   UNL     1       1.507   6.367  20.870  0.00  0.00    +0.000 OA
ATOM     11  N   UNL     1       1.536   8.611  20.412  0.00  0.00    +0.000 N 
ATOM     12  C   UNL     1       1.534   8.917  21.846  0.00  0.00    +0.000 C 
ATOM     13  C   UNL     1       0.128   8.957  22.440  0.00  0.00    +0.000 C 
ATOM     14  C   UNL     1      -0.651  10.228  22.111  0.00  0.00    +0.000 C 
ATOM     15  C   UNL     1      -0.793  10.523  20.619  0.00  0.00    +0.000 C 
ATOM     16  C   UNL     1       0.535  10.905  19.964  0.00  0.00    +0.000 C 
ATOM     17  C   UNL     1       1.338   9.705  19.465  0.00  0.00    +0.000 C 
ENDBRANCH   6   9
BRANCH   1  18
ATOM     18  O   UNL     1       6.092   4.444  17.513  0.00  0.00    +0.000 OA
BRANCH  18  20
ATOM     19  C   UNL     1       5.153   5.714  15.631  0.00  0.00    +0.000 C 
ATOM     20  C   UNL     1       6.427   5.202  16.317  0.00  0.00    +0.000 C 
ATOM     21  C   UNL     1       7.328   4.400  15.362  0.00  0.00    +0.000 C 
ATOM     22  C   UNL     1       7.232   6.427  16.787  0.00  0.00    +0.000 C 
ENDBRANCH  18  20
ENDBRANCH   1  18
TORSDOF 3
ENDMDL
MODEL 8
REMARK VINA RESULT:      -6.2      3.862      8.275
REMARK  Name = 
REMARK  6 active torsions:
REMARK  status: ('A' for Active; 'I' for Inactive)
REMARK    1  A    between atoms: C_1  and  C_2
REMARK    2  A    between atoms: C_2  and  C_3
REMARK    3  A    between atoms: C_2  and  C_4
REMARK    4  A    between atoms: C_2  and  O_5
REMARK    5  A    between atoms: O_5  and  C_6
REMARK    6  A    between atoms: C_11  and  C_12
REMARK                            x       y       z     vdW  Elec       q    Type
REMARK                         _______ _______ _______ _____ _____    ______ ____
ROOT
ATOM      1  C   UNL     1       0.691   9.405  19.383  0.00  0.00    +0.000 C 
ATOM      2  O   UNL     1       0.568  10.078  18.364  0.00  0.00    +0.000 OA
ATOM      3  N   UNL     1       1.619   8.394  19.489  0.00  0.00    +0.000 N 
ATOM      4  C   UNL     1       2.551   8.188  18.391  0.00  0.00    +0.000 C 
ATOM      5  C   UNL     1       2.315   6.825  17.754  0.00  0.00    +0.000 C 
ATOM      6  C   UNL     1       2.353   5.681  18.779  0.00  0.00    +0.000 C 
ATOM      7  C   UNL     1       1.445   5.995  19.985  0.00  0.00    +0.000 C 
ATOM      8  C   UNL     1       1.677   7.403  20.555  0.00  0.00    +0.000 C 
ENDROOT
BRANCH   6   9
ATOM      9  C   UNL     1       3.784   5.364  19.246  0.00  0.00    +0.000 C 
ATOM     10  O   UNL     1       4.018   5.120  20.433  0.00  0.00    +0.000 OA
ATOM     11  N   UNL     1       4.787   5.269  18.281  0.00  0.00    +0.000 N 
ATOM     12  C   UNL     1       6.047   4.631  18.673  0.00  0.00    +0.000 C 
ATOM     13  C   UNL     1       7.071   5.627  19.212  0.00  0.00    +0.000 C 
ATOM     14  C   UNL     1       7.762   6.456  18.131  0.00  0.00    +0.000 C 
ATOM     15  C   UNL     1       6.817   7.241  17.225  0.00  0.00    +0.000 C 
ATOM     16  C   UNL     1       5.990   6.337  16.311  0.00  0.00    +0.000 C 
ATOM     17  C   UNL     1       4.686   5.853  16.946  0.00  0.00    +0.000 C 
ENDBRANCH   6   9
BRANCH   1  18
ATOM     18  O   UNL     1      -0.061   9.592  20.507  0.00  0.00    +0.000 OA
BRANCH  18  20
ATOM     19  C   UNL     1      -1.387  11.657  20.404  0.00  0.00    +0.000 C 
ATOM     20  C   UNL     1      -0.188  10.940  21.039  0.00  0.00    +0.000 C 
ATOM     21  C   UNL     1       1.119  11.739  20.896  0.00  0.00    +0.000 C 
ATOM     22  C   UNL     1      -0.473  10.791  22.544  0.00  0.00    +0.000 C 
ENDBRANCH  18  20
ENDBRANCH   1  18
TORSDOF 3
ENDMDL
MODEL 9
REMARK VINA RESULT:      -6.1      6.143      8.439
REMARK  Name = 
REMARK  6 active torsions:
REMARK  status: ('A' for Active; 'I' for Inactive)
REMARK    1  A    between atoms: C_1  and  C_2
REMARK    2  A    between atoms: C_2  and  C_3
REMARK    3  A    between atoms: C_2  and  C_4
REMARK    4  A    between atoms: C_2  and  O_5
REMARK    5  A    between atoms: O_5  and  C_6
REMARK    6  A    between atoms: C_11  and  C_12
REMARK                            x       y       z     vdW  Elec       q    Type
REMARK                         _______ _______ _______ _____ _____    ______ ____
ROOT
ATOM      1  C   UNL     1       2.240   6.843  19.190  0.00  0.00    +0.000 C 
ATOM      2  O   UNL     1       2.120   6.028  20.100  0.00  0.00    +0.000 OA
ATOM      3  N   UNL     1       1.907   8.170  19.343  0.00  0.00    +0.000 N 
ATOM      4  C   UNL     1       1.498   8.637  20.659  0.00  0.00    +0.000 C 
ATOM      5  C   UNL     1       0.047   9.101  20.620  0.00  0.00    +0.000 C 
ATOM      6  C   UNL     1      -0.209  10.142  19.520  0.00  0.00    +0.000 C 
ATOM      7  C   UNL     1       0.349   9.660  18.167  0.00  0.00    +0.000 C 
ATOM      8  C   UNL     1       1.793   9.146  18.267  0.00  0.00    +0.000 C 
ENDROOT
BRANCH   6   9
ATOM      9  C   UNL     1       0.363  11.524  19.882  0.00  0.00    +0.000 C 
ATOM     10  O   UNL     1       1.553  11.782  19.684  0.00  0.00    +0.000 OA
ATOM     11  N   UNL     1      -0.517  12.502  20.348  0.00  0.00    +0.000 N 
ATOM     12  C   UNL     1      -0.048  13.890  20.353  0.00  0.00    +0.000 C 
ATOM     13  C   UNL     1       0.618  14.284  21.668  0.00  0.00    +0.000 C 
ATOM     14  C   UNL     1      -0.363  14.553  22.807  0.00  0.00    +0.000 C 
ATOM     15  C   UNL     1      -1.311  13.398  23.121  0.00  0.00    +0.000 C 
ATOM     16  C   UNL     1      -2.330  13.153  22.008  0.00  0.00    +0.000 C 
ATOM     17  C   UNL     1      -1.829  12.206  20.918  0.00  0.00    +0.000 C 
ENDBRANCH   6   9
BRANCH   1  18
ATOM     18  O   UNL     1       2.718   6.527  17.951  0.00  0.00    +0.000 OA
BRANCH  18  20
ATOM     19  C   UNL     1       4.630   5.676  19.237  0.00  0.00    +0.000 C 
ATOM     20  C   UNL     1       3.961   5.777  17.860  0.00  0.00    +0.000 C 
ATOM     21  C   UNL     1       4.903   6.355  16.790  0.00  0.00    +0.000 C 
ATOM     22  C   UNL     1       3.581   4.353  17.416  0.00  0.00    +0.000 C 
ENDBRANCH  18  20
ENDBRANCH   1  18
TORSDOF 3
ENDMDL
