MODEL 1
REMARK VINA RESULT:      -7.5      0.000      0.000
REMARK  Name = 
REMARK  6 active torsions:
REMARK  status: ('A' for Active; 'I' for Inactive)
REMARK    1  A    between atoms: C_1  and  C_2
REMARK    2  A    between atoms: C_2  and  C_3
REMARK    3  A    between atoms: C_2  and  N_13
REMARK    4  A    between atoms: N_13  and  C_14
REMARK    5  A    between atoms: C_15  and  C_17
REMARK    6  A    between atoms: N_19  and  C_20
REMARK                            x       y       z     vdW  Elec       q    Type
REMARK                         _______ _______ _______ _____ _____    ______ ____
ROOT
ATOM      1  C   UNL     1       7.681   6.348  18.111  0.00  0.00    +0.000 C 
ATOM      2  C   UNL     1       6.262   6.326  17.531  0.00  0.00    +0.000 C 
ENDROOT
BRANCH   2   3
ATOM      3  C   UNL     1       6.247   5.661  16.178  0.00  0.00    +0.000 A 
ATOM      4  N   UNL     1       5.344   4.835  15.687  0.00  0.00    +0.000 NA
ATOM      5  C   UNL     1       5.824   4.447  14.459  0.00  0.00    +0.000 A 
ATOM      6  C   UNL     1       5.269   3.560  13.527  0.00  0.00    +0.000 A 
ATOM      7  C   UNL     1       5.977   3.321  12.346  0.00  0.00    +0.000 A 
ATOM      8 CL   UNL     1       5.323   2.233  11.179  0.00  0.00    +0.000 Cl
ATOM      9  C   UNL     1       7.203   3.941  12.091  0.00  0.00    +0.000 A 
ATOM     10  C   UNL     1       7.764   4.835  13.010  0.00  0.00    +0.000 A 
ATOM     11  C   UNL     1       7.039   5.060  14.182  0.00  0.00    +0.000 A 
ATOM     12  N   UNL     1       7.274   5.851  15.278  0.00  0.00    +0.000 N 
ATOM     13  H   UNL     1       8.048   6.488  15.416  0.00  0.00    +0.000 HD
ENDBRANCH   2   3
BRANCH   2  14
ATOM     14  N   UNL     1       5.240   5.715  18.393  0.00  0.00    +0.000 N 
ATOM     15  C   UNL     1       5.542   4.471  19.094  0.00  0.00    +0.000 C 
ATOM     16  C   UNL     1       3.923   6.197  18.286  0.00  0.00    +0.000 C 
ATOM     17  O   UNL     1       3.634   7.094  17.488  0.00  0.00    +0.000 OA
BRANCH  16  18
ATOM     18  C   UNL     1       2.871   5.568  19.113  0.00  0.00    +0.000 A 
ATOM     19  C   UNL     1       2.183   4.409  18.792  0.00  0.00    +0.000 A 
ATOM     20  N   UNL     1       1.368   4.160  19.859  0.00  0.00    +0.000 N 
ATOM     21  C   UNL     1       0.522   3.011  20.051  0.00  0.00    +0.000 C 
ATOM     22  C   UNL     1       1.521   5.179  20.750  0.00  0.00    +0.000 A 
ATOM     23  N   UNL     1       2.415   6.045  20.334  0.00  0.00    +0.000 NA
ENDBRANCH  16  18
ENDBRANCH   2  14
TORSDOF 3
ENDMDL
MODEL 2
REMARK VINA RESULT:      -7.3      3.052      6.949
REMARK  Name = 
REMARK  6 active torsions:
REMARK  status: ('A' for Active; 'I' for Inactive)
REMARK    1  A    between atoms: C_1  and  C_2
REMARK    2  A    between atoms: C_2  and  C_3
REMARK    3  A    between atoms: C_2  and  N_13
REMARK    4  A    between atoms: N_13  and  C_14
REMARK    5  A    between atoms: C_15  and  C_17
REMARK    6  A    between atoms: N_19  and  C_20
REMARK                            x       y       z     vdW  Elec       q    Type
REMARK                         _______ _______ _______ _____ _____    ______ ____
ROOT
ATOM      1  C   UNL     1       7.037   7.525  17.953  0.00  0.00    +0.000 C 
ATOM      2  C   UNL     1       6.696   6.065  17.636  0.00  0.00    +0.000 C 
ENDROOT
BRANCH   2   3
ATOM      3  C   UNL     1       5.541   5.590  18.481  0.00  0.00    +0.000 A 
ATOM      4  N   UNL     1       5.365   4.401  19.024  0.00  0.00    +0.000 NA
ATOM      5  C   UNL     1       4.129   4.445  19.623  0.00  0.00    +0.000 A 
ATOM      6  C   UNL     1       3.443   3.444  20.322  0.00  0.00    +0.000 A 
ATOM      7  C   UNL     1       2.173   3.745  20.824  0.00  0.00    +0.000 A 
ATOM      8 CL   UNL     1       1.301   2.534  21.687  0.00  0.00    +0.000 Cl
ATOM      9  C   UNL     1       1.595   5.003  20.641  0.00  0.00    +0.000 A 
ATOM     10  C   UNL     1       2.274   6.016  19.951  0.00  0.00    +0.000 A 
ATOM     11  C   UNL     1       3.540   5.693  19.460  0.00  0.00    +0.000 A 
ATOM     12  N   UNL     1       4.470   6.413  18.755  0.00  0.00    +0.000 N 
ATOM     13  H   UNL     1       4.414   7.389  18.489  0.00  0.00    +0.000 HD
ENDBRANCH   2   3
BRANCH   2  14
ATOM     14  N   UNL     1       6.424   5.776  16.220  0.00  0.00    +0.000 N 
ATOM     15  C   UNL     1       5.274   6.395  15.569  0.00  0.00    +0.000 C 
ATOM     16  C   UNL     1       7.112   4.701  15.630  0.00  0.00    +0.000 C 
ATOM     17  O   UNL     1       7.908   4.017  16.282  0.00  0.00    +0.000 OA
BRANCH  16  18
ATOM     18  C   UNL     1       6.823   4.366  14.220  0.00  0.00    +0.000 A 
ATOM     19  C   UNL     1       5.797   3.543  13.783  0.00  0.00    +0.000 A 
ATOM     20  N   UNL     1       5.859   3.571  12.420  0.00  0.00    +0.000 N 
ATOM     21  C   UNL     1       4.941   2.953  11.499  0.00  0.00    +0.000 C 
ATOM     22  C   UNL     1       6.932   4.333  12.065  0.00  0.00    +0.000 A 
ATOM     23  N   UNL     1       7.536   4.825  13.121  0.00  0.00    +0.000 NA
ENDBRANCH  16  18
ENDBRANCH   2  14
TORSDOF 3
ENDMDL
MODEL 3
REMARK VINA RESULT:      -7.1      3.203      6.957
REMARK  Name = 
REMARK  6 active torsions:
REMARK  status: ('A' for Active; 'I' for Inactive)
REMARK    1  A    between atoms: C_1  and  C_2
REMARK    2  A    between atoms: C_2  and  C_3
REMARK    3  A    between atoms: C_2  and  N_13
REMARK    4  A    between atoms: N_13  and  C_14
REMARK    5  A    between atoms: C_15  and  C_17
REMARK    6  A    between atoms: N_19  and  C_20
REMARK                            x       y       z     vdW  Elec       q    Type
REMARK                         _______ _______ _______ _____ _____    ______ ____
ROOT
ATOM      1  C   UNL     1       6.327   7.605  17.960  0.00  0.00    +0.000 C 
ATOM      2  C   UNL     1       6.464   6.126  17.582  0.00  0.00    +0.000 C 
ENDROOT
BRANCH   2   3
ATOM      3  C   UNL     1       5.502   5.280  18.377  0.00  0.00    +0.000 A 
ATOM      4  N   UNL     1       4.355   5.641  18.919  0.00  0.00    +0.000 NA
ATOM      5  C   UNL     1       3.902   4.538  19.600  0.00  0.00    +0.000 A 
ATOM      6  C   UNL     1       2.742   4.382  20.370  0.00  0.00    +0.000 A 
ATOM      7  C   UNL     1       2.519   3.144  20.981  0.00  0.00    +0.000 A 
ATOM      8 CL   UNL     1       1.103   2.920  21.938  0.00  0.00    +0.000 Cl
ATOM      9  C   UNL     1       3.419   2.086  20.835  0.00  0.00    +0.000 A 
ATOM     10  C   UNL     1       4.578   2.226  20.060  0.00  0.00    +0.000 A 
ATOM     11  C   UNL     1       4.779   3.469  19.460  0.00  0.00    +0.000 A 
ATOM     12  N   UNL     1       5.775   3.957  18.653  0.00  0.00    +0.000 N 
ATOM     13  H   UNL     1       6.572   3.448  18.291  0.00  0.00    +0.000 HD
ENDBRANCH   2   3
BRANCH   2  14
ATOM     14  N   UNL     1       6.317   5.828  16.150  0.00  0.00    +0.000 N 
ATOM     15  C   UNL     1       5.178   6.368  15.416  0.00  0.00    +0.000 C 
ATOM     16  C   UNL     1       7.122   4.807  15.611  0.00  0.00    +0.000 C 
ATOM     17  O   UNL     1       7.914   4.177  16.319  0.00  0.00    +0.000 OA
BRANCH  16  18
ATOM     18  C   UNL     1       6.962   4.461  14.183  0.00  0.00    +0.000 A 
ATOM     19  C   UNL     1       6.147   3.456  13.686  0.00  0.00    +0.000 A 
ATOM     20  N   UNL     1       6.253   3.537  12.327  0.00  0.00    +0.000 N 
ATOM     21  C   UNL     1       5.519   2.769  11.356  0.00  0.00    +0.000 C 
ATOM     22  C   UNL     1       7.154   4.516  12.034  0.00  0.00    +0.000 A 
ATOM     23  N   UNL     1       7.603   5.091  13.125  0.00  0.00    +0.000 NA
ENDBRANCH  16  18
ENDBRANCH   2  14
TORSDOF 3
ENDMDL
MODEL 4
REMARK VINA RESULT:      -6.9      0.898      1.097
REMARK  Name = 
REMARK  6 active torsions:
REMARK  status: ('A' for Active; 'I' for Inactive)
REMARK    1  A    between atoms: C_1  and  C_2
REMARK    2  A    between atoms: C_2  and  C_3
REMARK    3  A    between atoms: C_2  and  N_13
REMARK    4  A    between atoms: N_13  and  C_14
REMARK    5  A    between atoms: C_15  and  C_17
REMARK    6  A    between atoms: N_19  and  C_20
REMARK                            x       y       z     vdW  Elec       q    Type
REMARK                         _______ _______ _______ _____ _____    ______ ____
ROOT
ATOM      1  C   UNL     1       7.235   6.213  18.287  0.00  0.00    +0.000 C 
ATOM      2  C   UNL     1       5.863   5.973  17.647  0.00  0.00    +0.000 C 
ENDROOT
BRANCH   2   3
ATOM      3  C   UNL     1       6.011   5.423  16.252  0.00  0.00    +0.000 A 
ATOM      4  N   UNL     1       5.266   4.515  15.651  0.00  0.00    +0.000 NA
ATOM      5  C   UNL     1       5.856   4.300  14.429  0.00  0.00    +0.000 A 
ATOM      6  C   UNL     1       5.485   3.418  13.405  0.00  0.00    +0.000 A 
ATOM      7  C   UNL     1       6.276   3.379  12.253  0.00  0.00    +0.000 A 
ATOM      8 CL   UNL     1       5.849   2.304  10.975  0.00  0.00    +0.000 Cl
ATOM      9  C   UNL     1       7.406   4.190  12.114  0.00  0.00    +0.000 A 
ATOM     10  C   UNL     1       7.782   5.081  13.127  0.00  0.00    +0.000 A 
ATOM     11  C   UNL     1       6.978   5.104  14.267  0.00  0.00    +0.000 A 
ATOM     12  N   UNL     1       7.039   5.831  15.429  0.00  0.00    +0.000 N 
ATOM     13  H   UNL     1       7.702   6.562  15.657  0.00  0.00    +0.000 HD
ENDBRANCH   2   3
BRANCH   2  14
ATOM     14  N   UNL     1       4.950   5.119  18.420  0.00  0.00    +0.000 N 
ATOM     15  C   UNL     1       5.421   3.832  18.921  0.00  0.00    +0.000 C 
ATOM     16  C   UNL     1       3.581   5.445  18.405  0.00  0.00    +0.000 C 
ATOM     17  O   UNL     1       3.161   6.408  17.756  0.00  0.00    +0.000 OA
BRANCH  16  18
ATOM     18  C   UNL     1       2.639   4.576  19.141  0.00  0.00    +0.000 A 
ATOM     19  C   UNL     1       2.822   4.104  20.431  0.00  0.00    +0.000 A 
ATOM     20  N   UNL     1       1.687   3.407  20.730  0.00  0.00    +0.000 N 
ATOM     21  C   UNL     1       1.350   2.805  21.994  0.00  0.00    +0.000 C 
ATOM     22  C   UNL     1       0.889   3.410  19.626  0.00  0.00    +0.000 A 
ATOM     23  N   UNL     1       1.431   4.101  18.650  0.00  0.00    +0.000 NA
ENDBRANCH  16  18
ENDBRANCH   2  14
TORSDOF 3
ENDMDL
MODEL 5
REMARK VINA RESULT:      -6.7      0.684      1.389
REMARK  Name = 
REMARK  6 active torsions:
REMARK  status: ('A' for Active; 'I' for Inactive)
REMARK    1  A    between atoms: C_1  and  C_2
REMARK    2  A    between atoms: C_2  and  C_3
REMARK    3  A    between atoms: C_2  and  N_13
REMARK    4  A    between atoms: N_13  and  C_14
REMARK    5  A    between atoms: C_15  and  C_17
REMARK    6  A    between atoms: N_19  and  C_20
REMARK                            x       y       z     vdW  Elec       q    Type
REMARK                         _______ _______ _______ _____ _____    ______ ____
ROOT
ATOM      1  C   UNL     1       7.580   6.938  17.694  0.00  0.00    +0.000 C 
ATOM      2  C   UNL     1       6.185   6.615  17.148  0.00  0.00    +0.000 C 
ENDROOT
BRANCH   2   3
ATOM      3  C   UNL     1       6.279   5.737  15.926  0.00  0.00    +0.000 A 
ATOM      4  N   UNL     1       7.342   5.481  15.187  0.00  0.00    +0.000 NA
ATOM      5  C   UNL     1       6.894   4.698  14.151  0.00  0.00    +0.000 A 
ATOM      6  C   UNL     1       7.605   4.164  13.068  0.00  0.00    +0.000 A 
ATOM      7  C   UNL     1       6.900   3.405  12.129  0.00  0.00    +0.000 A 
ATOM      8 CL   UNL     1       7.744   2.736  10.783  0.00  0.00    +0.000 Cl
ATOM      9  C   UNL     1       5.528   3.178  12.256  0.00  0.00    +0.000 A 
ATOM     10  C   UNL     1       4.807   3.698  13.339  0.00  0.00    +0.000 A 
ATOM     11  C   UNL     1       5.532   4.452  14.263  0.00  0.00    +0.000 A 
ATOM     12  N   UNL     1       5.168   5.099  15.417  0.00  0.00    +0.000 N 
ATOM     13  H   UNL     1       4.254   5.105  15.851  0.00  0.00    +0.000 HD
ENDBRANCH   2   3
BRANCH   2  14
ATOM     14  N   UNL     1       5.254   6.015  18.115  0.00  0.00    +0.000 N 
ATOM     15  C   UNL     1       5.683   4.868  18.908  0.00  0.00    +0.000 C 
ATOM     16  C   UNL     1       3.900   6.391  18.037  0.00  0.00    +0.000 C 
ATOM     17  O   UNL     1       3.507   7.187  17.178  0.00  0.00    +0.000 OA
BRANCH  16  18
ATOM     18  C   UNL     1       2.940   5.769  18.972  0.00  0.00    +0.000 A 
ATOM     19  C   UNL     1       2.358   4.521  18.816  0.00  0.00    +0.000 A 
ATOM     20  N   UNL     1       1.603   4.325  19.936  0.00  0.00    +0.000 N 
ATOM     21  C   UNL     1       0.879   3.133  20.293  0.00  0.00    +0.000 C 
ATOM     22  C   UNL     1       1.683   5.452  20.698  0.00  0.00    +0.000 A 
ATOM     23  N   UNL     1       2.476   6.342  20.148  0.00  0.00    +0.000 NA
ENDBRANCH  16  18
ENDBRANCH   2  14
TORSDOF 3
ENDMDL
MODEL 6
REMARK VINA RESULT:      -6.6      3.789      5.473
REMARK  Name = 
REMARK  6 active torsions:
REMARK  status: ('A' for Active; 'I' for Inactive)
REMARK    1  A    between atoms: C_1  and  C_2
REMARK    2  A    between atoms: C_2  and  C_3
REMARK    3  A    between atoms: C_2  and  N_13
REMARK    4  A    between atoms: N_13  and  C_14
REMARK    5  A    between atoms: C_15  and  C_17
REMARK    6  A    between atoms: N_19  and  C_20
REMARK                            x       y       z     vdW  Elec       q    Type
REMARK                         _______ _______ _______ _____ _____    ______ ____
ROOT
ATOM      1  C   UNL     1       7.391   5.167  15.888  0.00  0.00    +0.000 C 
ATOM      2  C   UNL     1       7.085   5.522  17.347  0.00  0.00    +0.000 C 
ENDROOT
BRANCH   2   3
ATOM      3  C   UNL     1       7.482   6.945  17.646  0.00  0.00    +0.000 A 
ATOM      4  N   UNL     1       7.181   8.035  16.966  0.00  0.00    +0.000 NA
ATOM      5  C   UNL     1       7.844   9.061  17.596  0.00  0.00    +0.000 A 
ATOM      6  C   UNL     1       7.887  10.423  17.272  0.00  0.00    +0.000 A 
ATOM      7  C   UNL     1       8.661  11.266  18.076  0.00  0.00    +0.000 A 
ATOM      8 CL   UNL     1       8.738  12.947  17.702  0.00  0.00    +0.000 Cl
ATOM      9  C   UNL     1       9.374  10.776  19.172  0.00  0.00    +0.000 A 
ATOM     10  C   UNL     1       9.332   9.418  19.512  0.00  0.00    +0.000 A 
ATOM     11  C   UNL     1       8.553   8.596  18.696  0.00  0.00    +0.000 A 
ATOM     12  N   UNL     1       8.284   7.251  18.725  0.00  0.00    +0.000 N 
ATOM     13  H   UNL     1       8.591   6.582  19.420  0.00  0.00    +0.000 HD
ENDBRANCH   2   3
BRANCH   2  14
ATOM     14  N   UNL     1       5.695   5.298  17.770  0.00  0.00    +0.000 N 
ATOM     15  C   UNL     1       4.608   5.564  16.834  0.00  0.00    +0.000 C 
ATOM     16  C   UNL     1       5.452   5.110  19.143  0.00  0.00    +0.000 C 
ATOM     17  O   UNL     1       6.375   5.142  19.964  0.00  0.00    +0.000 OA
BRANCH  16  18
ATOM     18  C   UNL     1       4.058   4.925  19.595  0.00  0.00    +0.000 A 
ATOM     19  C   UNL     1       3.430   3.704  19.785  0.00  0.00    +0.000 A 
ATOM     20  N   UNL     1       2.189   4.002  20.269  0.00  0.00    +0.000 N 
ATOM     21  C   UNL     1       1.188   3.069  20.717  0.00  0.00    +0.000 C 
ATOM     22  C   UNL     1       2.064   5.359  20.298  0.00  0.00    +0.000 A 
ATOM     23  N   UNL     1       3.168   5.946  19.898  0.00  0.00    +0.000 NA
ENDBRANCH  16  18
ENDBRANCH   2  14
TORSDOF 3
ENDMDL
MODEL 7
REMARK VINA RESULT:      -6.4      3.953      7.653
REMARK  Name = 
REMARK  6 active torsions:
REMARK  status: ('A' for Active; 'I' for Inactive)
REMARK    1  A    between atoms: C_1  and  C_2
REMARK    2  A    between atoms: C_2  and  C_3
REMARK    3  A    between atoms: C_2  and  N_13
REMARK    4  A    between atoms: N_13  and  C_14
REMARK    5  A    between atoms: C_15  and  C_17
REMARK    6  A    between atoms: N_19  and  C_20
REMARK                            x       y       z     vdW  Elec       q    Type
REMARK                         _______ _______ _______ _____ _____    ______ ____
ROOT
ATOM      1  C   UNL     1       2.675   4.350  21.011  0.00  0.00    +0.000 C 
ATOM      2  C   UNL     1       2.638   5.001  19.624  0.00  0.00    +0.000 C 
ENDROOT
BRANCH   2   3
ATOM      3  C   UNL     1       2.140   6.421  19.712  0.00  0.00    +0.000 A 
ATOM      4  N   UNL     1       2.041   7.311  18.744  0.00  0.00    +0.000 NA
ATOM      5  C   UNL     1       1.613   8.470  19.345  0.00  0.00    +0.000 A 
ATOM      6  C   UNL     1       1.368   9.728  18.780  0.00  0.00    +0.000 A 
ATOM      7  C   UNL     1       0.951  10.759  19.626  0.00  0.00    +0.000 A 
ATOM      8 CL   UNL     1       0.643  12.320  18.963  0.00  0.00    +0.000 Cl
ATOM      9  C   UNL     1       0.781  10.554  20.998  0.00  0.00    +0.000 A 
ATOM     10  C   UNL     1       1.014   9.299  21.574  0.00  0.00    +0.000 A 
ATOM     11  C   UNL     1       1.429   8.285  20.710  0.00  0.00    +0.000 A 
ATOM     12  N   UNL     1       1.742   6.965  20.915  0.00  0.00    +0.000 N 
ATOM     13  H   UNL     1       1.680   6.451  21.785  0.00  0.00    +0.000 HD
ENDBRANCH   2   3
BRANCH   2  14
ATOM     14  N   UNL     1       3.906   4.967  18.880  0.00  0.00    +0.000 N 
ATOM     15  C   UNL     1       5.044   5.740  19.366  0.00  0.00    +0.000 C 
ATOM     16  C   UNL     1       3.888   4.421  17.584  0.00  0.00    +0.000 C 
ATOM     17  O   UNL     1       2.840   3.996  17.085  0.00  0.00    +0.000 OA
BRANCH  16  18
ATOM     18  C   UNL     1       5.141   4.416  16.802  0.00  0.00    +0.000 A 
ATOM     19  C   UNL     1       5.233   4.580  15.429  0.00  0.00    +0.000 A 
ATOM     20  N   UNL     1       6.568   4.577  15.148  0.00  0.00    +0.000 N 
ATOM     21  C   UNL     1       7.183   4.815  13.867  0.00  0.00    +0.000 C 
ATOM     22  C   UNL     1       7.241   4.349  16.310  0.00  0.00    +0.000 A 
ATOM     23  N   UNL     1       6.415   4.244  17.325  0.00  0.00    +0.000 NA
ENDBRANCH  16  18
ENDBRANCH   2  14
TORSDOF 3
ENDMDL
MODEL 8
REMARK VINA RESULT:      -6.4      1.387      1.719
REMARK  Name = 
REMARK  6 active torsions:
REMARK  status: ('A' for Active; 'I' for Inactive)
REMARK    1  A    between atoms: C_1  and  C_2
REMARK    2  A    between atoms: C_2  and  C_3
REMARK    3  A    between atoms: C_2  and  N_13
REMARK    4  A    between atoms: N_13  and  C_14
REMARK    5  A    between atoms: C_15  and  C_17
REMARK    6  A    between atoms: N_19  and  C_20
REMARK                            x       y       z     vdW  Elec       q    Type
REMARK                         _______ _______ _______ _____ _____    ______ ____
ROOT
ATOM      1  C   UNL     1       7.027   5.824  18.488  0.00  0.00    +0.000 C 
ATOM      2  C   UNL     1       5.772   6.049  17.637  0.00  0.00    +0.000 C 
ENDROOT
BRANCH   2   3
ATOM      3  C   UNL     1       5.956   5.484  16.252  0.00  0.00    +0.000 A 
ATOM      4  N   UNL     1       5.200   4.603  15.625  0.00  0.00    +0.000 NA
ATOM      5  C   UNL     1       5.832   4.356  14.430  0.00  0.00    +0.000 A 
ATOM      6  C   UNL     1       5.468   3.484  13.395  0.00  0.00    +0.000 A 
ATOM      7  C   UNL     1       6.304   3.404  12.278  0.00  0.00    +0.000 A 
ATOM      8 CL   UNL     1       5.887   2.339  10.988  0.00  0.00    +0.000 Cl
ATOM      9  C   UNL     1       7.471   4.167  12.184  0.00  0.00    +0.000 A 
ATOM     10  C   UNL     1       7.841   5.049  13.206  0.00  0.00    +0.000 A 
ATOM     11  C   UNL     1       6.991   5.112  14.312  0.00  0.00    +0.000 A 
ATOM     12  N   UNL     1       7.033   5.844  15.471  0.00  0.00    +0.000 N 
ATOM     13  H   UNL     1       7.715   6.548  15.724  0.00  0.00    +0.000 HD
ENDBRANCH   2   3
BRANCH   2  14
ATOM     14  N   UNL     1       4.520   5.539  18.216  0.00  0.00    +0.000 N 
ATOM     15  C   UNL     1       3.411   6.458  18.452  0.00  0.00    +0.000 C 
ATOM     16  C   UNL     1       4.539   4.250  18.780  0.00  0.00    +0.000 C 
ATOM     17  O   UNL     1       5.575   3.576  18.797  0.00  0.00    +0.000 OA
BRANCH  16  18
ATOM     18  C   UNL     1       3.304   3.734  19.405  0.00  0.00    +0.000 A 
ATOM     19  C   UNL     1       3.187   3.302  20.717  0.00  0.00    +0.000 A 
ATOM     20  N   UNL     1       1.870   2.982  20.881  0.00  0.00    +0.000 N 
ATOM     21  C   UNL     1       1.225   2.576  22.103  0.00  0.00    +0.000 C 
ATOM     22  C   UNL     1       1.244   3.154  19.683  0.00  0.00    +0.000 A 
ATOM     23  N   UNL     1       2.076   3.603  18.772  0.00  0.00    +0.000 NA
ENDBRANCH  16  18
ENDBRANCH   2  14
TORSDOF 3
ENDMDL
MODEL 9
REMARK VINA RESULT:      -6.4      1.055      1.287
REMARK  Name = 
REMARK  6 active torsions:
REMARK  status: ('A' for Active; 'I' for Inactive)
REMARK    1  A    between atoms: C_1  and  C_2
REMARK    2  A    between atoms: C_2  and  C_3
REMARK    3  A    between atoms: C_2  and  N_13
REMARK    4  A    between atoms: N_13  and  C_14
REMARK    5  A    between atoms: C_15  and  C_17
REMARK    6  A    between atoms: N_19  and  C_20
REMARK                            x       y       z     vdW  Elec       q    Type
REMARK                         _______ _______ _______ _____ _____    ______ ____
ROOT
ATOM      1  C   UNL     1       7.362   5.859  18.231  0.00  0.00    +0.000 C 
ATOM      2  C   UNL     1       6.132   6.205  17.384  0.00  0.00    +0.000 C 
ENDROOT
BRANCH   2   3
ATOM      3  C   UNL     1       6.214   5.548  16.029  0.00  0.00    +0.000 A 
ATOM      4  N   UNL     1       5.428   4.615  15.528  0.00  0.00    +0.000 NA
ATOM      5  C   UNL     1       5.963   4.295  14.304  0.00  0.00    +0.000 A 
ATOM      6  C   UNL     1       5.534   3.348  13.365  0.00  0.00    +0.000 A 
ATOM      7  C   UNL     1       6.277   3.205  12.189  0.00  0.00    +0.000 A 
ATOM      8 CL   UNL     1       5.777   2.046  11.014  0.00  0.00    +0.000 Cl
ATOM      9  C   UNL     1       7.415   3.977  11.947  0.00  0.00    +0.000 A 
ATOM     10  C   UNL     1       7.850   4.933  12.873  0.00  0.00    +0.000 A 
ATOM     11  C   UNL     1       7.093   5.059  14.039  0.00  0.00    +0.000 A 
ATOM     12  N   UNL     1       7.215   5.870  15.138  0.00  0.00    +0.000 N 
ATOM     13  H   UNL     1       7.901   6.601  15.285  0.00  0.00    +0.000 HD
ENDBRANCH   2   3
BRANCH   2  14
ATOM     14  N   UNL     1       4.835   5.898  18.004  0.00  0.00    +0.000 N 
ATOM     15  C   UNL     1       3.768   6.892  17.967  0.00  0.00    +0.000 C 
ATOM     16  C   UNL     1       4.766   4.777  18.852  0.00  0.00    +0.000 C 
ATOM     17  O   UNL     1       5.764   4.083  19.076  0.00  0.00    +0.000 OA
BRANCH  16  18
ATOM     18  C   UNL     1       3.483   4.475  19.520  0.00  0.00    +0.000 A 
ATOM     19  C   UNL     1       2.534   3.573  19.066  0.00  0.00    +0.000 A 
ATOM     20  N   UNL     1       1.556   3.560  20.017  0.00  0.00    +0.000 N 
ATOM     21  C   UNL     1       0.396   2.707  20.054  0.00  0.00    +0.000 C 
ATOM     22  C   UNL     1       1.884   4.477  20.969  0.00  0.00    +0.000 A 
ATOM     23  N   UNL     1       3.036   5.048  20.702  0.00  0.00    +0.000 NA
ENDBRANCH  16  18
ENDBRANCH   2  14
TORSDOF 3
ENDMDL
