MODEL 1
REMARK VINA RESULT:      -7.6      0.000      0.000
REMARK  Name = 
REMARK  6 active torsions:
REMARK  status: ('A' for Active; 'I' for Inactive)
REMARK    1  A    between atoms: C_1  and  O_2
REMARK    2  A    between atoms: O_2  and  C_3
REMARK    3  A    between atoms: C_13  and  C_14
REMARK    4  A    between atoms: C_14  and  N_15
REMARK    5  A    between atoms: N_18  and  C_19
REMARK    6  A    between atoms: C_19  and  C_20
REMARK                            x       y       z     vdW  Elec       q    Type
REMARK                         _______ _______ _______ _____ _____    ______ ____
ROOT
ATOM      1  C   UNL     1       6.875   6.362  16.958  0.00  0.00    +0.000 A 
ATOM      2  C   UNL     1       6.973   5.044  16.514  0.00  0.00    +0.000 A 
ATOM      3  C   UNL     1       6.029   4.096  16.919  0.00  0.00    +0.000 A 
ATOM      4  C   UNL     1       4.980   4.472  17.762  0.00  0.00    +0.000 A 
ATOM      5  C   UNL     1       3.956   3.502  18.150  0.00  0.00    +0.000 A 
ATOM      6  O   UNL     1       4.017   2.329  17.786  0.00  0.00    +0.000 OA
ATOM      7  C   UNL     1       2.842   3.992  18.972  0.00  0.00    +0.000 A 
ATOM      8  C   UNL     1       1.777   3.138  19.278  0.00  0.00    +0.000 A 
ATOM      9  C   UNL     1       0.713   3.604  20.046  0.00  0.00    +0.000 A 
ATOM     10  C   UNL     1       0.733   4.912  20.528  0.00  0.00    +0.000 A 
ATOM     11  C   UNL     1       1.809   5.777  20.235  0.00  0.00    +0.000 A 
ATOM     12  C   UNL     1       2.863   5.314  19.422  0.00  0.00    +0.000 A 
ATOM     13  O   UNL     1       3.873   6.199  19.083  0.00  0.00    +0.000 OA
ATOM     14  C   UNL     1       4.872   5.779  18.230  0.00  0.00    +0.000 A 
ATOM     15  C   UNL     1       5.825   6.723  17.824  0.00  0.00    +0.000 A 
ENDROOT
BRANCH   1  17
ATOM     16  C   UNL     1       7.916   8.421  17.580  0.00  0.00    +0.000 C 
ATOM     17  O   UNL     1       7.738   7.374  16.628  0.00  0.00    +0.000 OA
ENDBRANCH   1  17
BRANCH  11  18
ATOM     18  C   UNL     1       1.756   7.201  20.745  0.00  0.00    +0.000 C 
BRANCH  18  19
ATOM     19  N   UNL     1       0.466   7.897  20.568  0.00  0.00    +0.000 NA
ATOM     20  C   UNL     1      -0.186   8.314  21.830  0.00  0.00    +0.000 C 
ATOM     21  C   UNL     1       0.360   9.600  22.530  0.00  0.00    +0.000 C 
ATOM     22  N   UNL     1       0.844  10.729  21.703  0.00  0.00    +0.000 NA
ATOM     23  C   UNL     1       1.501  10.199  20.485  0.00  0.00    +0.000 C 
ATOM     24  C   UNL     1       0.673   9.110  19.753  0.00  0.00    +0.000 C 
BRANCH  22  25
ATOM     25  C   UNL     1      -0.134  11.736  21.264  0.00  0.00    +0.000 C 
BRANCH  25  26
ATOM     26  C   UNL     1      -1.051  12.399  22.266  0.00  0.00    +0.000 A 
ATOM     27  C   UNL     1      -0.627  13.495  23.037  0.00  0.00    +0.000 A 
ATOM     28  C   UNL     1      -1.549  14.240  23.781  0.00  0.00    +0.000 A 
ATOM     29  C   UNL     1      -2.901  13.899  23.763  0.00  0.00    +0.000 A 
ATOM     30  C   UNL     1      -3.329  12.805  23.015  0.00  0.00    +0.000 A 
ATOM     31  C   UNL     1      -2.409  12.056  22.280  0.00  0.00    +0.000 A 
ENDBRANCH  25  26
ENDBRANCH  22  25
ENDBRANCH  18  19
ENDBRANCH  11  18
TORSDOF 5
ENDMDL
MODEL 2
REMARK VINA RESULT:      -7.4      1.385      2.065
REMARK  Name = 
REMARK  6 active torsions:
REMARK  status: ('A' for Active; 'I' for Inactive)
REMARK    1  A    between atoms: C_1  and  O_2
REMARK    2  A    between atoms: O_2  and  C_3
REMARK    3  A    between atoms: C_13  and  C_14
REMARK    4  A    between atoms: C_14  and  N_15
REMARK    5  A    between atoms: N_18  and  C_19
REMARK    6  A    between atoms: C_19  and  C_20
REMARK                            x       y       z     vdW  Elec       q    Type
REMARK                         _______ _______ _______ _____ _____    ______ ____
ROOT
ATOM      1  C   UNL     1       6.933   6.308  16.985  0.00  0.00    +0.000 A 
ATOM      2  C   UNL     1       7.017   4.996  16.518  0.00  0.00    +0.000 A 
ATOM      3  C   UNL     1       6.059   4.054  16.903  0.00  0.00    +0.000 A 
ATOM      4  C   UNL     1       5.010   4.428  17.746  0.00  0.00    +0.000 A 
ATOM      5  C   UNL     1       3.972   3.465  18.112  0.00  0.00    +0.000 A 
ATOM      6  O   UNL     1       4.021   2.298  17.727  0.00  0.00    +0.000 OA
ATOM      7  C   UNL     1       2.860   3.955  18.936  0.00  0.00    +0.000 A 
ATOM      8  C   UNL     1       1.782   3.108  19.222  0.00  0.00    +0.000 A 
ATOM      9  C   UNL     1       0.720   3.575  19.993  0.00  0.00    +0.000 A 
ATOM     10  C   UNL     1       0.754   4.874  20.497  0.00  0.00    +0.000 A 
ATOM     11  C   UNL     1       1.842   5.730  20.225  0.00  0.00    +0.000 A 
ATOM     12  C   UNL     1       2.895   5.268  19.409  0.00  0.00    +0.000 A 
ATOM     13  O   UNL     1       3.918   6.146  19.092  0.00  0.00    +0.000 OA
ATOM     14  C   UNL     1       4.916   5.728  18.236  0.00  0.00    +0.000 A 
ATOM     15  C   UNL     1       5.883   6.667  17.851  0.00  0.00    +0.000 A 
ENDROOT
BRANCH   1  17
ATOM     16  C   UNL     1       7.849   8.442  17.551  0.00  0.00    +0.000 C 
ATOM     17  O   UNL     1       7.811   7.314  16.677  0.00  0.00    +0.000 OA
ENDBRANCH   1  17
BRANCH  11  18
ATOM     18  C   UNL     1       1.805   7.146  20.760  0.00  0.00    +0.000 C 
BRANCH  18  19
ATOM     19  N   UNL     1       0.510   7.845  20.630  0.00  0.00    +0.000 NA
ATOM     20  C   UNL     1      -0.144   8.172  21.917  0.00  0.00    +0.000 C 
ATOM     21  C   UNL     1       0.396   9.410  22.703  0.00  0.00    +0.000 C 
ATOM     22  N   UNL     1       0.873  10.595  21.954  0.00  0.00    +0.000 NA
ATOM     23  C   UNL     1       1.533  10.153  20.703  0.00  0.00    +0.000 C 
ATOM     24  C   UNL     1       0.711   9.111  19.899  0.00  0.00    +0.000 C 
BRANCH  22  25
ATOM     25  C   UNL     1      -0.110  11.624  21.584  0.00  0.00    +0.000 C 
BRANCH  25  26
ATOM     26  C   UNL     1       0.273  12.746  20.646  0.00  0.00    +0.000 A 
ATOM     27  C   UNL     1      -0.357  12.909  19.399  0.00  0.00    +0.000 A 
ATOM     28  C   UNL     1      -0.161  14.075  18.651  0.00  0.00    +0.000 A 
ATOM     29  C   UNL     1       0.663  15.089  19.138  0.00  0.00    +0.000 A 
ATOM     30  C   UNL     1       1.304  14.932  20.364  0.00  0.00    +0.000 A 
ATOM     31  C   UNL     1       1.117  13.765  21.107  0.00  0.00    +0.000 A 
ENDBRANCH  25  26
ENDBRANCH  22  25
ENDBRANCH  18  19
ENDBRANCH  11  18
TORSDOF 5
ENDMDL
MODEL 3
REMARK VINA RESULT:      -7.4      2.667      3.226
REMARK  Name = 
REMARK  6 active torsions:
REMARK  status: ('A' for Active; 'I' for Inactive)
REMARK    1  A    between atoms: C_1  and  O_2
REMARK    2  A    between atoms: O_2  and  C_3
REMARK    3  A    between atoms: C_13  and  C_14
REMARK    4  A    between atoms: C_14  and  N_15
REMARK    5  A    between atoms: N_18  and  C_19
REMARK    6  A    between atoms: C_19  and  C_20
REMARK                            x       y       z     vdW  Elec       q    Type
REMARK                         _______ _______ _______ _____ _____    ______ ____
ROOT
ATOM      1  C   UNL     1       6.089   5.091  15.025  0.00  0.00    +0.000 A 
ATOM      2  C   UNL     1       6.111   3.715  15.259  0.00  0.00    +0.000 A 
ATOM      3  C   UNL     1       5.385   3.175  16.324  0.00  0.00    +0.000 A 
ATOM      4  C   UNL     1       4.628   4.010  17.149  0.00  0.00    +0.000 A 
ATOM      5  C   UNL     1       3.822   3.450  18.234  0.00  0.00    +0.000 A 
ATOM      6  O   UNL     1       3.827   2.244  18.475  0.00  0.00    +0.000 OA
ATOM      7  C   UNL     1       2.992   4.383  19.006  0.00  0.00    +0.000 A 
ATOM      8  C   UNL     1       2.115   3.889  19.980  0.00  0.00    +0.000 A 
ATOM      9  C   UNL     1       1.317   4.771  20.704  0.00  0.00    +0.000 A 
ATOM     10  C   UNL     1       1.418   6.142  20.471  0.00  0.00    +0.000 A 
ATOM     11  C   UNL     1       2.308   6.649  19.501  0.00  0.00    +0.000 A 
ATOM     12  C   UNL     1       3.083   5.750  18.740  0.00  0.00    +0.000 A 
ATOM     13  O   UNL     1       3.896   6.261  17.741  0.00  0.00    +0.000 OA
ATOM     14  C   UNL     1       4.604   5.387  16.943  0.00  0.00    +0.000 A 
ATOM     15  C   UNL     1       5.338   5.924  15.877  0.00  0.00    +0.000 A 
ENDROOT
BRANCH   1  17
ATOM     16  C   UNL     1       7.557   4.930  13.147  0.00  0.00    +0.000 C 
ATOM     17  O   UNL     1       6.757   5.731  14.016  0.00  0.00    +0.000 OA
ENDBRANCH   1  17
BRANCH  11  18
ATOM     18  C   UNL     1       2.344   8.143  19.257  0.00  0.00    +0.000 C 
BRANCH  18  19
ATOM     19  N   UNL     1       1.029   8.797  19.100  0.00  0.00    +0.000 NA
ATOM     20  C   UNL     1       0.561   9.532  20.297  0.00  0.00    +0.000 C 
ATOM     21  C   UNL     1       1.181  10.941  20.563  0.00  0.00    +0.000 C 
ATOM     22  N   UNL     1       1.518  11.815  19.416  0.00  0.00    +0.000 NA
ATOM     23  C   UNL     1       2.001  10.983  18.289  0.00  0.00    +0.000 C 
ATOM     24  C   UNL     1       1.094   9.761  17.985  0.00  0.00    +0.000 C 
BRANCH  22  25
ATOM     25  C   UNL     1       0.470  12.699  18.885  0.00  0.00    +0.000 C 
BRANCH  25  26
ATOM     26  C   UNL     1       0.671  14.197  18.864  0.00  0.00    +0.000 A 
ATOM     27  C   UNL     1       1.944  14.765  18.685  0.00  0.00    +0.000 A 
ATOM     28  C   UNL     1       2.082  16.135  18.434  0.00  0.00    +0.000 A 
ATOM     29  C   UNL     1       0.953  16.950  18.359  0.00  0.00    +0.000 A 
ATOM     30  C   UNL     1      -0.312  16.400  18.551  0.00  0.00    +0.000 A 
ATOM     31  C   UNL     1      -0.450  15.036  18.811  0.00  0.00    +0.000 A 
ENDBRANCH  25  26
ENDBRANCH  22  25
ENDBRANCH  18  19
ENDBRANCH  11  18
TORSDOF 5
ENDMDL
MODEL 4
REMARK VINA RESULT:      -7.3      4.065      9.793
REMARK  Name = 
REMARK  6 active torsions:
REMARK  status: ('A' for Active; 'I' for Inactive)
REMARK    1  A    between atoms: C_1  and  O_2
REMARK    2  A    between atoms: O_2  and  C_3
REMARK    3  A    between atoms: C_13  and  C_14
REMARK    4  A    between atoms: C_14  and  N_15
REMARK    5  A    between atoms: N_18  and  C_19
REMARK    6  A    between atoms: C_19  and  C_20
REMARK                            x       y       z     vdW  Elec       q    Type
REMARK                         _______ _______ _______ _____ _____    ______ ____
ROOT
ATOM      1  C   UNL     1      -4.102  11.455  16.660  0.00  0.00    +0.000 A 
ATOM      2  C   UNL     1      -5.343  11.981  17.019  0.00  0.00    +0.000 A 
ATOM      3  C   UNL     1      -5.566  12.417  18.329  0.00  0.00    +0.000 A 
ATOM      4  C   UNL     1      -4.542  12.334  19.276  0.00  0.00    +0.000 A 
ATOM      5  C   UNL     1      -4.747  12.835  20.635  0.00  0.00    +0.000 A 
ATOM      6  O   UNL     1      -5.831  13.296  20.989  0.00  0.00    +0.000 OA
ATOM      7  C   UNL     1      -3.599  12.787  21.549  0.00  0.00    +0.000 A 
ATOM      8  C   UNL     1      -3.703  13.356  22.825  0.00  0.00    +0.000 A 
ATOM      9  C   UNL     1      -2.612  13.323  23.689  0.00  0.00    +0.000 A 
ATOM     10  C   UNL     1      -1.432  12.698  23.286  0.00  0.00    +0.000 A 
ATOM     11  C   UNL     1      -1.323  12.111  22.008  0.00  0.00    +0.000 A 
ATOM     12  C   UNL     1      -2.415  12.184  21.120  0.00  0.00    +0.000 A 
ATOM     13  O   UNL     1      -2.265  11.668  19.843  0.00  0.00    +0.000 OA
ATOM     14  C   UNL     1      -3.301  11.798  18.943  0.00  0.00    +0.000 A 
ATOM     15  C   UNL     1      -3.086  11.358  17.630  0.00  0.00    +0.000 A 
ENDROOT
BRANCH   1  17
ATOM     16  C   UNL     1      -2.889   9.878  15.336  0.00  0.00    +0.000 C 
ATOM     17  O   UNL     1      -3.768  10.999  15.412  0.00  0.00    +0.000 OA
ENDBRANCH   1  17
BRANCH  11  18
ATOM     18  C   UNL     1      -0.004  11.486  21.605  0.00  0.00    +0.000 C 
BRANCH  18  19
ATOM     19  N   UNL     1       0.447  10.353  22.438  0.00  0.00    +0.000 NA
ATOM     20  C   UNL     1      -0.500   9.217  22.497  0.00  0.00    +0.000 C 
ATOM     21  C   UNL     1      -0.536   8.246  21.274  0.00  0.00    +0.000 C 
ATOM     22  N   UNL     1       0.720   7.943  20.549  0.00  0.00    +0.000 NA
ATOM     23  C   UNL     1       1.578   9.151  20.526  0.00  0.00    +0.000 C 
ATOM     24  C   UNL     1       1.725   9.838  21.909  0.00  0.00    +0.000 C 
BRANCH  22  25
ATOM     25  C   UNL     1       1.551   6.831  21.036  0.00  0.00    +0.000 C 
BRANCH  25  26
ATOM     26  C   UNL     1       1.705   5.574  20.211  0.00  0.00    +0.000 A 
ATOM     27  C   UNL     1       1.126   4.357  20.611  0.00  0.00    +0.000 A 
ATOM     28  C   UNL     1       1.077   3.270  19.730  0.00  0.00    +0.000 A 
ATOM     29  C   UNL     1       1.604   3.387  18.445  0.00  0.00    +0.000 A 
ATOM     30  C   UNL     1       2.194   4.583  18.044  0.00  0.00    +0.000 A 
ATOM     31  C   UNL     1       2.252   5.665  18.924  0.00  0.00    +0.000 A 
ENDBRANCH  25  26
ENDBRANCH  22  25
ENDBRANCH  18  19
ENDBRANCH  11  18
TORSDOF 5
ENDMDL
MODEL 5
REMARK VINA RESULT:      -7.2      4.012      9.735
REMARK  Name = 
REMARK  6 active torsions:
REMARK  status: ('A' for Active; 'I' for Inactive)
REMARK    1  A    between atoms: C_1  and  O_2
REMARK    2  A    between atoms: O_2  and  C_3
REMARK    3  A    between atoms: C_13  and  C_14
REMARK    4  A    between atoms: C_14  and  N_15
REMARK    5  A    between atoms: N_18  and  C_19
REMARK    6  A    between atoms: C_19  and  C_20
REMARK                            x       y       z     vdW  Elec       q    Type
REMARK                         _______ _______ _______ _____ _____    ______ ____
ROOT
ATOM      1  C   UNL     1      -3.710  10.474  15.553  0.00  0.00    +0.000 A 
ATOM      2  C   UNL     1      -4.437  11.442  16.245  0.00  0.00    +0.000 A 
ATOM      3  C   UNL     1      -4.038  11.835  17.526  0.00  0.00    +0.000 A 
ATOM      4  C   UNL     1      -2.904  11.265  18.110  0.00  0.00    +0.000 A 
ATOM      5  C   UNL     1      -2.446  11.705  19.427  0.00  0.00    +0.000 A 
ATOM      6  O   UNL     1      -3.069  12.549  20.069  0.00  0.00    +0.000 OA
ATOM      7  C   UNL     1      -1.202  11.117  19.938  0.00  0.00    +0.000 A 
ATOM      8  C   UNL     1      -0.656  11.583  21.140  0.00  0.00    +0.000 A 
ATOM      9  C   UNL     1       0.530  11.036  21.621  0.00  0.00    +0.000 A 
ATOM     10  C   UNL     1       1.151  10.006  20.913  0.00  0.00    +0.000 A 
ATOM     11  C   UNL     1       0.601   9.522  19.707  0.00  0.00    +0.000 A 
ATOM     12  C   UNL     1      -0.578  10.108  19.202  0.00  0.00    +0.000 A 
ATOM     13  O   UNL     1      -1.062   9.670  17.981  0.00  0.00    +0.000 OA
ATOM     14  C   UNL     1      -2.173  10.285  17.443  0.00  0.00    +0.000 A 
ATOM     15  C   UNL     1      -2.581   9.892  16.161  0.00  0.00    +0.000 A 
ENDROOT
BRANCH   1  17
ATOM     16  C   UNL     1      -2.907   9.709  13.436  0.00  0.00    +0.000 C 
ATOM     17  O   UNL     1      -4.004  10.012  14.297  0.00  0.00    +0.000 OA
ENDBRANCH   1  17
BRANCH  11  18
ATOM     18  C   UNL     1       1.340   8.435  18.956  0.00  0.00    +0.000 C 
BRANCH  18  19
ATOM     19  N   UNL     1       2.358   7.699  19.734  0.00  0.00    +0.000 NA
ATOM     20  C   UNL     1       1.852   6.484  20.414  0.00  0.00    +0.000 C 
ATOM     21  C   UNL     1       1.655   5.203  19.542  0.00  0.00    +0.000 C 
ATOM     22  N   UNL     1       2.600   4.922  18.437  0.00  0.00    +0.000 NA
ATOM     23  C   UNL     1       3.017   6.199  17.811  0.00  0.00    +0.000 C 
ATOM     24  C   UNL     1       3.451   7.282  18.835  0.00  0.00    +0.000 C 
BRANCH  22  25
ATOM     25  C   UNL     1       3.825   4.170  18.745  0.00  0.00    +0.000 C 
BRANCH  25  26
ATOM     26  C   UNL     1       4.971   4.139  17.759  0.00  0.00    +0.000 A 
ATOM     27  C   UNL     1       4.767   3.824  16.405  0.00  0.00    +0.000 A 
ATOM     28  C   UNL     1       5.785   4.028  15.467  0.00  0.00    +0.000 A 
ATOM     29  C   UNL     1       7.015   4.547  15.870  0.00  0.00    +0.000 A 
ATOM     30  C   UNL     1       7.233   4.847  17.212  0.00  0.00    +0.000 A 
ATOM     31  C   UNL     1       6.221   4.636  18.150  0.00  0.00    +0.000 A 
ENDBRANCH  25  26
ENDBRANCH  22  25
ENDBRANCH  18  19
ENDBRANCH  11  18
TORSDOF 5
ENDMDL
MODEL 6
REMARK VINA RESULT:      -7.2      1.964      2.467
REMARK  Name = 
REMARK  6 active torsions:
REMARK  status: ('A' for Active; 'I' for Inactive)
REMARK    1  A    between atoms: C_1  and  O_2
REMARK    2  A    between atoms: O_2  and  C_3
REMARK    3  A    between atoms: C_13  and  C_14
REMARK    4  A    between atoms: C_14  and  N_15
REMARK    5  A    between atoms: N_18  and  C_19
REMARK    6  A    between atoms: C_19  and  C_20
REMARK                            x       y       z     vdW  Elec       q    Type
REMARK                         _______ _______ _______ _____ _____    ______ ____
ROOT
ATOM      1  C   UNL     1       6.131   5.161  15.052  0.00  0.00    +0.000 A 
ATOM      2  C   UNL     1       6.221   3.806  15.370  0.00  0.00    +0.000 A 
ATOM      3  C   UNL     1       5.540   3.301  16.482  0.00  0.00    +0.000 A 
ATOM      4  C   UNL     1       4.762   4.153  17.270  0.00  0.00    +0.000 A 
ATOM      5  C   UNL     1       4.003   3.627  18.405  0.00  0.00    +0.000 A 
ATOM      6  O   UNL     1       4.067   2.440  18.720  0.00  0.00    +0.000 OA
ATOM      7  C   UNL     1       3.146   4.568  19.135  0.00  0.00    +0.000 A 
ATOM      8  C   UNL     1       2.311   4.099  20.157  0.00  0.00    +0.000 A 
ATOM      9  C   UNL     1       1.487   4.988  20.842  0.00  0.00    +0.000 A 
ATOM     10  C   UNL     1       1.521   6.345  20.523  0.00  0.00    +0.000 A 
ATOM     11  C   UNL     1       2.369   6.829  19.504  0.00  0.00    +0.000 A 
ATOM     12  C   UNL     1       3.169   5.919  18.784  0.00  0.00    +0.000 A 
ATOM     13  O   UNL     1       3.939   6.402  17.737  0.00  0.00    +0.000 OA
ATOM     14  C   UNL     1       4.671   5.511  16.980  0.00  0.00    +0.000 A 
ATOM     15  C   UNL     1       5.359   6.012  15.867  0.00  0.00    +0.000 A 
ENDROOT
BRANCH   1  17
ATOM     16  C   UNL     1       7.298   4.920  12.981  0.00  0.00    +0.000 C 
ATOM     17  O   UNL     1       6.750   5.766  13.991  0.00  0.00    +0.000 OA
ENDBRANCH   1  17
BRANCH  11  18
ATOM     18  C   UNL     1       2.332   8.304  19.168  0.00  0.00    +0.000 C 
BRANCH  18  19
ATOM     19  N   UNL     1       0.988   8.878  18.952  0.00  0.00    +0.000 NA
ATOM     20  C   UNL     1       0.374   9.478  20.158  0.00  0.00    +0.000 C 
ATOM     21  C   UNL     1       0.864  10.900  20.581  0.00  0.00    +0.000 C 
ATOM     22  N   UNL     1       1.224  11.886  19.537  0.00  0.00    +0.000 NA
ATOM     23  C   UNL     1       1.853  11.184  18.393  0.00  0.00    +0.000 C 
ATOM     24  C   UNL     1       1.067   9.932  17.922  0.00  0.00    +0.000 C 
BRANCH  22  25
ATOM     25  C   UNL     1       0.157  12.737  18.988  0.00  0.00    +0.000 C 
BRANCH  25  26
ATOM     26  C   UNL     1      -1.267  12.584  19.472  0.00  0.00    +0.000 A 
ATOM     27  C   UNL     1      -1.740  13.285  20.595  0.00  0.00    +0.000 A 
ATOM     28  C   UNL     1      -3.108  13.317  20.888  0.00  0.00    +0.000 A 
ATOM     29  C   UNL     1      -4.016  12.651  20.066  0.00  0.00    +0.000 A 
ATOM     30  C   UNL     1      -3.557  11.941  18.960  0.00  0.00    +0.000 A 
ATOM     31  C   UNL     1      -2.191  11.900  18.671  0.00  0.00    +0.000 A 
ENDBRANCH  25  26
ENDBRANCH  22  25
ENDBRANCH  18  19
ENDBRANCH  11  18
TORSDOF 5
ENDMDL
MODEL 7
REMARK VINA RESULT:      -7.0      1.045      1.570
REMARK  Name = 
REMARK  6 active torsions:
REMARK  status: ('A' for Active; 'I' for Inactive)
REMARK    1  A    between atoms: C_1  and  O_2
REMARK    2  A    between atoms: O_2  and  C_3
REMARK    3  A    between atoms: C_13  and  C_14
REMARK    4  A    between atoms: C_14  and  N_15
REMARK    5  A    between atoms: N_18  and  C_19
REMARK    6  A    between atoms: C_19  and  C_20
REMARK                            x       y       z     vdW  Elec       q    Type
REMARK                         _______ _______ _______ _____ _____    ______ ____
ROOT
ATOM      1  C   UNL     1       7.082   6.407  17.456  0.00  0.00    +0.000 A 
ATOM      2  C   UNL     1       7.618   5.147  17.725  0.00  0.00    +0.000 A 
ATOM      3  C   UNL     1       6.863   4.200  18.424  0.00  0.00    +0.000 A 
ATOM      4  C   UNL     1       5.568   4.512  18.845  0.00  0.00    +0.000 A 
ATOM      5  C   UNL     1       4.749   3.512  19.530  0.00  0.00    +0.000 A 
ATOM      6  O   UNL     1       5.193   2.396  19.793  0.00  0.00    +0.000 OA
ATOM      7  C   UNL     1       3.371   3.888  19.868  0.00  0.00    +0.000 A 
ATOM      8  C   UNL     1       2.507   2.935  20.422  0.00  0.00    +0.000 A 
ATOM      9  C   UNL     1       1.196   3.286  20.732  0.00  0.00    +0.000 A 
ATOM     10  C   UNL     1       0.762   4.593  20.514  0.00  0.00    +0.000 A 
ATOM     11  C   UNL     1       1.630   5.563  19.969  0.00  0.00    +0.000 A 
ATOM     12  C   UNL     1       2.943   5.193  19.617  0.00  0.00    +0.000 A 
ATOM     13  O   UNL     1       3.757   6.139  19.014  0.00  0.00    +0.000 OA
ATOM     14  C   UNL     1       5.019   5.768  18.600  0.00  0.00    +0.000 A 
ATOM     15  C   UNL     1       5.783   6.715  17.903  0.00  0.00    +0.000 A 
ENDROOT
BRANCH   1  17
ATOM     16  C   UNL     1       7.980   8.621  17.493  0.00  0.00    +0.000 C 
ATOM     17  O   UNL     1       7.725   7.411  16.781  0.00  0.00    +0.000 OA
ENDBRANCH   1  17
BRANCH  11  18
ATOM     18  C   UNL     1       1.093   6.955  19.710  0.00  0.00    +0.000 C 
BRANCH  18  19
ATOM     19  N   UNL     1       1.724   8.039  20.491  0.00  0.00    +0.000 NA
ATOM     20  C   UNL     1       1.667   9.372  19.849  0.00  0.00    +0.000 C 
ATOM     21  C   UNL     1       0.318  10.154  19.937  0.00  0.00    +0.000 C 
ATOM     22  N   UNL     1      -0.511  10.041  21.160  0.00  0.00    +0.000 NA
ATOM     23  C   UNL     1      -0.403   8.665  21.700  0.00  0.00    +0.000 C 
ATOM     24  C   UNL     1       1.057   8.148  21.802  0.00  0.00    +0.000 C 
BRANCH  22  25
ATOM     25  C   UNL     1      -0.239  10.965  22.271  0.00  0.00    +0.000 C 
BRANCH  25  26
ATOM     26  C   UNL     1      -1.257  12.012  22.661  0.00  0.00    +0.000 A 
ATOM     27  C   UNL     1      -2.467  11.662  23.285  0.00  0.00    +0.000 A 
ATOM     28  C   UNL     1      -3.286  12.647  23.849  0.00  0.00    +0.000 A 
ATOM     29  C   UNL     1      -2.907  13.988  23.796  0.00  0.00    +0.000 A 
ATOM     30  C   UNL     1      -1.718  14.347  23.166  0.00  0.00    +0.000 A 
ATOM     31  C   UNL     1      -0.904  13.366  22.595  0.00  0.00    +0.000 A 
ENDBRANCH  25  26
ENDBRANCH  22  25
ENDBRANCH  18  19
ENDBRANCH  11  18
TORSDOF 5
ENDMDL
MODEL 8
REMARK VINA RESULT:      -7.0      6.708     10.182
REMARK  Name = 
REMARK  6 active torsions:
REMARK  status: ('A' for Active; 'I' for Inactive)
REMARK    1  A    between atoms: C_1  and  O_2
REMARK    2  A    between atoms: O_2  and  C_3
REMARK    3  A    between atoms: C_13  and  C_14
REMARK    4  A    between atoms: C_14  and  N_15
REMARK    5  A    between atoms: N_18  and  C_19
REMARK    6  A    between atoms: C_19  and  C_20
REMARK                            x       y       z     vdW  Elec       q    Type
REMARK                         _______ _______ _______ _____ _____    ______ ____
ROOT
ATOM      1  C   UNL     1      -5.997  13.660  21.873  0.00  0.00    +0.000 A 
ATOM      2  C   UNL     1      -7.064  13.807  20.986  0.00  0.00    +0.000 A 
ATOM      3  C   UNL     1      -6.940  13.372  19.664  0.00  0.00    +0.000 A 
ATOM      4  C   UNL     1      -5.751  12.780  19.231  0.00  0.00    +0.000 A 
ATOM      5  C   UNL     1      -5.628  12.273  17.865  0.00  0.00    +0.000 A 
ATOM      6  O   UNL     1      -6.545  12.396  17.054  0.00  0.00    +0.000 OA
ATOM      7  C   UNL     1      -4.377  11.593  17.510  0.00  0.00    +0.000 A 
ATOM      8  C   UNL     1      -4.248  10.988  16.254  0.00  0.00    +0.000 A 
ATOM      9  C   UNL     1      -3.067  10.330  15.919  0.00  0.00    +0.000 A 
ATOM     10  C   UNL     1      -2.011  10.304  16.830  0.00  0.00    +0.000 A 
ATOM     11  C   UNL     1      -2.128  10.922  18.093  0.00  0.00    +0.000 A 
ATOM     12  C   UNL     1      -3.340  11.549  18.444  0.00  0.00    +0.000 A 
ATOM     13  O   UNL     1      -3.463  12.085  19.716  0.00  0.00    +0.000 OA
ATOM     14  C   UNL     1      -4.669  12.638  20.095  0.00  0.00    +0.000 A 
ATOM     15  C   UNL     1      -4.797  13.081  21.419  0.00  0.00    +0.000 A 
ENDROOT
BRANCH   1  17
ATOM     16  C   UNL     1      -4.776  14.528  23.734  0.00  0.00    +0.000 C 
ATOM     17  O   UNL     1      -6.003  14.047  23.187  0.00  0.00    +0.000 OA
ENDBRANCH   1  17
BRANCH  11  18
ATOM     18  C   UNL     1      -0.968  10.823  19.061  0.00  0.00    +0.000 C 
BRANCH  18  19
ATOM     19  N   UNL     1       0.215  11.643  18.728  0.00  0.00    +0.000 NA
ATOM     20  C   UNL     1      -0.095  13.029  18.310  0.00  0.00    +0.000 C 
ATOM     21  C   UNL     1      -0.436  14.058  19.435  0.00  0.00    +0.000 C 
ATOM     22  N   UNL     1       0.257  13.966  20.741  0.00  0.00    +0.000 NA
ATOM     23  C   UNL     1       0.492  12.540  21.072  0.00  0.00    +0.000 C 
ATOM     24  C   UNL     1       1.102  11.721  19.904  0.00  0.00    +0.000 C 
BRANCH  22  25
ATOM     25  C   UNL     1       1.543  14.663  20.895  0.00  0.00    +0.000 C 
BRANCH  25  26
ATOM     26  C   UNL     1       2.169  15.380  19.721  0.00  0.00    +0.000 A 
ATOM     27  C   UNL     1       3.096  14.741  18.879  0.00  0.00    +0.000 A 
ATOM     28  C   UNL     1       3.484  15.332  17.672  0.00  0.00    +0.000 A 
ATOM     29  C   UNL     1       2.954  16.564  17.293  0.00  0.00    +0.000 A 
ATOM     30  C   UNL     1       2.047  17.214  18.127  0.00  0.00    +0.000 A 
ATOM     31  C   UNL     1       1.666  16.630  19.336  0.00  0.00    +0.000 A 
ENDBRANCH  25  26
ENDBRANCH  22  25
ENDBRANCH  18  19
ENDBRANCH  11  18
TORSDOF 5
ENDMDL
MODEL 9
REMARK VINA RESULT:      -7.0      4.934     10.714
REMARK  Name = 
REMARK  6 active torsions:
REMARK  status: ('A' for Active; 'I' for Inactive)
REMARK    1  A    between atoms: C_1  and  O_2
REMARK    2  A    between atoms: O_2  and  C_3
REMARK    3  A    between atoms: C_13  and  C_14
REMARK    4  A    between atoms: C_14  and  N_15
REMARK    5  A    between atoms: N_18  and  C_19
REMARK    6  A    between atoms: C_19  and  C_20
REMARK                            x       y       z     vdW  Elec       q    Type
REMARK                         _______ _______ _______ _____ _____    ______ ____
ROOT
ATOM      1  C   UNL     1      -6.378  12.928  22.586  0.00  0.00    +0.000 A 
ATOM      2  C   UNL     1      -7.532  12.658  21.850  0.00  0.00    +0.000 A 
ATOM      3  C   UNL     1      -7.435  12.314  20.498  0.00  0.00    +0.000 A 
ATOM      4  C   UNL     1      -6.181  12.229  19.887  0.00  0.00    +0.000 A 
ATOM      5  C   UNL     1      -6.064  11.818  18.488  0.00  0.00    +0.000 A 
ATOM      6  O   UNL     1      -7.060  11.584  17.807  0.00  0.00    +0.000 OA
ATOM      7  C   UNL     1      -4.709  11.675  17.941  0.00  0.00    +0.000 A 
ATOM      8  C   UNL     1      -4.533  11.176  16.645  0.00  0.00    +0.000 A 
ATOM      9  C   UNL     1      -3.249  11.026  16.128  0.00  0.00    +0.000 A 
ATOM     10  C   UNL     1      -2.149  11.403  16.897  0.00  0.00    +0.000 A 
ATOM     11  C   UNL     1      -2.317  11.919  18.200  0.00  0.00    +0.000 A 
ATOM     12  C   UNL     1      -3.617  12.028  18.735  0.00  0.00    +0.000 A 
ATOM     13  O   UNL     1      -3.758  12.466  20.042  0.00  0.00    +0.000 OA
ATOM     14  C   UNL     1      -5.018  12.509  20.600  0.00  0.00    +0.000 A 
ATOM     15  C   UNL     1      -5.123  12.858  21.953  0.00  0.00    +0.000 A 
ENDROOT
BRANCH   1  17
ATOM     16  C   UNL     1      -7.570  13.725  24.498  0.00  0.00    +0.000 C 
ATOM     17  O   UNL     1      -6.350  13.273  23.912  0.00  0.00    +0.000 OA
ENDBRANCH   1  17
BRANCH  11  18
ATOM     18  C   UNL     1      -1.086  12.268  19.008  0.00  0.00    +0.000 C 
BRANCH  18  19
ATOM     19  N   UNL     1      -0.476  11.151  19.760  0.00  0.00    +0.000 NA
ATOM     20  C   UNL     1      -0.728   9.812  19.183  0.00  0.00    +0.000 C 
ATOM     21  C   UNL     1       0.129   9.389  17.947  0.00  0.00    +0.000 C 
ATOM     22  N   UNL     1       1.542   9.825  17.858  0.00  0.00    +0.000 NA
ATOM     23  C   UNL     1       1.674  11.183  18.436  0.00  0.00    +0.000 C 
ATOM     24  C   UNL     1       0.986  11.343  19.817  0.00  0.00    +0.000 C 
BRANCH  22  25
ATOM     25  C   UNL     1       2.569   8.984  18.491  0.00  0.00    +0.000 C 
BRANCH  25  26
ATOM     26  C   UNL     1       2.260   7.551  18.864  0.00  0.00    +0.000 A 
ATOM     27  C   UNL     1       2.544   6.487  17.990  0.00  0.00    +0.000 A 
ATOM     28  C   UNL     1       2.474   5.163  18.437  0.00  0.00    +0.000 A 
ATOM     29  C   UNL     1       2.120   4.887  19.757  0.00  0.00    +0.000 A 
ATOM     30  C   UNL     1       1.821   5.933  20.626  0.00  0.00    +0.000 A 
ATOM     31  C   UNL     1       1.882   7.254  20.180  0.00  0.00    +0.000 A 
ENDBRANCH  25  26
ENDBRANCH  22  25
ENDBRANCH  18  19
ENDBRANCH  11  18
TORSDOF 5
ENDMDL
