MODEL 1
REMARK VINA RESULT:      -8.7      0.000      0.000
REMARK  Name = 
REMARK  2 active torsions:
REMARK  status: ('A' for Active; 'I' for Inactive)
REMARK    1  A    between atoms: C_2  and  C_3
REMARK    2  A    between atoms: C_15  and  C_16
REMARK                            x       y       z     vdW  Elec       q    Type
REMARK                         _______ _______ _______ _____ _____    ______ ____
ROOT
ATOM      1  O   UNL     1       4.209   3.731  19.506  0.00  0.00    +0.000 OA
ATOM      2  C   UNL     1       4.053   4.732  18.803  0.00  0.00    +0.000 C 
ATOM      3  N   UNL     1       3.010   5.627  19.013  0.00  0.00    +0.000 N 
ATOM      4  C   UNL     1       2.770   6.842  18.239  0.00  0.00    +0.000 C 
ATOM      5  C   UNL     1       2.050   7.895  19.011  0.00  0.00    +0.000 C 
ATOM      6  C   UNL     1       1.571   7.719  20.250  0.00  0.00    +0.000 C 
ATOM      7  C   UNL     1       1.674   6.399  20.959  0.00  0.00    +0.000 C 
ATOM      8  C   UNL     1       1.955   5.264  19.968  0.00  0.00    +0.000 C 
ENDROOT
BRANCH   2   9
ATOM      9  C   UNL     1       5.070   5.007  17.725  0.00  0.00    +0.000 A 
ATOM     10  C   UNL     1       6.170   5.970  17.842  0.00  0.00    +0.000 A 
ATOM     11  C   UNL     1       7.116   6.098  16.891  0.00  0.00    +0.000 A 
ATOM     12  C   UNL     1       6.974   5.383  15.676  0.00  0.00    +0.000 A 
ATOM     13  N   UNL     1       7.689   5.342  14.575  0.00  0.00    +0.000 NA
ATOM     14  N   UNL     1       7.028   4.537  13.674  0.00  0.00    +0.000 NA
ATOM     15  C   UNL     1       5.928   4.104  14.255  0.00  0.00    +0.000 A 
ATOM     16  N   UNL     1       5.853   4.583  15.534  0.00  0.00    +0.000 N 
ATOM     17  C   UNL     1       4.916   4.374  16.541  0.00  0.00    +0.000 A 
ENDBRANCH   2   9
BRANCH   6  18
ATOM     18  C   UNL     1       0.940   8.846  20.931  0.00  0.00    +0.000 A 
ATOM     19  C   UNL     1       0.614   8.757  22.289  0.00  0.00    +0.000 A 
ATOM     20  C   UNL     1      -0.034   9.818  22.921  0.00  0.00    +0.000 A 
ATOM     21  C   UNL     1      -0.362  10.962  22.193  0.00  0.00    +0.000 A 
ATOM     22 CL   UNL     1      -1.159  12.271  22.975  0.00  0.00    +0.000 Cl
ATOM     23  C   UNL     1      -0.053  11.051  20.837  0.00  0.00    +0.000 A 
ATOM     24  C   UNL     1       0.594   9.991  20.205  0.00  0.00    +0.000 A 
ENDBRANCH   6  18
TORSDOF 2
ENDMDL
MODEL 2
REMARK VINA RESULT:      -8.0      0.856      1.002
REMARK  Name = 
REMARK  2 active torsions:
REMARK  status: ('A' for Active; 'I' for Inactive)
REMARK    1  A    between atoms: C_2  and  C_3
REMARK    2  A    between atoms: C_15  and  C_16
REMARK                            x       y       z     vdW  Elec       q    Type
REMARK                         _______ _______ _______ _____ _____    ______ ____
ROOT
ATOM      1  O   UNL     1       4.265   4.653  19.983  0.00  0.00    +0.000 OA
ATOM      2  C   UNL     1       4.057   5.455  19.070  0.00  0.00    +0.000 C 
ATOM      3  N   UNL     1       2.973   6.325  19.081  0.00  0.00    +0.000 N 
ATOM      4  C   UNL     1       2.672   7.314  18.050  0.00  0.00    +0.000 C 
ATOM      5  C   UNL     1       1.905   8.483  18.567  0.00  0.00    +0.000 C 
ATOM      6  C   UNL     1       1.441   8.580  19.819  0.00  0.00    +0.000 C 
ATOM      7  C   UNL     1       1.610   7.468  20.815  0.00  0.00    +0.000 C 
ATOM      8  C   UNL     1       1.941   6.147  20.111  0.00  0.00    +0.000 C 
ENDROOT
BRANCH   2   9
ATOM      9  C   UNL     1       5.056   5.517  17.942  0.00  0.00    +0.000 A 
ATOM     10  C   UNL     1       6.268   6.342  17.945  0.00  0.00    +0.000 A 
ATOM     11  C   UNL     1       7.183   6.278  16.958  0.00  0.00    +0.000 A 
ATOM     12  C   UNL     1       6.906   5.494  15.810  0.00  0.00    +0.000 A 
ATOM     13  N   UNL     1       7.565   5.279  14.694  0.00  0.00    +0.000 NA
ATOM     14  N   UNL     1       6.775   4.495  13.883  0.00  0.00    +0.000 NA
ATOM     15  C   UNL     1       5.655   4.249  14.532  0.00  0.00    +0.000 A 
ATOM     16  N   UNL     1       5.691   4.831  15.769  0.00  0.00    +0.000 N 
ATOM     17  C   UNL     1       4.777   4.818  16.819  0.00  0.00    +0.000 A 
ENDBRANCH   2   9
BRANCH   6  18
ATOM     18  C   UNL     1       0.760   9.804  20.229  0.00  0.00    +0.000 A 
ATOM     19  C   UNL     1       0.443  10.019  21.575  0.00  0.00    +0.000 A 
ATOM     20  C   UNL     1      -0.252  11.168  21.953  0.00  0.00    +0.000 A 
ATOM     21  C   UNL     1      -0.637  12.094  20.984  0.00  0.00    +0.000 A 
ATOM     22 CL   UNL     1      -1.493  13.512  21.452  0.00  0.00    +0.000 Cl
ATOM     23  C   UNL     1      -0.339  11.879  19.639  0.00  0.00    +0.000 A 
ATOM     24  C   UNL     1       0.357  10.731  19.262  0.00  0.00    +0.000 A 
ENDBRANCH   6  18
TORSDOF 2
ENDMDL
MODEL 3
REMARK VINA RESULT:      -7.8      1.343      1.895
REMARK  Name = 
REMARK  2 active torsions:
REMARK  status: ('A' for Active; 'I' for Inactive)
REMARK    1  A    between atoms: C_2  and  C_3
REMARK    2  A    between atoms: C_15  and  C_16
REMARK                            x       y       z     vdW  Elec       q    Type
REMARK                         _______ _______ _______ _____ _____    ______ ____
ROOT
ATOM      1  O   UNL     1       4.308   5.262  19.996  0.00  0.00    +0.000 OA
ATOM      2  C   UNL     1       4.077   5.910  18.972  0.00  0.00    +0.000 C 
ATOM      3  N   UNL     1       2.979   6.755  18.863  0.00  0.00    +0.000 N 
ATOM      4  C   UNL     1       2.650   7.567  17.696  0.00  0.00    +0.000 C 
ATOM      5  C   UNL     1       1.869   8.791  18.036  0.00  0.00    +0.000 C 
ATOM      6  C   UNL     1       1.417   9.073  19.265  0.00  0.00    +0.000 C 
ATOM      7  C   UNL     1       1.615   8.131  20.417  0.00  0.00    +0.000 C 
ATOM      8  C   UNL     1       1.961   6.723  19.921  0.00  0.00    +0.000 C 
ENDROOT
BRANCH   2   9
ATOM      9  C   UNL     1       5.062   5.811  17.835  0.00  0.00    +0.000 A 
ATOM     10  C   UNL     1       6.330   6.546  17.764  0.00  0.00    +0.000 A 
ATOM     11  C   UNL     1       7.225   6.338  16.778  0.00  0.00    +0.000 A 
ATOM     12  C   UNL     1       6.878   5.489  15.698  0.00  0.00    +0.000 A 
ATOM     13  N   UNL     1       7.505   5.141  14.598  0.00  0.00    +0.000 NA
ATOM     14  N   UNL     1       6.651   4.355  13.857  0.00  0.00    +0.000 NA
ATOM     15  C   UNL     1       5.525   4.241  14.532  0.00  0.00    +0.000 A 
ATOM     16  N   UNL     1       5.618   4.914  15.719  0.00  0.00    +0.000 N 
ATOM     17  C   UNL     1       4.720   5.049  16.773  0.00  0.00    +0.000 A 
ENDBRANCH   2   9
BRANCH   6  18
ATOM     18  C   UNL     1       0.719  10.336  19.489  0.00  0.00    +0.000 A 
ATOM     19  C   UNL     1       1.223  11.525  18.953  0.00  0.00    +0.000 A 
ATOM     20  C   UNL     1       0.580  12.736  19.213  0.00  0.00    +0.000 A 
ATOM     21  C   UNL     1      -0.561  12.754  20.016  0.00  0.00    +0.000 A 
ATOM     22 CL   UNL     1      -1.355  14.247  20.334  0.00  0.00    +0.000 Cl
ATOM     23  C   UNL     1      -1.060  11.575  20.566  0.00  0.00    +0.000 A 
ATOM     24  C   UNL     1      -0.417  10.365  20.306  0.00  0.00    +0.000 A 
ENDBRANCH   6  18
TORSDOF 2
ENDMDL
MODEL 4
REMARK VINA RESULT:      -7.4      1.795      2.775
REMARK  Name = 
REMARK  2 active torsions:
REMARK  status: ('A' for Active; 'I' for Inactive)
REMARK    1  A    between atoms: C_2  and  C_3
REMARK    2  A    between atoms: C_15  and  C_16
REMARK                            x       y       z     vdW  Elec       q    Type
REMARK                         _______ _______ _______ _____ _____    ______ ____
ROOT
ATOM      1  O   UNL     1       2.942   4.959  20.850  0.00  0.00    +0.000 OA
ATOM      2  C   UNL     1       2.960   5.567  19.777  0.00  0.00    +0.000 C 
ATOM      3  N   UNL     1       2.168   6.687  19.549  0.00  0.00    +0.000 N 
ATOM      4  C   UNL     1       2.148   7.471  18.317  0.00  0.00    +0.000 C 
ATOM      5  C   UNL     1       1.753   8.892  18.534  0.00  0.00    +0.000 C 
ATOM      6  C   UNL     1       1.351   9.385  19.713  0.00  0.00    +0.000 C 
ATOM      7  C   UNL     1       1.209   8.516  20.929  0.00  0.00    +0.000 C 
ATOM      8  C   UNL     1       1.141   7.035  20.539  0.00  0.00    +0.000 C 
ENDROOT
BRANCH   2   9
ATOM      9  C   UNL     1       3.920   5.099  18.714  0.00  0.00    +0.000 A 
ATOM     10  C   UNL     1       3.531   4.384  17.494  0.00  0.00    +0.000 A 
ATOM     11  C   UNL     1       4.416   4.084  16.524  0.00  0.00    +0.000 A 
ATOM     12  C   UNL     1       5.792   4.341  16.743  0.00  0.00    +0.000 A 
ATOM     13  N   UNL     1       6.868   4.119  16.022  0.00  0.00    +0.000 NA
ATOM     14  N   UNL     1       7.961   4.491  16.773  0.00  0.00    +0.000 NA
ATOM     15  C   UNL     1       7.520   4.935  17.931  0.00  0.00    +0.000 A 
ATOM     16  N   UNL     1       6.153   4.892  17.961  0.00  0.00    +0.000 N 
ATOM     17  C   UNL     1       5.240   5.287  18.935  0.00  0.00    +0.000 A 
ENDBRANCH   2   9
BRANCH   6  18
ATOM     18  C   UNL     1       1.051  10.811  19.819  0.00  0.00    +0.000 A 
ATOM     19  C   UNL     1       1.458  11.693  18.812  0.00  0.00    +0.000 A 
ATOM     20  C   UNL     1       1.213  13.061  18.943  0.00  0.00    +0.000 A 
ATOM     21  C   UNL     1       0.570  13.542  20.083  0.00  0.00    +0.000 A 
ATOM     22 CL   UNL     1       0.266  15.228  20.242  0.00  0.00    +0.000 Cl
ATOM     23  C   UNL     1       0.176  12.670  21.097  0.00  0.00    +0.000 A 
ATOM     24  C   UNL     1       0.420  11.304  20.966  0.00  0.00    +0.000 A 
ENDBRANCH   6  18
TORSDOF 2
ENDMDL
MODEL 5
REMARK VINA RESULT:      -7.4      2.276      3.174
REMARK  Name = 
REMARK  2 active torsions:
REMARK  status: ('A' for Active; 'I' for Inactive)
REMARK    1  A    between atoms: C_2  and  C_3
REMARK    2  A    between atoms: C_15  and  C_16
REMARK                            x       y       z     vdW  Elec       q    Type
REMARK                         _______ _______ _______ _____ _____    ______ ____
ROOT
ATOM      1  O   UNL     1       2.801   5.513  20.707  0.00  0.00    +0.000 OA
ATOM      2  C   UNL     1       2.886   6.012  19.583  0.00  0.00    +0.000 C 
ATOM      3  N   UNL     1       2.157   7.138  19.216  0.00  0.00    +0.000 N 
ATOM      4  C   UNL     1       2.218   7.798  17.915  0.00  0.00    +0.000 C 
ATOM      5  C   UNL     1       1.883   9.249  17.979  0.00  0.00    +0.000 C 
ATOM      6  C   UNL     1       1.462   9.872  19.088  0.00  0.00    +0.000 C 
ATOM      7  C   UNL     1       1.236   9.133  20.375  0.00  0.00    +0.000 C 
ATOM      8  C   UNL     1       1.113   7.625  20.126  0.00  0.00    +0.000 C 
ENDROOT
BRANCH   2   9
ATOM      9  C   UNL     1       3.861   5.401  18.609  0.00  0.00    +0.000 A 
ATOM     10  C   UNL     1       3.485   4.545  17.479  0.00  0.00    +0.000 A 
ATOM     11  C   UNL     1       4.386   4.114  16.575  0.00  0.00    +0.000 A 
ATOM     12  C   UNL     1       5.762   4.375  16.792  0.00  0.00    +0.000 A 
ATOM     13  N   UNL     1       6.849   4.050  16.129  0.00  0.00    +0.000 NA
ATOM     14  N   UNL     1       7.932   4.496  16.853  0.00  0.00    +0.000 NA
ATOM     15  C   UNL     1       7.473   5.089  17.937  0.00  0.00    +0.000 A 
ATOM     16  N   UNL     1       6.105   5.069  17.940  0.00  0.00    +0.000 N 
ATOM     17  C   UNL     1       5.179   5.596  18.835  0.00  0.00    +0.000 A 
ENDBRANCH   2   9
BRANCH   6  18
ATOM     18  C   UNL     1       1.227  11.313  19.044  0.00  0.00    +0.000 A 
ATOM     19  C   UNL     1       0.046  11.851  19.567  0.00  0.00    +0.000 A 
ATOM     20  C   UNL     1      -0.195  13.222  19.476  0.00  0.00    +0.000 A 
ATOM     21  C   UNL     1       0.741  14.050  18.856  0.00  0.00    +0.000 A 
ATOM     22 CL   UNL     1       0.443  15.741  18.747  0.00  0.00    +0.000 Cl
ATOM     23  C   UNL     1       1.912  13.518  18.319  0.00  0.00    +0.000 A 
ATOM     24  C   UNL     1       2.153  12.148  18.410  0.00  0.00    +0.000 A 
ENDBRANCH   6  18
TORSDOF 2
ENDMDL
MODEL 6
REMARK VINA RESULT:      -7.3      0.988      1.650
REMARK  Name = 
REMARK  2 active torsions:
REMARK  status: ('A' for Active; 'I' for Inactive)
REMARK    1  A    between atoms: C_2  and  C_3
REMARK    2  A    between atoms: C_15  and  C_16
REMARK                            x       y       z     vdW  Elec       q    Type
REMARK                         _______ _______ _______ _____ _____    ______ ____
ROOT
ATOM      1  O   UNL     1       3.391   3.656  20.118  0.00  0.00    +0.000 OA
ATOM      2  C   UNL     1       3.354   4.628  19.360  0.00  0.00    +0.000 C 
ATOM      3  N   UNL     1       2.409   5.639  19.498  0.00  0.00    +0.000 N 
ATOM      4  C   UNL     1       2.313   6.827  18.656  0.00  0.00    +0.000 C 
ATOM      5  C   UNL     1       1.697   7.991  19.355  0.00  0.00    +0.000 C 
ATOM      6  C   UNL     1       1.182   7.936  20.590  0.00  0.00    +0.000 C 
ATOM      7  C   UNL     1       1.132   6.655  21.371  0.00  0.00    +0.000 C 
ATOM      8  C   UNL     1       1.306   5.443  20.448  0.00  0.00    +0.000 C 
ENDROOT
BRANCH   2   9
ATOM      9  C   UNL     1       4.412   4.733  18.292  0.00  0.00    +0.000 A 
ATOM     10  C   UNL     1       4.590   3.774  17.197  0.00  0.00    +0.000 A 
ATOM     11  C   UNL     1       5.482   3.972  16.206  0.00  0.00    +0.000 A 
ATOM     12  C   UNL     1       6.375   5.069  16.291  0.00  0.00    +0.000 A 
ATOM     13  N   UNL     1       7.359   5.482  15.524  0.00  0.00    +0.000 NA
ATOM     14  N   UNL     1       7.950   6.560  16.143  0.00  0.00    +0.000 NA
ATOM     15  C   UNL     1       7.305   6.779  17.271  0.00  0.00    +0.000 A 
ATOM     16  N   UNL     1       6.279   5.885  17.406  0.00  0.00    +0.000 N 
ATOM     17  C   UNL     1       5.306   5.742  18.391  0.00  0.00    +0.000 A 
ENDBRANCH   2   9
BRANCH   6  18
ATOM     18  C   UNL     1       0.665   9.160  21.196  0.00  0.00    +0.000 A 
ATOM     19  C   UNL     1      -0.021   9.108  22.414  0.00  0.00    +0.000 A 
ATOM     20  C   UNL     1      -0.557  10.273  22.963  0.00  0.00    +0.000 A 
ATOM     21  C   UNL     1      -0.413  11.485  22.288  0.00  0.00    +0.000 A 
ATOM     22 CL   UNL     1      -1.072  12.922  22.967  0.00  0.00    +0.000 Cl
ATOM     23  C   UNL     1       0.256  11.542  21.067  0.00  0.00    +0.000 A 
ATOM     24  C   UNL     1       0.792  10.377  20.518  0.00  0.00    +0.000 A 
ENDBRANCH   6  18
TORSDOF 2
ENDMDL
MODEL 7
REMARK VINA RESULT:      -7.3      1.008      1.144
REMARK  Name = 
REMARK  2 active torsions:
REMARK  status: ('A' for Active; 'I' for Inactive)
REMARK    1  A    between atoms: C_2  and  C_3
REMARK    2  A    between atoms: C_15  and  C_16
REMARK                            x       y       z     vdW  Elec       q    Type
REMARK                         _______ _______ _______ _____ _____    ______ ____
ROOT
ATOM      1  O   UNL     1       4.635   2.984  19.226  0.00  0.00    +0.000 OA
ATOM      2  C   UNL     1       4.371   4.010  18.594  0.00  0.00    +0.000 C 
ATOM      3  N   UNL     1       3.274   4.807  18.902  0.00  0.00    +0.000 N 
ATOM      4  C   UNL     1       2.907   6.042  18.217  0.00  0.00    +0.000 C 
ATOM      5  C   UNL     1       2.146   6.988  19.082  0.00  0.00    +0.000 C 
ATOM      6  C   UNL     1       1.740   6.703  20.327  0.00  0.00    +0.000 C 
ATOM      7  C   UNL     1       1.976   5.356  20.948  0.00  0.00    +0.000 C 
ATOM      8  C   UNL     1       2.295   4.307  19.877  0.00  0.00    +0.000 C 
ENDROOT
BRANCH   2   9
ATOM      9  C   UNL     1       5.313   4.426  17.493  0.00  0.00    +0.000 A 
ATOM     10  C   UNL     1       6.391   5.409  17.645  0.00  0.00    +0.000 A 
ATOM     11  C   UNL     1       7.273   5.664  16.660  0.00  0.00    +0.000 A 
ATOM     12  C   UNL     1       7.078   5.072  15.388  0.00  0.00    +0.000 A 
ATOM     13  N   UNL     1       7.725   5.167  14.248  0.00  0.00    +0.000 NA
ATOM     14  N   UNL     1       7.033   4.437  13.309  0.00  0.00    +0.000 NA
ATOM     15  C   UNL     1       5.982   3.911  13.904  0.00  0.00    +0.000 A 
ATOM     16  N   UNL     1       5.972   4.254  15.228  0.00  0.00    +0.000 N 
ATOM     17  C   UNL     1       5.104   3.913  16.261  0.00  0.00    +0.000 A 
ENDBRANCH   2   9
BRANCH   6  18
ATOM     18  C   UNL     1       1.058   7.735  21.103  0.00  0.00    +0.000 A 
ATOM     19  C   UNL     1      -0.339   7.783  21.138  0.00  0.00    +0.000 A 
ATOM     20  C   UNL     1      -0.985   8.801  21.840  0.00  0.00    +0.000 A 
ATOM     21  C   UNL     1      -0.230   9.773  22.498  0.00  0.00    +0.000 A 
ATOM     22 CL   UNL     1      -1.027  11.027  23.366  0.00  0.00    +0.000 Cl
ATOM     23  C   UNL     1       1.162   9.740  22.455  0.00  0.00    +0.000 A 
ATOM     24  C   UNL     1       1.807   8.722  21.753  0.00  0.00    +0.000 A 
ENDBRANCH   6  18
TORSDOF 2
ENDMDL
MODEL 8
REMARK VINA RESULT:      -7.3      2.447      3.418
REMARK  Name = 
REMARK  2 active torsions:
REMARK  status: ('A' for Active; 'I' for Inactive)
REMARK    1  A    between atoms: C_2  and  C_3
REMARK    2  A    between atoms: C_15  and  C_16
REMARK                            x       y       z     vdW  Elec       q    Type
REMARK                         _______ _______ _______ _____ _____    ______ ____
ROOT
ATOM      1  O   UNL     1       2.696   5.696  20.644  0.00  0.00    +0.000 OA
ATOM      2  C   UNL     1       2.825   6.164  19.510  0.00  0.00    +0.000 C 
ATOM      3  N   UNL     1       2.156   7.312  19.102  0.00  0.00    +0.000 N 
ATOM      4  C   UNL     1       2.273   7.937  17.788  0.00  0.00    +0.000 C 
ATOM      5  C   UNL     1       2.003   9.403  17.811  0.00  0.00    +0.000 C 
ATOM      6  C   UNL     1       1.590  10.071  18.896  0.00  0.00    +0.000 C 
ATOM      7  C   UNL     1       1.305   9.374  20.195  0.00  0.00    +0.000 C 
ATOM      8  C   UNL     1       1.118   7.868  19.979  0.00  0.00    +0.000 C 
ENDROOT
BRANCH   2   9
ATOM      9  C   UNL     1       3.790   5.485  18.571  0.00  0.00    +0.000 A 
ATOM     10  C   UNL     1       3.404   4.535  17.523  0.00  0.00    +0.000 A 
ATOM     11  C   UNL     1       4.294   4.041  16.639  0.00  0.00    +0.000 A 
ATOM     12  C   UNL     1       5.669   4.334  16.808  0.00  0.00    +0.000 A 
ATOM     13  N   UNL     1       6.748   3.967  16.154  0.00  0.00    +0.000 NA
ATOM     14  N   UNL     1       7.838   4.484  16.818  0.00  0.00    +0.000 NA
ATOM     15  C   UNL     1       7.392   5.158  17.858  0.00  0.00    +0.000 A 
ATOM     16  N   UNL     1       6.025   5.124  17.889  0.00  0.00    +0.000 N 
ATOM     17  C   UNL     1       5.109   5.712  18.755  0.00  0.00    +0.000 A 
ENDBRANCH   2   9
BRANCH   6  18
ATOM     18  C   UNL     1       1.422  11.519  18.813  0.00  0.00    +0.000 A 
ATOM     19  C   UNL     1       2.415  12.312  18.228  0.00  0.00    +0.000 A 
ATOM     20  C   UNL     1       2.271  13.700  18.197  0.00  0.00    +0.000 A 
ATOM     21  C   UNL     1       1.139  14.291  18.759  0.00  0.00    +0.000 A 
ATOM     22 CL   UNL     1       0.962  16.002  18.718  0.00  0.00    +0.000 Cl
ATOM     23  C   UNL     1       0.153  13.507  19.356  0.00  0.00    +0.000 A 
ATOM     24  C   UNL     1       0.297  12.121  19.387  0.00  0.00    +0.000 A 
ENDBRANCH   6  18
TORSDOF 2
ENDMDL
MODEL 9
REMARK VINA RESULT:      -7.2      3.179      4.649
REMARK  Name = 
REMARK  2 active torsions:
REMARK  status: ('A' for Active; 'I' for Inactive)
REMARK    1  A    between atoms: C_2  and  C_3
REMARK    2  A    between atoms: C_15  and  C_16
REMARK                            x       y       z     vdW  Elec       q    Type
REMARK                         _______ _______ _______ _____ _____    ______ ____
ROOT
ATOM      1  O   UNL     1       2.241   8.000  17.660  0.00  0.00    +0.000 OA
ATOM      2  C   UNL     1       2.097   7.825  18.873  0.00  0.00    +0.000 C 
ATOM      3  N   UNL     1       1.636   8.830  19.716  0.00  0.00    +0.000 N 
ATOM      4  C   UNL     1       1.421   8.694  21.154  0.00  0.00    +0.000 C 
ATOM      5  C   UNL     1       0.378   9.620  21.679  0.00  0.00    +0.000 C 
ATOM      6  C   UNL     1      -0.229  10.560  20.942  0.00  0.00    +0.000 C 
ATOM      7  C   UNL     1       0.137  10.799  19.506  0.00  0.00    +0.000 C 
ATOM      8  C   UNL     1       1.506  10.191  19.180  0.00  0.00    +0.000 C 
ENDROOT
BRANCH   2   9
ATOM      9  C   UNL     1       2.381   6.453  19.428  0.00  0.00    +0.000 A 
ATOM     10  C   UNL     1       1.563   5.776  20.440  0.00  0.00    +0.000 A 
ATOM     11  C   UNL     1       1.799   4.506  20.821  0.00  0.00    +0.000 A 
ATOM     12  C   UNL     1       2.954   3.843  20.339  0.00  0.00    +0.000 A 
ATOM     13  N   UNL     1       3.462   2.653  20.565  0.00  0.00    +0.000 NA
ATOM     14  N   UNL     1       4.661   2.572  19.892  0.00  0.00    +0.000 NA
ATOM     15  C   UNL     1       4.848   3.717  19.268  0.00  0.00    +0.000 A 
ATOM     16  N   UNL     1       3.788   4.552  19.490  0.00  0.00    +0.000 N 
ATOM     17  C   UNL     1       3.509   5.832  19.019  0.00  0.00    +0.000 A 
ENDBRANCH   2   9
BRANCH   6  18
ATOM     18  C   UNL     1      -1.284  11.365  21.551  0.00  0.00    +0.000 A 
ATOM     19  C   UNL     1      -1.533  11.278  22.925  0.00  0.00    +0.000 A 
ATOM     20  C   UNL     1      -2.575  12.012  23.493  0.00  0.00    +0.000 A 
ATOM     21  C   UNL     1      -3.369  12.826  22.683  0.00  0.00    +0.000 A 
ATOM     22 CL   UNL     1      -4.652  13.733  23.385  0.00  0.00    +0.000 Cl
ATOM     23  C   UNL     1      -3.135  12.906  21.312  0.00  0.00    +0.000 A 
ATOM     24  C   UNL     1      -2.094  12.172  20.745  0.00  0.00    +0.000 A 
ENDBRANCH   6  18
TORSDOF 2
ENDMDL
