MODEL 1
REMARK VINA RESULT:      -8.6      0.000      0.000
REMARK  Name = 
REMARK  10 active torsions:
REMARK  status: ('A' for Active; 'I' for Inactive)
REMARK    1  A    between atoms: C_1  and  O_2
REMARK    2  A    between atoms: O_2  and  C_3
REMARK    3  A    between atoms: C_3  and  C_5
REMARK    4  A    between atoms: C_6  and  O_7
REMARK    5  A    between atoms: C_9  and  O_10
REMARK    6  A    between atoms: C_13  and  C_14
REMARK    7  A    between atoms: C_14  and  C_15
REMARK    8  A    between atoms: C_15  and  C_16
REMARK    9  A    between atoms: N_20  and  C_21
REMARK   10  A    between atoms: C_21  and  C_22
REMARK                            x       y       z     vdW  Elec       q    Type
REMARK                         _______ _______ _______ _____ _____    ______ ____
ROOT
ATOM      1  C   UNL     1       2.613   4.583  17.358  0.00  0.00    +0.000 C 
ENDROOT
BRANCH   1   2
ATOM      2  C   UNL     1       2.048   4.254  18.720  0.00  0.00    +0.000 A 
ATOM      3  N   UNL     1       1.363   3.156  18.993  0.00  0.00    +0.000 NA
ATOM      4  C   UNL     1       0.953   3.256  20.291  0.00  0.00    +0.000 A 
ATOM      5  C   UNL     1       1.409   4.420  20.848  0.00  0.00    +0.000 A 
ATOM      6  N   UNL     1       2.117   5.055  19.851  0.00  0.00    +0.000 N 
BRANCH   6   7
ATOM      7  C   UNL     1       2.837   6.314  20.059  0.00  0.00    +0.000 C 
BRANCH   7   8
ATOM      8  C   UNL     1       2.197   7.558  19.457  0.00  0.00    +0.000 A 
ATOM      9  C   UNL     1       2.438   7.912  18.115  0.00  0.00    +0.000 A 
ATOM     10  C   UNL     1       1.925   9.086  17.574  0.00  0.00    +0.000 A 
ATOM     11  C   UNL     1       1.152   9.932  18.357  0.00  0.00    +0.000 A 
ATOM     12  C   UNL     1       0.862   9.614  19.689  0.00  0.00    +0.000 A 
ATOM     13  C   UNL     1       0.081  10.503  20.445  0.00  0.00    +0.000 A 
ATOM     14  C   UNL     1      -0.221  10.235  21.783  0.00  0.00    +0.000 A 
ATOM     15  C   UNL     1       0.239   9.060  22.359  0.00  0.00    +0.000 A 
ATOM     16  C   UNL     1       1.014   8.161  21.613  0.00  0.00    +0.000 A 
ATOM     17  C   UNL     1       1.366   8.414  20.261  0.00  0.00    +0.000 A 
ENDBRANCH   7   8
ENDBRANCH   6   7
ENDBRANCH   1   2
BRANCH   1  18
ATOM     18  C   UNL     1       3.937   3.820  17.098  0.00  0.00    +0.000 C 
BRANCH  18  25
ATOM     19  C   UNL     1       5.881   5.461  16.592  0.00  0.00    +0.000 A 
ATOM     20  C   UNL     1       6.995   6.205  17.045  0.00  0.00    +0.000 A 
ATOM     21  C   UNL     1       7.455   6.098  18.351  0.00  0.00    +0.000 A 
ATOM     22  C   UNL     1       6.844   5.193  19.206  0.00  0.00    +0.000 A 
ATOM     23  C   UNL     1       5.784   4.381  18.762  0.00  0.00    +0.000 A 
ATOM     24 CL   UNL     1       5.149   3.196  19.864  0.00  0.00    +0.000 Cl
ATOM     25  C   UNL     1       5.239   4.534  17.461  0.00  0.00    +0.000 A 
BRANCH  19  26
ATOM     26  C   UNL     1       5.434   5.760  15.210  0.00  0.00    +0.000 C 
ATOM     27  O   UNL     1       5.102   6.889  14.867  0.00  0.00    +0.000 OA
BRANCH  26  29
ATOM     28  C   UNL     1       6.887   4.598  13.787  0.00  0.00    +0.000 C 
ATOM     29  O   UNL     1       5.597   4.700  14.397  0.00  0.00    +0.000 OA
ENDBRANCH  26  29
ENDBRANCH  19  26
BRANCH  20  30
ATOM     30  O   UNL     1       7.713   7.074  16.258  0.00  0.00    +0.000 OA
ATOM     31  H   UNL     1       8.043   7.819  16.805  0.00  0.00    +0.000 HD
ENDBRANCH  20  30
BRANCH  22  32
ATOM     32  O   UNL     1       7.278   5.117  20.503  0.00  0.00    +0.000 OA
ATOM     33  H   UNL     1       6.989   5.914  20.979  0.00  0.00    +0.000 HD
ENDBRANCH  22  32
ENDBRANCH  18  25
ENDBRANCH   1  18
TORSDOF 9
ENDMDL
MODEL 2
REMARK VINA RESULT:      -7.6      3.220      7.384
REMARK  Name = 
REMARK  10 active torsions:
REMARK  status: ('A' for Active; 'I' for Inactive)
REMARK    1  A    between atoms: C_1  and  O_2
REMARK    2  A    between atoms: O_2  and  C_3
REMARK    3  A    between atoms: C_3  and  C_5
REMARK    4  A    between atoms: C_6  and  O_7
REMARK    5  A    between atoms: C_9  and  O_10
REMARK    6  A    between atoms: C_13  and  C_14
REMARK    7  A    between atoms: C_14  and  C_15
REMARK    8  A    between atoms: C_15  and  C_16
REMARK    9  A    between atoms: N_20  and  C_21
REMARK   10  A    between atoms: C_21  and  C_22
REMARK                            x       y       z     vdW  Elec       q    Type
REMARK                         _______ _______ _______ _____ _____    ______ ____
ROOT
ATOM      1  C   UNL     1       1.851   5.798  19.209  0.00  0.00    +0.000 C 
ENDROOT
BRANCH   1   2
ATOM      2  C   UNL     1       2.171   4.527  19.960  0.00  0.00    +0.000 A 
ATOM      3  N   UNL     1       1.680   4.225  21.150  0.00  0.00    +0.000 NA
ATOM      4  C   UNL     1       2.259   3.050  21.533  0.00  0.00    +0.000 A 
ATOM      5  C   UNL     1       3.107   2.596  20.558  0.00  0.00    +0.000 A 
ATOM      6  N   UNL     1       3.045   3.531  19.548  0.00  0.00    +0.000 N 
BRANCH   6   7
ATOM      7  C   UNL     1       3.757   3.382  18.276  0.00  0.00    +0.000 C 
BRANCH   7   8
ATOM      8  C   UNL     1       5.043   4.186  18.131  0.00  0.00    +0.000 A 
ATOM      9  C   UNL     1       5.633   4.804  19.249  0.00  0.00    +0.000 A 
ATOM     10  C   UNL     1       6.763   5.606  19.121  0.00  0.00    +0.000 A 
ATOM     11  C   UNL     1       7.336   5.803  17.871  0.00  0.00    +0.000 A 
ATOM     12  C   UNL     1       6.803   5.190  16.731  0.00  0.00    +0.000 A 
ATOM     13  C   UNL     1       7.411   5.422  15.488  0.00  0.00    +0.000 A 
ATOM     14  C   UNL     1       6.905   4.844  14.320  0.00  0.00    +0.000 A 
ATOM     15  C   UNL     1       5.801   4.009  14.401  0.00  0.00    +0.000 A 
ATOM     16  C   UNL     1       5.188   3.763  15.639  0.00  0.00    +0.000 A 
ATOM     17  C   UNL     1       5.655   4.357  16.841  0.00  0.00    +0.000 A 
ENDBRANCH   7   8
ENDBRANCH   6   7
ENDBRANCH   1   2
BRANCH   1  18
ATOM     18  C   UNL     1       2.274   7.051  20.019  0.00  0.00    +0.000 C 
BRANCH  18  25
ATOM     19  C   UNL     1       0.763   9.143  20.290  0.00  0.00    +0.000 A 
ATOM     20  C   UNL     1       0.417  10.454  19.890  0.00  0.00    +0.000 A 
ATOM     21  C   UNL     1       1.042  11.072  18.814  0.00  0.00    +0.000 A 
ATOM     22  C   UNL     1       1.979  10.359  18.082  0.00  0.00    +0.000 A 
ATOM     23  C   UNL     1       2.288   9.025  18.407  0.00  0.00    +0.000 A 
ATOM     24 CL   UNL     1       3.391   8.169  17.372  0.00  0.00    +0.000 Cl
ATOM     25  C   UNL     1       1.730   8.402  19.553  0.00  0.00    +0.000 A 
BRANCH  19  26
ATOM     26  C   UNL     1       0.096   8.655  21.522  0.00  0.00    +0.000 C 
ATOM     27  O   UNL     1      -0.773   7.791  21.489  0.00  0.00    +0.000 OA
BRANCH  26  29
ATOM     28  C   UNL     1      -0.233   9.712  23.586  0.00  0.00    +0.000 C 
ATOM     29  O   UNL     1       0.674   9.157  22.629  0.00  0.00    +0.000 OA
ENDBRANCH  26  29
ENDBRANCH  19  26
BRANCH  20  30
ATOM     30  O   UNL     1      -0.548  11.218  20.502  0.00  0.00    +0.000 OA
ATOM     31  H   UNL     1      -1.377  10.699  20.584  0.00  0.00    +0.000 HD
ENDBRANCH  20  30
BRANCH  22  32
ATOM     32  O   UNL     1       2.618  10.985  17.045  0.00  0.00    +0.000 OA
ATOM     33  H   UNL     1       3.549  10.703  17.032  0.00  0.00    +0.000 HD
ENDBRANCH  22  32
ENDBRANCH  18  25
ENDBRANCH   1  18
TORSDOF 9
ENDMDL
MODEL 3
REMARK VINA RESULT:      -7.4      2.765      4.136
REMARK  Name = 
REMARK  10 active torsions:
REMARK  status: ('A' for Active; 'I' for Inactive)
REMARK    1  A    between atoms: C_1  and  O_2
REMARK    2  A    between atoms: O_2  and  C_3
REMARK    3  A    between atoms: C_3  and  C_5
REMARK    4  A    between atoms: C_6  and  O_7
REMARK    5  A    between atoms: C_9  and  O_10
REMARK    6  A    between atoms: C_13  and  C_14
REMARK    7  A    between atoms: C_14  and  C_15
REMARK    8  A    between atoms: C_15  and  C_16
REMARK    9  A    between atoms: N_20  and  C_21
REMARK   10  A    between atoms: C_21  and  C_22
REMARK                            x       y       z     vdW  Elec       q    Type
REMARK                         _______ _______ _______ _____ _____    ______ ____
ROOT
ATOM      1  C   UNL     1       2.560   7.952  18.295  0.00  0.00    +0.000 C 
ENDROOT
BRANCH   1   2
ATOM      2  C   UNL     1       1.775   8.283  19.543  0.00  0.00    +0.000 A 
ATOM      3  N   UNL     1       1.839   7.585  20.666  0.00  0.00    +0.000 NA
ATOM      4  C   UNL     1       0.935   8.135  21.527  0.00  0.00    +0.000 A 
ATOM      5  C   UNL     1       0.314   9.209  20.947  0.00  0.00    +0.000 A 
ATOM      6  N   UNL     1       0.856   9.312  19.684  0.00  0.00    +0.000 N 
BRANCH   6   7
ATOM      7  C   UNL     1       0.511  10.388  18.751  0.00  0.00    +0.000 C 
BRANCH   7   8
ATOM      8  C   UNL     1      -0.952  10.468  18.333  0.00  0.00    +0.000 A 
ATOM      9  C   UNL     1      -1.422   9.743  17.222  0.00  0.00    +0.000 A 
ATOM     10  C   UNL     1      -2.735   9.866  16.781  0.00  0.00    +0.000 A 
ATOM     11  C   UNL     1      -3.614  10.712  17.445  0.00  0.00    +0.000 A 
ATOM     12  C   UNL     1      -3.204  11.436  18.570  0.00  0.00    +0.000 A 
ATOM     13  C   UNL     1      -4.125  12.284  19.205  0.00  0.00    +0.000 A 
ATOM     14  C   UNL     1      -3.756  13.038  20.322  0.00  0.00    +0.000 A 
ATOM     15  C   UNL     1      -2.467  12.924  20.821  0.00  0.00    +0.000 A 
ATOM     16  C   UNL     1      -1.540  12.075  20.200  0.00  0.00    +0.000 A 
ATOM     17  C   UNL     1      -1.869  11.317  19.045  0.00  0.00    +0.000 A 
ENDBRANCH   7   8
ENDBRANCH   6   7
ENDBRANCH   1   2
BRANCH   1  18
ATOM     18  C   UNL     1       2.235   6.523  17.789  0.00  0.00    +0.000 C 
BRANCH  18  25
ATOM     19  C   UNL     1       4.527   5.316  17.919  0.00  0.00    +0.000 A 
ATOM     20  C   UNL     1       5.353   4.332  18.511  0.00  0.00    +0.000 A 
ATOM     21  C   UNL     1       4.862   3.456  19.472  0.00  0.00    +0.000 A 
ATOM     22  C   UNL     1       3.517   3.512  19.806  0.00  0.00    +0.000 A 
ATOM     23  C   UNL     1       2.653   4.427  19.177  0.00  0.00    +0.000 A 
ATOM     24 CL   UNL     1       0.962   4.356  19.574  0.00  0.00    +0.000 Cl
ATOM     25  C   UNL     1       3.147   5.390  18.259  0.00  0.00    +0.000 A 
BRANCH  19  26
ATOM     26  C   UNL     1       5.213   6.251  16.995  0.00  0.00    +0.000 C 
ATOM     27  O   UNL     1       4.997   6.245  15.788  0.00  0.00    +0.000 OA
BRANCH  26  29
ATOM     28  C   UNL     1       7.254   7.390  17.147  0.00  0.00    +0.000 C 
ATOM     29  O   UNL     1       5.941   7.164  17.666  0.00  0.00    +0.000 OA
ENDBRANCH  26  29
ENDBRANCH  19  26
BRANCH  20  30
ATOM     30  O   UNL     1       6.678   4.146  18.197  0.00  0.00    +0.000 OA
ATOM     31  H   UNL     1       6.753   3.553  17.419  0.00  0.00    +0.000 HD
ENDBRANCH  20  30
BRANCH  22  32
ATOM     32  O   UNL     1       3.046   2.672  20.779  0.00  0.00    +0.000 OA
ATOM     33  H   UNL     1       3.614   2.750  21.565  0.00  0.00    +0.000 HD
ENDBRANCH  22  32
ENDBRANCH  18  25
ENDBRANCH   1  18
TORSDOF 9
ENDMDL
MODEL 4
REMARK VINA RESULT:      -7.4      3.155      5.082
REMARK  Name = 
REMARK  10 active torsions:
REMARK  status: ('A' for Active; 'I' for Inactive)
REMARK    1  A    between atoms: C_1  and  O_2
REMARK    2  A    between atoms: O_2  and  C_3
REMARK    3  A    between atoms: C_3  and  C_5
REMARK    4  A    between atoms: C_6  and  O_7
REMARK    5  A    between atoms: C_9  and  O_10
REMARK    6  A    between atoms: C_13  and  C_14
REMARK    7  A    between atoms: C_14  and  C_15
REMARK    8  A    between atoms: C_15  and  C_16
REMARK    9  A    between atoms: N_20  and  C_21
REMARK   10  A    between atoms: C_21  and  C_22
REMARK                            x       y       z     vdW  Elec       q    Type
REMARK                         _______ _______ _______ _____ _____    ______ ____
ROOT
ATOM      1  C   UNL     1       2.044   8.224  17.849  0.00  0.00    +0.000 C 
ENDROOT
BRANCH   1   2
ATOM      2  C   UNL     1       1.990   9.723  18.027  0.00  0.00    +0.000 A 
ATOM      3  N   UNL     1       2.867  10.564  17.504  0.00  0.00    +0.000 NA
ATOM      4  C   UNL     1       2.538  11.810  17.951  0.00  0.00    +0.000 A 
ATOM      5  C   UNL     1       1.423  11.754  18.744  0.00  0.00    +0.000 A 
ATOM      6  N   UNL     1       1.065  10.424  18.787  0.00  0.00    +0.000 N 
BRANCH   6   7
ATOM      7  C   UNL     1      -0.132   9.940  19.479  0.00  0.00    +0.000 C 
BRANCH   7   8
ATOM      8  C   UNL     1      -1.368  10.824  19.375  0.00  0.00    +0.000 A 
ATOM      9  C   UNL     1      -1.729  11.681  20.432  0.00  0.00    +0.000 A 
ATOM     10  C   UNL     1      -2.897  12.436  20.386  0.00  0.00    +0.000 A 
ATOM     11  C   UNL     1      -3.729  12.359  19.277  0.00  0.00    +0.000 A 
ATOM     12  C   UNL     1      -3.403  11.542  18.188  0.00  0.00    +0.000 A 
ATOM     13  C   UNL     1      -4.277  11.491  17.091  0.00  0.00    +0.000 A 
ATOM     14  C   UNL     1      -4.001  10.678  15.988  0.00  0.00    +0.000 A 
ATOM     15  C   UNL     1      -2.832   9.932  15.973  0.00  0.00    +0.000 A 
ATOM     16  C   UNL     1      -1.947   9.980  17.059  0.00  0.00    +0.000 A 
ATOM     17  C   UNL     1      -2.209  10.770  18.209  0.00  0.00    +0.000 A 
ENDBRANCH   7   8
ENDBRANCH   6   7
ENDBRANCH   1   2
BRANCH   1  18
ATOM     18  C   UNL     1       3.459   7.671  18.161  0.00  0.00    +0.000 C 
BRANCH  18  25
ATOM     19  C   UNL     1       4.584   5.576  17.125  0.00  0.00    +0.000 A 
ATOM     20  C   UNL     1       4.843   4.186  17.168  0.00  0.00    +0.000 A 
ATOM     21  C   UNL     1       4.256   3.370  18.128  0.00  0.00    +0.000 A 
ATOM     22  C   UNL     1       3.351   3.925  19.019  0.00  0.00    +0.000 A 
ATOM     23  C   UNL     1       3.013   5.289  18.951  0.00  0.00    +0.000 A 
ATOM     24 CL   UNL     1       1.787   5.880  20.033  0.00  0.00    +0.000 Cl
ATOM     25  C   UNL     1       3.663   6.161  18.039  0.00  0.00    +0.000 A 
BRANCH  19  26
ATOM     26  C   UNL     1       5.366   6.338  16.121  0.00  0.00    +0.000 C 
ATOM     27  O   UNL     1       4.822   7.018  15.258  0.00  0.00    +0.000 OA
BRANCH  26  29
ATOM     28  C   UNL     1       7.120   7.226  17.393  0.00  0.00    +0.000 C 
ATOM     29  O   UNL     1       6.684   6.304  16.391  0.00  0.00    +0.000 OA
ENDBRANCH  26  29
ENDBRANCH  19  26
BRANCH  20  30
ATOM     30  O   UNL     1       5.667   3.527  16.288  0.00  0.00    +0.000 OA
ATOM     31  H   UNL     1       5.165   2.816  15.834  0.00  0.00    +0.000 HD
ENDBRANCH  20  30
BRANCH  22  32
ATOM     32  O   UNL     1       2.803   3.123  19.985  0.00  0.00    +0.000 OA
ATOM     33  H   UNL     1       1.837   3.236  19.978  0.00  0.00    +0.000 HD
ENDBRANCH  22  32
ENDBRANCH  18  25
ENDBRANCH   1  18
TORSDOF 9
ENDMDL
MODEL 5
REMARK VINA RESULT:      -7.3      3.075      4.954
REMARK  Name = 
REMARK  10 active torsions:
REMARK  status: ('A' for Active; 'I' for Inactive)
REMARK    1  A    between atoms: C_1  and  O_2
REMARK    2  A    between atoms: O_2  and  C_3
REMARK    3  A    between atoms: C_3  and  C_5
REMARK    4  A    between atoms: C_6  and  O_7
REMARK    5  A    between atoms: C_9  and  O_10
REMARK    6  A    between atoms: C_13  and  C_14
REMARK    7  A    between atoms: C_14  and  C_15
REMARK    8  A    between atoms: C_15  and  C_16
REMARK    9  A    between atoms: N_20  and  C_21
REMARK   10  A    between atoms: C_21  and  C_22
REMARK                            x       y       z     vdW  Elec       q    Type
REMARK                         _______ _______ _______ _____ _____    ______ ____
ROOT
ATOM      1  C   UNL     1       2.066   7.480  19.314  0.00  0.00    +0.000 C 
ENDROOT
BRANCH   1   2
ATOM      2  C   UNL     1       1.458   8.353  20.387  0.00  0.00    +0.000 A 
ATOM      3  N   UNL     1       1.610   8.146  21.685  0.00  0.00    +0.000 NA
ATOM      4  C   UNL     1       0.852   9.081  22.328  0.00  0.00    +0.000 A 
ATOM      5  C   UNL     1       0.236   9.902  21.421  0.00  0.00    +0.000 A 
ATOM      6  N   UNL     1       0.629   9.446  20.182  0.00  0.00    +0.000 N 
BRANCH   6   7
ATOM      7  C   UNL     1       0.246  10.103  18.929  0.00  0.00    +0.000 C 
BRANCH   7   8
ATOM      8  C   UNL     1      -1.052  10.900  18.963  0.00  0.00    +0.000 A 
ATOM      9  C   UNL     1      -1.343  11.755  20.043  0.00  0.00    +0.000 A 
ATOM     10  C   UNL     1      -2.557  12.428  20.126  0.00  0.00    +0.000 A 
ATOM     11  C   UNL     1      -3.508  12.270  19.127  0.00  0.00    +0.000 A 
ATOM     12  C   UNL     1      -3.259  11.452  18.019  0.00  0.00    +0.000 A 
ATOM     13  C   UNL     1      -4.252  11.318  17.036  0.00  0.00    +0.000 A 
ATOM     14  C   UNL     1      -4.054  10.499  15.921  0.00  0.00    +0.000 A 
ATOM     15  C   UNL     1      -2.846   9.834  15.775  0.00  0.00    +0.000 A 
ATOM     16  C   UNL     1      -1.843   9.965  16.746  0.00  0.00    +0.000 A 
ATOM     17  C   UNL     1      -2.020  10.763  17.907  0.00  0.00    +0.000 A 
ENDBRANCH   7   8
ENDBRANCH   6   7
ENDBRANCH   1   2
BRANCH   1  18
ATOM     18  C   UNL     1       2.794   6.258  19.928  0.00  0.00    +0.000 C 
BRANCH  18  25
ATOM     19  C   UNL     1       4.072   4.914  18.114  0.00  0.00    +0.000 A 
ATOM     20  C   UNL     1       4.287   3.696  17.427  0.00  0.00    +0.000 A 
ATOM     21  C   UNL     1       3.496   2.580  17.665  0.00  0.00    +0.000 A 
ATOM     22  C   UNL     1       2.434   2.686  18.550  0.00  0.00    +0.000 A 
ATOM     23  C   UNL     1       2.145   3.906  19.190  0.00  0.00    +0.000 A 
ATOM     24 CL   UNL     1       0.730   3.983  20.197  0.00  0.00    +0.000 Cl
ATOM     25  C   UNL     1       2.990   5.035  19.031  0.00  0.00    +0.000 A 
BRANCH  19  26
ATOM     26  C   UNL     1       5.062   5.984  17.841  0.00  0.00    +0.000 C 
ATOM     27  O   UNL     1       4.784   6.966  17.164  0.00  0.00    +0.000 OA
BRANCH  26  29
ATOM     28  C   UNL     1       7.393   6.210  17.885  0.00  0.00    +0.000 C 
ATOM     29  O   UNL     1       6.193   5.801  18.548  0.00  0.00    +0.000 OA
ENDBRANCH  26  29
ENDBRANCH  19  26
BRANCH  20  30
ATOM     30  O   UNL     1       5.266   3.508  16.480  0.00  0.00    +0.000 OA
ATOM     31  H   UNL     1       4.937   2.902  15.782  0.00  0.00    +0.000 HD
ENDBRANCH  20  30
BRANCH  22  32
ATOM     32  O   UNL     1       1.679   1.573  18.809  0.00  0.00    +0.000 OA
ATOM     33  H   UNL     1       1.949   0.862  18.204  0.00  0.00    +0.000 HD
ENDBRANCH  22  32
ENDBRANCH  18  25
ENDBRANCH   1  18
TORSDOF 9
ENDMDL
MODEL 6
REMARK VINA RESULT:      -7.3      2.682      4.314
REMARK  Name = 
REMARK  10 active torsions:
REMARK  status: ('A' for Active; 'I' for Inactive)
REMARK    1  A    between atoms: C_1  and  O_2
REMARK    2  A    between atoms: O_2  and  C_3
REMARK    3  A    between atoms: C_3  and  C_5
REMARK    4  A    between atoms: C_6  and  O_7
REMARK    5  A    between atoms: C_9  and  O_10
REMARK    6  A    between atoms: C_13  and  C_14
REMARK    7  A    between atoms: C_14  and  C_15
REMARK    8  A    between atoms: C_15  and  C_16
REMARK    9  A    between atoms: N_20  and  C_21
REMARK   10  A    between atoms: C_21  and  C_22
REMARK                            x       y       z     vdW  Elec       q    Type
REMARK                         _______ _______ _______ _____ _____    ______ ____
ROOT
ATOM      1  C   UNL     1       2.579   7.818  18.297  0.00  0.00    +0.000 C 
ENDROOT
BRANCH   1   2
ATOM      2  C   UNL     1       1.843   8.153  19.573  0.00  0.00    +0.000 A 
ATOM      3  N   UNL     1       1.786   7.356  20.627  0.00  0.00    +0.000 NA
ATOM      4  C   UNL     1       0.970   7.960  21.538  0.00  0.00    +0.000 A 
ATOM      5  C   UNL     1       0.529   9.165  21.060  0.00  0.00    +0.000 A 
ATOM      6  N   UNL     1       1.093   9.296  19.809  0.00  0.00    +0.000 N 
BRANCH   6   7
ATOM      7  C   UNL     1       0.929  10.492  18.979  0.00  0.00    +0.000 C 
BRANCH   7   8
ATOM      8  C   UNL     1      -0.346  11.293  19.205  0.00  0.00    +0.000 A 
ATOM      9  C   UNL     1      -0.404  12.287  20.200  0.00  0.00    +0.000 A 
ATOM     10  C   UNL     1      -1.584  12.973  20.471  0.00  0.00    +0.000 A 
ATOM     11  C   UNL     1      -2.734  12.686  19.748  0.00  0.00    +0.000 A 
ATOM     12  C   UNL     1      -2.724  11.725  18.731  0.00  0.00    +0.000 A 
ATOM     13  C   UNL     1      -3.913  11.464  18.030  0.00  0.00    +0.000 A 
ATOM     14  C   UNL     1      -3.954  10.502  17.017  0.00  0.00    +0.000 A 
ATOM     15  C   UNL     1      -2.795   9.816  16.687  0.00  0.00    +0.000 A 
ATOM     16  C   UNL     1      -1.600  10.072  17.374  0.00  0.00    +0.000 A 
ATOM     17  C   UNL     1      -1.527  11.020  18.429  0.00  0.00    +0.000 A 
ENDBRANCH   7   8
ENDBRANCH   6   7
ENDBRANCH   1   2
BRANCH   1  18
ATOM     18  C   UNL     1       2.250   6.380  17.818  0.00  0.00    +0.000 C 
BRANCH  18  25
ATOM     19  C   UNL     1       4.562   5.206  17.906  0.00  0.00    +0.000 A 
ATOM     20  C   UNL     1       5.412   4.234  18.483  0.00  0.00    +0.000 A 
ATOM     21  C   UNL     1       4.951   3.351  19.452  0.00  0.00    +0.000 A 
ATOM     22  C   UNL     1       3.612   3.388  19.811  0.00  0.00    +0.000 A 
ATOM     23  C   UNL     1       2.723   4.291  19.198  0.00  0.00    +0.000 A 
ATOM     24 CL   UNL     1       1.042   4.195  19.626  0.00  0.00    +0.000 Cl
ATOM     25  C   UNL     1       3.187   5.260  18.271  0.00  0.00    +0.000 A 
BRANCH  19  26
ATOM     26  C   UNL     1       5.217   6.151  16.970  0.00  0.00    +0.000 C 
ATOM     27  O   UNL     1       5.034   6.095  15.759  0.00  0.00    +0.000 OA
BRANCH  26  29
ATOM     28  C   UNL     1       7.258   7.252  17.296  0.00  0.00    +0.000 C 
ATOM     29  O   UNL     1       5.873   7.124  17.629  0.00  0.00    +0.000 OA
ENDBRANCH  26  29
ENDBRANCH  19  26
BRANCH  20  30
ATOM     30  O   UNL     1       6.733   4.067  18.145  0.00  0.00    +0.000 OA
ATOM     31  H   UNL     1       6.935   4.585  17.336  0.00  0.00    +0.000 HD
ENDBRANCH  20  30
BRANCH  22  32
ATOM     32  O   UNL     1       3.171   2.541  20.793  0.00  0.00    +0.000 OA
ATOM     33  H   UNL     1       3.787   1.792  20.863  0.00  0.00    +0.000 HD
ENDBRANCH  22  32
ENDBRANCH  18  25
ENDBRANCH   1  18
TORSDOF 9
ENDMDL
MODEL 7
REMARK VINA RESULT:      -7.3      3.157      4.898
REMARK  Name = 
REMARK  10 active torsions:
REMARK  status: ('A' for Active; 'I' for Inactive)
REMARK    1  A    between atoms: C_1  and  O_2
REMARK    2  A    between atoms: O_2  and  C_3
REMARK    3  A    between atoms: C_3  and  C_5
REMARK    4  A    between atoms: C_6  and  O_7
REMARK    5  A    between atoms: C_9  and  O_10
REMARK    6  A    between atoms: C_13  and  C_14
REMARK    7  A    between atoms: C_14  and  C_15
REMARK    8  A    between atoms: C_15  and  C_16
REMARK    9  A    between atoms: N_20  and  C_21
REMARK   10  A    between atoms: C_21  and  C_22
REMARK                            x       y       z     vdW  Elec       q    Type
REMARK                         _______ _______ _______ _____ _____    ______ ____
ROOT
ATOM      1  C   UNL     1       2.413   8.173  18.146  0.00  0.00    +0.000 C 
ENDROOT
BRANCH   1   2
ATOM      2  C   UNL     1       1.675   8.494  19.425  0.00  0.00    +0.000 A 
ATOM      3  N   UNL     1       1.803   7.807  20.547  0.00  0.00    +0.000 NA
ATOM      4  C   UNL     1       0.924   8.341  21.443  0.00  0.00    +0.000 A 
ATOM      5  C   UNL     1       0.253   9.395  20.883  0.00  0.00    +0.000 A 
ATOM      6  N   UNL     1       0.737   9.502  19.598  0.00  0.00    +0.000 N 
BRANCH   6   7
ATOM      7  C   UNL     1       0.326  10.562  18.674  0.00  0.00    +0.000 C 
BRANCH   7   8
ATOM      8  C   UNL     1      -1.131  10.538  18.234  0.00  0.00    +0.000 A 
ATOM      9  C   UNL     1      -1.534   9.768  17.126  0.00  0.00    +0.000 A 
ATOM     10  C   UNL     1      -2.846   9.797  16.664  0.00  0.00    +0.000 A 
ATOM     11  C   UNL     1      -3.790  10.591  17.302  0.00  0.00    +0.000 A 
ATOM     12  C   UNL     1      -3.447  11.356  18.423  0.00  0.00    +0.000 A 
ATOM     13  C   UNL     1      -4.432  12.148  19.032  0.00  0.00    +0.000 A 
ATOM     14  C   UNL     1      -4.132  12.941  20.144  0.00  0.00    +0.000 A 
ATOM     15  C   UNL     1      -2.847  12.920  20.663  0.00  0.00    +0.000 A 
ATOM     16  C   UNL     1      -1.855  12.127  20.068  0.00  0.00    +0.000 A 
ATOM     17  C   UNL     1      -2.115  11.333  18.920  0.00  0.00    +0.000 A 
ENDBRANCH   7   8
ENDBRANCH   6   7
ENDBRANCH   1   2
BRANCH   1  18
ATOM     18  C   UNL     1       2.273   6.674  17.777  0.00  0.00    +0.000 C 
BRANCH  18  25
ATOM     19  C   UNL     1       3.577   4.710  18.858  0.00  0.00    +0.000 A 
ATOM     20  C   UNL     1       4.690   3.837  18.851  0.00  0.00    +0.000 A 
ATOM     21  C   UNL     1       5.714   3.976  17.922  0.00  0.00    +0.000 A 
ATOM     22  C   UNL     1       5.668   5.033  17.026  0.00  0.00    +0.000 A 
ATOM     23  C   UNL     1       4.613   5.964  17.059  0.00  0.00    +0.000 A 
ATOM     24 CL   UNL     1       4.690   7.320  15.975  0.00  0.00    +0.000 Cl
ATOM     25  C   UNL     1       3.513   5.794  17.939  0.00  0.00    +0.000 A 
BRANCH  19  26
ATOM     26  C   UNL     1       2.510   4.373  19.832  0.00  0.00    +0.000 C 
ATOM     27  O   UNL     1       2.614   4.637  21.024  0.00  0.00    +0.000 OA
BRANCH  26  29
ATOM     28  C   UNL     1       1.118   2.531  19.443  0.00  0.00    +0.000 C 
ATOM     29  O   UNL     1       1.406   3.913  19.215  0.00  0.00    +0.000 OA
ENDBRANCH  26  29
ENDBRANCH  19  26
BRANCH  20  30
ATOM     30  O   UNL     1       4.866   2.805  19.741  0.00  0.00    +0.000 OA
ATOM     31  H   UNL     1       3.996   2.520  20.093  0.00  0.00    +0.000 HD
ENDBRANCH  20  30
BRANCH  22  32
ATOM     32  O   UNL     1       6.660   5.144  16.088  0.00  0.00    +0.000 OA
ATOM     33  H   UNL     1       6.736   6.075  15.819  0.00  0.00    +0.000 HD
ENDBRANCH  22  32
ENDBRANCH  18  25
ENDBRANCH   1  18
TORSDOF 9
ENDMDL
MODEL 8
REMARK VINA RESULT:      -7.3      3.384      7.696
REMARK  Name = 
REMARK  10 active torsions:
REMARK  status: ('A' for Active; 'I' for Inactive)
REMARK    1  A    between atoms: C_1  and  O_2
REMARK    2  A    between atoms: O_2  and  C_3
REMARK    3  A    between atoms: C_3  and  C_5
REMARK    4  A    between atoms: C_6  and  O_7
REMARK    5  A    between atoms: C_9  and  O_10
REMARK    6  A    between atoms: C_13  and  C_14
REMARK    7  A    between atoms: C_14  and  C_15
REMARK    8  A    between atoms: C_15  and  C_16
REMARK    9  A    between atoms: N_20  and  C_21
REMARK   10  A    between atoms: C_21  and  C_22
REMARK                            x       y       z     vdW  Elec       q    Type
REMARK                         _______ _______ _______ _____ _____    ______ ____
ROOT
ATOM      1  C   UNL     1       2.464   6.513  20.144  0.00  0.00    +0.000 C 
ENDROOT
BRANCH   1   2
ATOM      2  C   UNL     1       2.151   5.036  20.106  0.00  0.00    +0.000 A 
ATOM      3  N   UNL     1       1.521   4.386  21.071  0.00  0.00    +0.000 NA
ATOM      4  C   UNL     1       1.501   3.069  20.716  0.00  0.00    +0.000 A 
ATOM      5  C   UNL     1       2.104   2.893  19.500  0.00  0.00    +0.000 A 
ATOM      6  N   UNL     1       2.511   4.148  19.103  0.00  0.00    +0.000 N 
BRANCH   6   7
ATOM      7  C   UNL     1       3.141   4.412  17.807  0.00  0.00    +0.000 C 
BRANCH   7   8
ATOM      8  C   UNL     1       4.643   4.663  17.832  0.00  0.00    +0.000 A 
ATOM      9  C   UNL     1       5.296   4.992  19.036  0.00  0.00    +0.000 A 
ATOM     10  C   UNL     1       6.652   5.301  19.062  0.00  0.00    +0.000 A 
ATOM     11  C   UNL     1       7.392   5.281  17.887  0.00  0.00    +0.000 A 
ATOM     12  C   UNL     1       6.797   4.935  16.669  0.00  0.00    +0.000 A 
ATOM     13  C   UNL     1       7.582   4.934  15.505  0.00  0.00    +0.000 A 
ATOM     14  C   UNL     1       7.028   4.611  14.263  0.00  0.00    +0.000 A 
ATOM     15  C   UNL     1       5.687   4.262  14.190  0.00  0.00    +0.000 A 
ATOM     16  C   UNL     1       4.893   4.253  15.346  0.00  0.00    +0.000 A 
ATOM     17  C   UNL     1       5.414   4.605  16.619  0.00  0.00    +0.000 A 
ENDBRANCH   7   8
ENDBRANCH   6   7
ENDBRANCH   1   2
BRANCH   1  18
ATOM     18  C   UNL     1       1.246   7.334  20.640  0.00  0.00    +0.000 C 
BRANCH  18  25
ATOM     19  C   UNL     1       0.836   9.850  21.123  0.00  0.00    +0.000 A 
ATOM     20  C   UNL     1       0.938  11.200  20.715  0.00  0.00    +0.000 A 
ATOM     21  C   UNL     1       1.417  11.542  19.457  0.00  0.00    +0.000 A 
ATOM     22  C   UNL     1       1.741  10.532  18.564  0.00  0.00    +0.000 A 
ATOM     23  C   UNL     1       1.576   9.178  18.912  0.00  0.00    +0.000 A 
ATOM     24 CL   UNL     1       1.900   7.979  17.697  0.00  0.00    +0.000 Cl
ATOM     25  C   UNL     1       1.173   8.802  20.220  0.00  0.00    +0.000 A 
BRANCH  19  26
ATOM     26  C   UNL     1       0.416   9.639  22.530  0.00  0.00    +0.000 C 
ATOM     27  O   UNL     1       1.227   9.591  23.448  0.00  0.00    +0.000 OA
BRANCH  26  29
ATOM     28  C   UNL     1      -1.435  10.808  23.362  0.00  0.00    +0.000 C 
ATOM     29  O   UNL     1      -0.924   9.675  22.656  0.00  0.00    +0.000 OA
ENDBRANCH  26  29
ENDBRANCH  19  26
BRANCH  20  30
ATOM     30  O   UNL     1       0.576  12.271  21.496  0.00  0.00    +0.000 OA
ATOM     31  H   UNL     1       1.350  12.858  21.631  0.00  0.00    +0.000 HD
ENDBRANCH  20  30
BRANCH  22  32
ATOM     32  O   UNL     1       2.247  10.874  17.338  0.00  0.00    +0.000 OA
ATOM     33  H   UNL     1       2.784  11.679  17.433  0.00  0.00    +0.000 HD
ENDBRANCH  22  32
ENDBRANCH  18  25
ENDBRANCH   1  18
TORSDOF 9
ENDMDL
MODEL 9
REMARK VINA RESULT:      -7.3      2.924      4.559
REMARK  Name = 
REMARK  10 active torsions:
REMARK  status: ('A' for Active; 'I' for Inactive)
REMARK    1  A    between atoms: C_1  and  O_2
REMARK    2  A    between atoms: O_2  and  C_3
REMARK    3  A    between atoms: C_3  and  C_5
REMARK    4  A    between atoms: C_6  and  O_7
REMARK    5  A    between atoms: C_9  and  O_10
REMARK    6  A    between atoms: C_13  and  C_14
REMARK    7  A    between atoms: C_14  and  C_15
REMARK    8  A    between atoms: C_15  and  C_16
REMARK    9  A    between atoms: N_20  and  C_21
REMARK   10  A    between atoms: C_21  and  C_22
REMARK                            x       y       z     vdW  Elec       q    Type
REMARK                         _______ _______ _______ _____ _____    ______ ____
ROOT
ATOM      1  C   UNL     1       1.882   7.609  19.148  0.00  0.00    +0.000 C 
ENDROOT
BRANCH   1   2
ATOM      2  C   UNL     1       1.417   8.485  20.287  0.00  0.00    +0.000 A 
ATOM      3  N   UNL     1       1.517   8.155  21.564  0.00  0.00    +0.000 NA
ATOM      4  C   UNL     1       0.919   9.151  22.280  0.00  0.00    +0.000 A 
ATOM      5  C   UNL     1       0.459  10.132  21.442  0.00  0.00    +0.000 A 
ATOM      6  N   UNL     1       0.785   9.714  20.170  0.00  0.00    +0.000 N 
BRANCH   6   7
ATOM      7  C   UNL     1       0.531  10.522  18.973  0.00  0.00    +0.000 C 
BRANCH   7   8
ATOM      8  C   UNL     1      -0.893  10.488  18.434  0.00  0.00    +0.000 A 
ATOM      9  C   UNL     1      -1.216   9.706  17.308  0.00  0.00    +0.000 A 
ATOM     10  C   UNL     1      -2.493   9.725  16.756  0.00  0.00    +0.000 A 
ATOM     11  C   UNL     1      -3.481  10.521  17.321  0.00  0.00    +0.000 A 
ATOM     12  C   UNL     1      -3.219  11.297  18.455  0.00  0.00    +0.000 A 
ATOM     13  C   UNL     1      -4.247  12.091  18.988  0.00  0.00    +0.000 A 
ATOM     14  C   UNL     1      -4.027  12.895  20.110  0.00  0.00    +0.000 A 
ATOM     15  C   UNL     1      -2.780  12.884  20.717  0.00  0.00    +0.000 A 
ATOM     16  C   UNL     1      -1.747  12.090  20.199  0.00  0.00    +0.000 A 
ATOM     17  C   UNL     1      -1.924  11.285  19.043  0.00  0.00    +0.000 A 
ENDBRANCH   7   8
ENDBRANCH   6   7
ENDBRANCH   1   2
BRANCH   1  18
ATOM     18  C   UNL     1       2.784   6.456  19.656  0.00  0.00    +0.000 C 
BRANCH  18  25
ATOM     19  C   UNL     1       3.900   5.101  17.746  0.00  0.00    +0.000 A 
ATOM     20  C   UNL     1       4.070   3.876  17.061  0.00  0.00    +0.000 A 
ATOM     21  C   UNL     1       3.326   2.750  17.395  0.00  0.00    +0.000 A 
ATOM     22  C   UNL     1       2.355   2.855  18.379  0.00  0.00    +0.000 A 
ATOM     23  C   UNL     1       2.108   4.081  19.024  0.00  0.00    +0.000 A 
ATOM     24 CL   UNL     1       0.800   4.152  20.166  0.00  0.00    +0.000 Cl
ATOM     25  C   UNL     1       2.913   5.221  18.764  0.00  0.00    +0.000 A 
BRANCH  19  26
ATOM     26  C   UNL     1       4.839   6.183  17.359  0.00  0.00    +0.000 C 
ATOM     27  O   UNL     1       4.457   7.200  16.793  0.00  0.00    +0.000 OA
BRANCH  26  29
ATOM     28  C   UNL     1       7.063   6.911  17.437  0.00  0.00    +0.000 C 
ATOM     29  O   UNL     1       6.075   5.961  17.845  0.00  0.00    +0.000 OA
ENDBRANCH  26  29
ENDBRANCH  19  26
BRANCH  20  30
ATOM     30  O   UNL     1       4.953   3.687  16.025  0.00  0.00    +0.000 OA
ATOM     31  H   UNL     1       5.051   2.728  15.845  0.00  0.00    +0.000 HD
ENDBRANCH  20  30
BRANCH  22  32
ATOM     32  O   UNL     1       1.651   1.734  18.730  0.00  0.00    +0.000 OA
ATOM     33  H   UNL     1       2.276   1.040  19.000  0.00  0.00    +0.000 HD
ENDBRANCH  22  32
ENDBRANCH  18  25
ENDBRANCH   1  18
TORSDOF 9
ENDMDL
