MODEL 1
REMARK VINA RESULT:      -7.6      0.000      0.000
REMARK  Name = 
REMARK  10 active torsions:
REMARK  status: ('A' for Active; 'I' for Inactive)
REMARK    1  A    between atoms: C_1  and  O_2
REMARK    2  A    between atoms: O_2  and  C_3
REMARK    3  A    between atoms: C_6  and  C_7
REMARK    4  A    between atoms: C_7  and  C_8
REMARK    5  A    between atoms: C_8  and  N_9
REMARK    6  A    between atoms: C_10  and  C_12
REMARK    7  A    between atoms: C_12  and  N_13
REMARK    8  A    between atoms: N_16  and  C_17
REMARK    9  A    between atoms: C_27  and  O_28
REMARK   10  A    between atoms: O_28  and  C_29
REMARK                            x       y       z     vdW  Elec       q    Type
REMARK                         _______ _______ _______ _____ _____    ______ ____
ROOT
ATOM      1  N   UNL     1       7.931   8.917  17.751  0.00  0.00    +0.000 N 
ATOM      2  C   UNL     1       7.987   7.566  18.020  0.00  0.00    +0.000 C 
ATOM      3  O   UNL     1       8.591   7.115  18.995  0.00  0.00    +0.000 OA
ATOM      4  H   UNL     1       7.453   9.212  16.904  0.00  0.00    +0.000 HD
ENDROOT
BRANCH   1   5
ATOM      5  C   UNL     1       8.642   9.850  18.609  0.00  0.00    +0.000 C 
BRANCH   5   6
ATOM      6  C   UNL     1       9.611  10.785  17.884  0.00  0.00    +0.000 C 
BRANCH   6  10
ATOM      7  C   UNL     1       9.063  14.989  18.820  0.00  0.00    +0.000 A 
ATOM      8  C   UNL     1      10.092  14.240  19.420  0.00  0.00    +0.000 A 
ATOM      9  C   UNL     1      10.254  12.881  19.146  0.00  0.00    +0.000 A 
ATOM     10  C   UNL     1       9.367  12.224  18.295  0.00  0.00    +0.000 A 
ATOM     11  C   UNL     1       8.290  12.947  17.769  0.00  0.00    +0.000 A 
ATOM     12  C   UNL     1       8.116  14.322  18.027  0.00  0.00    +0.000 A 
BRANCH   7  14
ATOM     13  C   UNL     1       9.764  17.154  18.163  0.00  0.00    +0.000 C 
ATOM     14  O   UNL     1       8.966  16.338  19.023  0.00  0.00    +0.000 OA
ENDBRANCH   7  14
BRANCH  12  15
ATOM     15  O   UNL     1       7.005  14.829  17.404  0.00  0.00    +0.000 OA
ATOM     16  C   UNL     1       5.785  14.923  18.123  0.00  0.00    +0.000 C 
ENDBRANCH  12  15
ENDBRANCH   6  10
ENDBRANCH   5   6
ENDBRANCH   1   5
BRANCH   2  17
ATOM     17  C   UNL     1       7.207   6.633  17.086  0.00  0.00    +0.000 C 
BRANCH  17  18
ATOM     18  N   UNL     1       7.046   5.245  17.590  0.00  0.00    +0.000 NA
ATOM     19  C   UNL     1       6.420   5.189  18.937  0.00  0.00    +0.000 C 
ATOM     20  C   UNL     1       4.990   5.753  19.000  0.00  0.00    +0.000 C 
ATOM     21  N   UNL     1       4.119   5.023  18.071  0.00  0.00    +0.000 N 
ATOM     22  C   UNL     1       4.618   4.869  16.694  0.00  0.00    +0.000 C 
ATOM     23  C   UNL     1       6.135   4.494  16.664  0.00  0.00    +0.000 C 
BRANCH  21  24
ATOM     24  C   UNL     1       3.081   4.240  18.545  0.00  0.00    +0.000 A 
ATOM     25  C   UNL     1       2.038   3.837  17.697  0.00  0.00    +0.000 A 
ATOM     26  C   UNL     1       0.945   3.103  18.176  0.00  0.00    +0.000 A 
ATOM     27  C   UNL     1       0.880   2.744  19.520  0.00  0.00    +0.000 A 
ATOM     28  C   UNL     1       1.911   3.118  20.371  0.00  0.00    +0.000 A 
ATOM     29 CL   UNL     1       1.848   2.684  22.035  0.00  0.00    +0.000 Cl
ATOM     30  C   UNL     1       2.996   3.853  19.891  0.00  0.00    +0.000 A 
ENDBRANCH  21  24
ENDBRANCH  17  18
ENDBRANCH   2  17
TORSDOF 8
ENDMDL
MODEL 2
REMARK VINA RESULT:      -7.5      1.064      1.170
REMARK  Name = 
REMARK  10 active torsions:
REMARK  status: ('A' for Active; 'I' for Inactive)
REMARK    1  A    between atoms: C_1  and  O_2
REMARK    2  A    between atoms: O_2  and  C_3
REMARK    3  A    between atoms: C_6  and  C_7
REMARK    4  A    between atoms: C_7  and  C_8
REMARK    5  A    between atoms: C_8  and  N_9
REMARK    6  A    between atoms: C_10  and  C_12
REMARK    7  A    between atoms: C_12  and  N_13
REMARK    8  A    between atoms: N_16  and  C_17
REMARK    9  A    between atoms: C_27  and  O_28
REMARK   10  A    between atoms: O_28  and  C_29
REMARK                            x       y       z     vdW  Elec       q    Type
REMARK                         _______ _______ _______ _____ _____    ______ ____
ROOT
ATOM      1  N   UNL     1       8.017   9.392  17.757  0.00  0.00    +0.000 N 
ATOM      2  C   UNL     1       8.039   8.048  18.064  0.00  0.00    +0.000 C 
ATOM      3  O   UNL     1       8.696   7.599  19.006  0.00  0.00    +0.000 OA
ATOM      4  H   UNL     1       7.489   9.682  16.939  0.00  0.00    +0.000 HD
ENDROOT
BRANCH   1   5
ATOM      5  C   UNL     1       8.826  10.317  18.530  0.00  0.00    +0.000 C 
BRANCH   5   6
ATOM      6  C   UNL     1      10.050  10.873  17.799  0.00  0.00    +0.000 C 
BRANCH   6  10
ATOM      7  C   UNL     1      10.449  15.155  18.390  0.00  0.00    +0.000 A 
ATOM      8  C   UNL     1      11.554  14.368  18.020  0.00  0.00    +0.000 A 
ATOM      9  C   UNL     1      11.439  12.986  17.857  0.00  0.00    +0.000 A 
ATOM     10  C   UNL     1      10.224  12.349  18.101  0.00  0.00    +0.000 A 
ATOM     11  C   UNL     1       9.148  13.118  18.558  0.00  0.00    +0.000 A 
ATOM     12  C   UNL     1       9.243  14.516  18.717  0.00  0.00    +0.000 A 
BRANCH   7  14
ATOM     13  C   UNL     1      10.417  17.212  17.217  0.00  0.00    +0.000 C 
ATOM     14  O   UNL     1      10.549  16.518  18.459  0.00  0.00    +0.000 OA
ENDBRANCH   7  14
BRANCH  12  15
ATOM     15  O   UNL     1       8.070  15.067  19.163  0.00  0.00    +0.000 OA
ATOM     16  C   UNL     1       7.821  15.145  20.557  0.00  0.00    +0.000 C 
ENDBRANCH  12  15
ENDBRANCH   6  10
ENDBRANCH   5   6
ENDBRANCH   1   5
BRANCH   2  17
ATOM     17  C   UNL     1       7.154   7.122  17.220  0.00  0.00    +0.000 C 
BRANCH  17  18
ATOM     18  N   UNL     1       7.233   5.684  17.587  0.00  0.00    +0.000 NA
ATOM     19  C   UNL     1       6.640   5.397  18.919  0.00  0.00    +0.000 C 
ATOM     20  C   UNL     1       5.137   5.705  19.029  0.00  0.00    +0.000 C 
ATOM     21  N   UNL     1       4.390   4.932  18.030  0.00  0.00    +0.000 N 
ATOM     22  C   UNL     1       4.892   4.995  16.648  0.00  0.00    +0.000 C 
ATOM     23  C   UNL     1       6.450   4.884  16.589  0.00  0.00    +0.000 C 
BRANCH  21  24
ATOM     24  C   UNL     1       3.502   3.944  18.422  0.00  0.00    +0.000 A 
ATOM     25  C   UNL     1       2.962   3.049  17.486  0.00  0.00    +0.000 A 
ATOM     26  C   UNL     1       2.011   2.089  17.853  0.00  0.00    +0.000 A 
ATOM     27  C   UNL     1       1.587   1.996  19.177  0.00  0.00    +0.000 A 
ATOM     28  C   UNL     1       2.122   2.862  20.121  0.00  0.00    +0.000 A 
ATOM     29 CL   UNL     1       1.611   2.764  21.761  0.00  0.00    +0.000 Cl
ATOM     30  C   UNL     1       3.068   3.820  19.750  0.00  0.00    +0.000 A 
ENDBRANCH  21  24
ENDBRANCH  17  18
ENDBRANCH   2  17
TORSDOF 8
ENDMDL
MODEL 3
REMARK VINA RESULT:      -7.4      1.549      2.082
REMARK  Name = 
REMARK  10 active torsions:
REMARK  status: ('A' for Active; 'I' for Inactive)
REMARK    1  A    between atoms: C_1  and  O_2
REMARK    2  A    between atoms: O_2  and  C_3
REMARK    3  A    between atoms: C_6  and  C_7
REMARK    4  A    between atoms: C_7  and  C_8
REMARK    5  A    between atoms: C_8  and  N_9
REMARK    6  A    between atoms: C_10  and  C_12
REMARK    7  A    between atoms: C_12  and  N_13
REMARK    8  A    between atoms: N_16  and  C_17
REMARK    9  A    between atoms: C_27  and  O_28
REMARK   10  A    between atoms: O_28  and  C_29
REMARK                            x       y       z     vdW  Elec       q    Type
REMARK                         _______ _______ _______ _____ _____    ______ ____
ROOT
ATOM      1  N   UNL     1       7.873   8.755  17.352  0.00  0.00    +0.000 N 
ATOM      2  C   UNL     1       7.875   7.456  17.816  0.00  0.00    +0.000 C 
ATOM      3  O   UNL     1       8.362   7.148  18.905  0.00  0.00    +0.000 OA
ATOM      4  H   UNL     1       7.493   8.926  16.426  0.00  0.00    +0.000 HD
ENDROOT
BRANCH   1   5
ATOM      5  C   UNL     1       8.505   9.798  18.140  0.00  0.00    +0.000 C 
BRANCH   5   6
ATOM      6  C   UNL     1       8.204  11.226  17.682  0.00  0.00    +0.000 C 
BRANCH   6  10
ATOM      7  C   UNL     1      11.273  13.868  19.247  0.00  0.00    +0.000 A 
ATOM      8  C   UNL     1      10.826  12.758  19.986  0.00  0.00    +0.000 A 
ATOM      9  C   UNL     1       9.818  11.923  19.501  0.00  0.00    +0.000 A 
ATOM     10  C   UNL     1       9.202  12.198  18.282  0.00  0.00    +0.000 A 
ATOM     11  C   UNL     1       9.583  13.353  17.589  0.00  0.00    +0.000 A 
ATOM     12  C   UNL     1      10.606  14.202  18.058  0.00  0.00    +0.000 A 
BRANCH   7  14
ATOM     13  C   UNL     1      11.972  15.782  20.455  0.00  0.00    +0.000 C 
ATOM     14  O   UNL     1      12.322  14.629  19.687  0.00  0.00    +0.000 OA
ENDBRANCH   7  14
BRANCH  12  15
ATOM     15  O   UNL     1      10.822  15.265  17.220  0.00  0.00    +0.000 OA
ATOM     16  C   UNL     1      10.045  16.442  17.371  0.00  0.00    +0.000 C 
ENDBRANCH  12  15
ENDBRANCH   6  10
ENDBRANCH   5   6
ENDBRANCH   1   5
BRANCH   2  17
ATOM     17  C   UNL     1       7.180   6.401  16.946  0.00  0.00    +0.000 C 
BRANCH  17  18
ATOM     18  N   UNL     1       5.704   6.546  16.856  0.00  0.00    +0.000 NA
ATOM     19  C   UNL     1       5.051   5.385  16.198  0.00  0.00    +0.000 C 
ATOM     20  C   UNL     1       5.227   4.049  16.939  0.00  0.00    +0.000 C 
ATOM     21  N   UNL     1       4.689   4.153  18.300  0.00  0.00    +0.000 N 
ATOM     22  C   UNL     1       5.134   5.313  19.090  0.00  0.00    +0.000 C 
ATOM     23  C   UNL     1       5.138   6.626  18.243  0.00  0.00    +0.000 C 
BRANCH  21  24
ATOM     24  C   UNL     1       3.581   3.414  18.680  0.00  0.00    +0.000 A 
ATOM     25  C   UNL     1       2.797   2.750  17.724  0.00  0.00    +0.000 A 
ATOM     26  C   UNL     1       1.636   2.055  18.082  0.00  0.00    +0.000 A 
ATOM     27  C   UNL     1       1.239   1.999  19.417  0.00  0.00    +0.000 A 
ATOM     28  C   UNL     1       2.011   2.636  20.379  0.00  0.00    +0.000 A 
ATOM     29 CL   UNL     1       1.537   2.579  22.033  0.00  0.00    +0.000 Cl
ATOM     30  C   UNL     1       3.166   3.330  20.016  0.00  0.00    +0.000 A 
ENDBRANCH  21  24
ENDBRANCH  17  18
ENDBRANCH   2  17
TORSDOF 8
ENDMDL
MODEL 4
REMARK VINA RESULT:      -7.2      6.774     10.306
REMARK  Name = 
REMARK  10 active torsions:
REMARK  status: ('A' for Active; 'I' for Inactive)
REMARK    1  A    between atoms: C_1  and  O_2
REMARK    2  A    between atoms: O_2  and  C_3
REMARK    3  A    between atoms: C_6  and  C_7
REMARK    4  A    between atoms: C_7  and  C_8
REMARK    5  A    between atoms: C_8  and  N_9
REMARK    6  A    between atoms: C_10  and  C_12
REMARK    7  A    between atoms: C_12  and  N_13
REMARK    8  A    between atoms: N_16  and  C_17
REMARK    9  A    between atoms: C_27  and  O_28
REMARK   10  A    between atoms: O_28  and  C_29
REMARK                            x       y       z     vdW  Elec       q    Type
REMARK                         _______ _______ _______ _____ _____    ______ ____
ROOT
ATOM      1  N   UNL     1       1.478   8.324  19.260  0.00  0.00    +0.000 N 
ATOM      2  C   UNL     1       1.326   9.331  18.330  0.00  0.00    +0.000 C 
ATOM      3  O   UNL     1       2.106   9.479  17.388  0.00  0.00    +0.000 OA
ATOM      4  H   UNL     1       0.821   8.292  20.034  0.00  0.00    +0.000 HD
ENDROOT
BRANCH   1   5
ATOM      5  C   UNL     1       2.619   7.430  19.169  0.00  0.00    +0.000 C 
BRANCH   5   6
ATOM      6  C   UNL     1       2.349   6.110  18.444  0.00  0.00    +0.000 C 
BRANCH   6  10
ATOM      7  C   UNL     1       5.799   4.842  16.133  0.00  0.00    +0.000 A 
ATOM      8  C   UNL     1       4.792   3.929  16.494  0.00  0.00    +0.000 A 
ATOM      9  C   UNL     1       3.696   4.324  17.262  0.00  0.00    +0.000 A 
ATOM     10  C   UNL     1       3.597   5.635  17.725  0.00  0.00    +0.000 A 
ATOM     11  C   UNL     1       4.643   6.521  17.444  0.00  0.00    +0.000 A 
ATOM     12  C   UNL     1       5.753   6.142  16.661  0.00  0.00    +0.000 A 
BRANCH   7  14
ATOM     13  C   UNL     1       6.439   4.064  13.990  0.00  0.00    +0.000 C 
ATOM     14  O   UNL     1       6.823   4.469  15.306  0.00  0.00    +0.000 OA
ENDBRANCH   7  14
BRANCH  12  15
ATOM     15  O   UNL     1       6.649   7.167  16.503  0.00  0.00    +0.000 OA
ATOM     16  C   UNL     1       7.547   7.478  17.557  0.00  0.00    +0.000 C 
ENDBRANCH  12  15
ENDBRANCH   6  10
ENDBRANCH   5   6
ENDBRANCH   1   5
BRANCH   2  17
ATOM     17  C   UNL     1       0.095  10.235  18.472  0.00  0.00    +0.000 C 
BRANCH  17  18
ATOM     18  N   UNL     1       0.402  11.657  18.773  0.00  0.00    +0.000 NA
ATOM     19  C   UNL     1      -0.796  12.533  18.702  0.00  0.00    +0.000 C 
ATOM     20  C   UNL     1      -1.900  12.190  19.717  0.00  0.00    +0.000 C 
ATOM     21  N   UNL     1      -1.370  12.267  21.083  0.00  0.00    +0.000 N 
ATOM     22  C   UNL     1      -0.111  11.548  21.336  0.00  0.00    +0.000 C 
ATOM     23  C   UNL     1       0.920  11.755  20.178  0.00  0.00    +0.000 C 
BRANCH  21  24
ATOM     24  C   UNL     1      -1.831  13.230  21.965  0.00  0.00    +0.000 A 
ATOM     25  C   UNL     1      -1.122  13.529  23.138  0.00  0.00    +0.000 A 
ATOM     26  C   UNL     1      -1.609  14.450  24.074  0.00  0.00    +0.000 A 
ATOM     27  C   UNL     1      -2.818  15.104  23.847  0.00  0.00    +0.000 A 
ATOM     28  C   UNL     1      -3.525  14.834  22.684  0.00  0.00    +0.000 A 
ATOM     29 CL   UNL     1      -5.021  15.631  22.386  0.00  0.00    +0.000 Cl
ATOM     30  C   UNL     1      -3.038  13.912  21.755  0.00  0.00    +0.000 A 
ENDBRANCH  21  24
ENDBRANCH  17  18
ENDBRANCH   2  17
TORSDOF 8
ENDMDL
MODEL 5
REMARK VINA RESULT:      -7.2      4.356     11.000
REMARK  Name = 
REMARK  10 active torsions:
REMARK  status: ('A' for Active; 'I' for Inactive)
REMARK    1  A    between atoms: C_1  and  O_2
REMARK    2  A    between atoms: O_2  and  C_3
REMARK    3  A    between atoms: C_6  and  C_7
REMARK    4  A    between atoms: C_7  and  C_8
REMARK    5  A    between atoms: C_8  and  N_9
REMARK    6  A    between atoms: C_10  and  C_12
REMARK    7  A    between atoms: C_12  and  N_13
REMARK    8  A    between atoms: N_16  and  C_17
REMARK    9  A    between atoms: C_27  and  O_28
REMARK   10  A    between atoms: O_28  and  C_29
REMARK                            x       y       z     vdW  Elec       q    Type
REMARK                         _______ _______ _______ _____ _____    ______ ____
ROOT
ATOM      1  N   UNL     1       7.472   7.828  17.066  0.00  0.00    +0.000 N 
ATOM      2  C   UNL     1       8.166   8.343  18.141  0.00  0.00    +0.000 C 
ATOM      3  O   UNL     1       8.635   7.624  19.025  0.00  0.00    +0.000 OA
ATOM      4  H   UNL     1       7.076   8.485  16.399  0.00  0.00    +0.000 HD
ENDROOT
BRANCH   1   5
ATOM      5  C   UNL     1       7.236   6.397  16.983  0.00  0.00    +0.000 C 
BRANCH   5   6
ATOM      6  C   UNL     1       6.203   5.972  15.937  0.00  0.00    +0.000 C 
BRANCH   6  10
ATOM      7  C   UNL     1       2.766   4.474  18.125  0.00  0.00    +0.000 A 
ATOM      8  C   UNL     1       3.629   3.598  17.444  0.00  0.00    +0.000 A 
ATOM      9  C   UNL     1       4.719   4.076  16.714  0.00  0.00    +0.000 A 
ATOM     10  C   UNL     1       4.951   5.447  16.612  0.00  0.00    +0.000 A 
ATOM     11  C   UNL     1       4.040   6.323  17.213  0.00  0.00    +0.000 A 
ATOM     12  C   UNL     1       2.940   5.858  17.963  0.00  0.00    +0.000 A 
BRANCH   7  14
ATOM     13  C   UNL     1       1.261   2.698  18.563  0.00  0.00    +0.000 C 
ATOM     14  O   UNL     1       1.754   3.994  18.911  0.00  0.00    +0.000 OA
ENDBRANCH   7  14
BRANCH  12  15
ATOM     15  O   UNL     1       2.188   6.885  18.470  0.00  0.00    +0.000 OA
ATOM     16  C   UNL     1       2.289   7.211  19.848  0.00  0.00    +0.000 C 
ENDBRANCH  12  15
ENDBRANCH   6  10
ENDBRANCH   5   6
ENDBRANCH   1   5
BRANCH   2  17
ATOM     17  C   UNL     1       8.394   9.859  18.166  0.00  0.00    +0.000 C 
BRANCH  17  18
ATOM     18  N   UNL     1       9.707  10.279  18.721  0.00  0.00    +0.000 NA
ATOM     19  C   UNL     1      10.449  11.194  17.816  0.00  0.00    +0.000 C 
ATOM     20  C   UNL     1       9.741  12.532  17.539  0.00  0.00    +0.000 C 
ATOM     21  N   UNL     1       9.502  13.245  18.799  0.00  0.00    +0.000 N 
ATOM     22  C   UNL     1       8.868  12.470  19.878  0.00  0.00    +0.000 C 
ATOM     23  C   UNL     1       9.476  11.034  19.997  0.00  0.00    +0.000 C 
BRANCH  21  24
ATOM     24  C   UNL     1      10.144  14.443  19.064  0.00  0.00    +0.000 A 
ATOM     25  C   UNL     1      10.967  14.583  20.192  0.00  0.00    +0.000 A 
ATOM     26  C   UNL     1      11.570  15.806  20.512  0.00  0.00    +0.000 A 
ATOM     27  C   UNL     1      11.368  16.919  19.698  0.00  0.00    +0.000 A 
ATOM     28  C   UNL     1      10.571  16.795  18.568  0.00  0.00    +0.000 A 
ATOM     29 CL   UNL     1      10.310  18.157  17.550  0.00  0.00    +0.000 Cl
ATOM     30  C   UNL     1       9.970  15.575  18.255  0.00  0.00    +0.000 A 
ENDBRANCH  21  24
ENDBRANCH  17  18
ENDBRANCH   2  17
TORSDOF 8
ENDMDL
MODEL 6
REMARK VINA RESULT:      -7.2      6.540      8.259
REMARK  Name = 
REMARK  10 active torsions:
REMARK  status: ('A' for Active; 'I' for Inactive)
REMARK    1  A    between atoms: C_1  and  O_2
REMARK    2  A    between atoms: O_2  and  C_3
REMARK    3  A    between atoms: C_6  and  C_7
REMARK    4  A    between atoms: C_7  and  C_8
REMARK    5  A    between atoms: C_8  and  N_9
REMARK    6  A    between atoms: C_10  and  C_12
REMARK    7  A    between atoms: C_12  and  N_13
REMARK    8  A    between atoms: N_16  and  C_17
REMARK    9  A    between atoms: C_27  and  O_28
REMARK   10  A    between atoms: O_28  and  C_29
REMARK                            x       y       z     vdW  Elec       q    Type
REMARK                         _______ _______ _______ _____ _____    ______ ____
ROOT
ATOM      1  N   UNL     1       2.119   7.082  20.660  0.00  0.00    +0.000 N 
ATOM      2  C   UNL     1       2.044   5.714  20.499  0.00  0.00    +0.000 C 
ATOM      3  O   UNL     1       0.991   5.092  20.652  0.00  0.00    +0.000 OA
ATOM      4  H   UNL     1       3.031   7.520  20.561  0.00  0.00    +0.000 HD
ENDROOT
BRANCH   1   5
ATOM      5  C   UNL     1       0.939   7.822  21.068  0.00  0.00    +0.000 C 
BRANCH   5   6
ATOM      6  C   UNL     1       1.198   8.954  22.064  0.00  0.00    +0.000 C 
BRANCH   6  10
ATOM      7  C   UNL     1      -1.749  12.137  21.903  0.00  0.00    +0.000 A 
ATOM      8  C   UNL     1      -1.602  11.344  23.054  0.00  0.00    +0.000 A 
ATOM      9  C   UNL     1      -0.676  10.299  23.101  0.00  0.00    +0.000 A 
ATOM     10  C   UNL     1       0.098   9.994  21.984  0.00  0.00    +0.000 A 
ATOM     11  C   UNL     1      -0.113  10.724  20.808  0.00  0.00    +0.000 A 
ATOM     12  C   UNL     1      -1.036  11.789  20.745  0.00  0.00    +0.000 A 
BRANCH   7  14
ATOM     13  C   UNL     1      -2.128  14.370  22.595  0.00  0.00    +0.000 C 
ATOM     14  O   UNL     1      -2.593  13.214  21.895  0.00  0.00    +0.000 OA
ENDBRANCH   7  14
BRANCH  12  15
ATOM     15  O   UNL     1      -1.072  12.370  19.504  0.00  0.00    +0.000 OA
ATOM     16  C   UNL     1      -1.960  11.860  18.521  0.00  0.00    +0.000 C 
ENDBRANCH  12  15
ENDBRANCH   6  10
ENDBRANCH   5   6
ENDBRANCH   1   5
BRANCH   2  17
ATOM     17  C   UNL     1       3.320   4.989  20.055  0.00  0.00    +0.000 C 
BRANCH  17  18
ATOM     18  N   UNL     1       3.140   4.066  18.905  0.00  0.00    +0.000 NA
ATOM     19  C   UNL     1       2.891   4.780  17.626  0.00  0.00    +0.000 C 
ATOM     20  C   UNL     1       4.045   5.689  17.168  0.00  0.00    +0.000 C 
ATOM     21  N   UNL     1       5.274   4.904  17.010  0.00  0.00    +0.000 N 
ATOM     22  C   UNL     1       5.640   4.032  18.139  0.00  0.00    +0.000 C 
ATOM     23  C   UNL     1       4.400   3.274  18.715  0.00  0.00    +0.000 C 
BRANCH  21  24
ATOM     24  C   UNL     1       5.845   4.731  15.761  0.00  0.00    +0.000 A 
ATOM     25  C   UNL     1       7.135   5.210  15.487  0.00  0.00    +0.000 A 
ATOM     26  C   UNL     1       7.702   5.104  14.211  0.00  0.00    +0.000 A 
ATOM     27  C   UNL     1       6.988   4.501  13.178  0.00  0.00    +0.000 A 
ATOM     28  C   UNL     1       5.717   4.005  13.433  0.00  0.00    +0.000 A 
ATOM     29 CL   UNL     1       4.818   3.257  12.171  0.00  0.00    +0.000 Cl
ATOM     30  C   UNL     1       5.155   4.116  14.707  0.00  0.00    +0.000 A 
ENDBRANCH  21  24
ENDBRANCH  17  18
ENDBRANCH   2  17
TORSDOF 8
ENDMDL
MODEL 7
REMARK VINA RESULT:      -7.2      6.595     10.292
REMARK  Name = 
REMARK  10 active torsions:
REMARK  status: ('A' for Active; 'I' for Inactive)
REMARK    1  A    between atoms: C_1  and  O_2
REMARK    2  A    between atoms: O_2  and  C_3
REMARK    3  A    between atoms: C_6  and  C_7
REMARK    4  A    between atoms: C_7  and  C_8
REMARK    5  A    between atoms: C_8  and  N_9
REMARK    6  A    between atoms: C_10  and  C_12
REMARK    7  A    between atoms: C_12  and  N_13
REMARK    8  A    between atoms: N_16  and  C_17
REMARK    9  A    between atoms: C_27  and  O_28
REMARK   10  A    between atoms: O_28  and  C_29
REMARK                            x       y       z     vdW  Elec       q    Type
REMARK                         _______ _______ _______ _____ _____    ______ ____
ROOT
ATOM      1  N   UNL     1       1.691   6.462  20.911  0.00  0.00    +0.000 N 
ATOM      2  C   UNL     1       1.739   7.619  20.161  0.00  0.00    +0.000 C 
ATOM      3  O   UNL     1       2.539   7.770  19.236  0.00  0.00    +0.000 OA
ATOM      4  H   UNL     1       1.036   6.428  21.687  0.00  0.00    +0.000 HD
ENDROOT
BRANCH   1   5
ATOM      5  C   UNL     1       2.639   5.395  20.643  0.00  0.00    +0.000 C 
BRANCH   5   6
ATOM      6  C   UNL     1       2.310   4.527  19.428  0.00  0.00    +0.000 C 
BRANCH   6  10
ATOM      7  C   UNL     1       5.825   4.295  16.891  0.00  0.00    +0.000 A 
ATOM      8  C   UNL     1       4.543   4.027  16.380  0.00  0.00    +0.000 A 
ATOM      9  C   UNL     1       3.413   4.070  17.197  0.00  0.00    +0.000 A 
ATOM     10  C   UNL     1       3.538   4.344  18.558  0.00  0.00    +0.000 A 
ATOM     11  C   UNL     1       4.823   4.521  19.086  0.00  0.00    +0.000 A 
ATOM     12  C   UNL     1       5.975   4.491  18.273  0.00  0.00    +0.000 A 
BRANCH   7  14
ATOM     13  C   UNL     1       6.633   4.357  14.666  0.00  0.00    +0.000 C 
ATOM     14  O   UNL     1       6.916   4.339  16.066  0.00  0.00    +0.000 OA
ENDBRANCH   7  14
BRANCH  12  15
ATOM     15  O   UNL     1       7.122   4.698  18.994  0.00  0.00    +0.000 OA
ATOM     16  C   UNL     1       7.698   5.995  19.032  0.00  0.00    +0.000 C 
ENDBRANCH  12  15
ENDBRANCH   6  10
ENDBRANCH   5   6
ENDBRANCH   1   5
BRANCH   2  17
ATOM     17  C   UNL     1       0.705   8.705  20.482  0.00  0.00    +0.000 C 
BRANCH  17  18
ATOM     18  N   UNL     1       1.198   9.788  21.371  0.00  0.00    +0.000 NA
ATOM     19  C   UNL     1       0.832  11.144  20.885  0.00  0.00    +0.000 C 
ATOM     20  C   UNL     1      -0.681  11.410  20.815  0.00  0.00    +0.000 C 
ATOM     21  N   UNL     1      -1.286  11.231  22.140  0.00  0.00    +0.000 N 
ATOM     22  C   UNL     1      -0.953   9.983  22.846  0.00  0.00    +0.000 C 
ATOM     23  C   UNL     1       0.566   9.634  22.723  0.00  0.00    +0.000 C 
BRANCH  21  24
ATOM     24  C   UNL     1      -1.838  12.307  22.815  0.00  0.00    +0.000 A 
ATOM     25  C   UNL     1      -1.033  13.368  23.257  0.00  0.00    +0.000 A 
ATOM     26  C   UNL     1      -1.563  14.431  24.000  0.00  0.00    +0.000 A 
ATOM     27  C   UNL     1      -2.921  14.459  24.307  0.00  0.00    +0.000 A 
ATOM     28  C   UNL     1      -3.737  13.427  23.864  0.00  0.00    +0.000 A 
ATOM     29 CL   UNL     1      -5.418  13.443  24.233  0.00  0.00    +0.000 Cl
ATOM     30  C   UNL     1      -3.204  12.368  23.126  0.00  0.00    +0.000 A 
ENDBRANCH  21  24
ENDBRANCH  17  18
ENDBRANCH   2  17
TORSDOF 8
ENDMDL
MODEL 8
REMARK VINA RESULT:      -7.1      7.961     11.925
REMARK  Name = 
REMARK  10 active torsions:
REMARK  status: ('A' for Active; 'I' for Inactive)
REMARK    1  A    between atoms: C_1  and  O_2
REMARK    2  A    between atoms: O_2  and  C_3
REMARK    3  A    between atoms: C_6  and  C_7
REMARK    4  A    between atoms: C_7  and  C_8
REMARK    5  A    between atoms: C_8  and  N_9
REMARK    6  A    between atoms: C_10  and  C_12
REMARK    7  A    between atoms: C_12  and  N_13
REMARK    8  A    between atoms: N_16  and  C_17
REMARK    9  A    between atoms: C_27  and  O_28
REMARK   10  A    between atoms: O_28  and  C_29
REMARK                            x       y       z     vdW  Elec       q    Type
REMARK                         _______ _______ _______ _____ _____    ______ ____
ROOT
ATOM      1  N   UNL     1       1.035   9.499  18.929  0.00  0.00    +0.000 N 
ATOM      2  C   UNL     1      -0.180  10.144  18.837  0.00  0.00    +0.000 C 
ATOM      3  O   UNL     1      -0.851  10.138  17.803  0.00  0.00    +0.000 OA
ATOM      4  H   UNL     1       1.552   9.585  19.799  0.00  0.00    +0.000 HD
ENDROOT
BRANCH   1   5
ATOM      5  C   UNL     1       1.579   8.826  17.762  0.00  0.00    +0.000 C 
BRANCH   5   6
ATOM      6  C   UNL     1       2.820   7.971  18.030  0.00  0.00    +0.000 C 
BRANCH   6  10
ATOM      7  C   UNL     1       1.433   4.334  19.951  0.00  0.00    +0.000 A 
ATOM      8  C   UNL     1       1.740   5.480  20.705  0.00  0.00    +0.000 A 
ATOM      9  C   UNL     1       2.215   6.643  20.096  0.00  0.00    +0.000 A 
ATOM     10  C   UNL     1       2.434   6.677  18.720  0.00  0.00    +0.000 A 
ATOM     11  C   UNL     1       2.215   5.509  17.982  0.00  0.00    +0.000 A 
ATOM     12  C   UNL     1       1.725   4.329  18.578  0.00  0.00    +0.000 A 
BRANCH   7  14
ATOM     13  C   UNL     1       1.673   2.617  21.565  0.00  0.00    +0.000 C 
ATOM     14  O   UNL     1       0.883   3.230  20.543  0.00  0.00    +0.000 OA
ENDBRANCH   7  14
BRANCH  12  15
ATOM     15  O   UNL     1       1.575   3.313  17.670  0.00  0.00    +0.000 OA
ATOM     16  C   UNL     1       2.571   2.306  17.579  0.00  0.00    +0.000 C 
ENDBRANCH  12  15
ENDBRANCH   6  10
ENDBRANCH   5   6
ENDBRANCH   1   5
BRANCH   2  17
ATOM     17  C   UNL     1      -0.709  10.826  20.105  0.00  0.00    +0.000 C 
BRANCH  17  18
ATOM     18  N   UNL     1      -0.952  12.286  19.968  0.00  0.00    +0.000 NA
ATOM     19  C   UNL     1      -2.368  12.659  20.219  0.00  0.00    +0.000 C 
ATOM     20  C   UNL     1      -2.867  12.353  21.641  0.00  0.00    +0.000 C 
ATOM     21  N   UNL     1      -2.038  13.053  22.628  0.00  0.00    +0.000 N 
ATOM     22  C   UNL     1      -0.581  12.900  22.483  0.00  0.00    +0.000 C 
ATOM     23  C   UNL     1      -0.130  13.014  20.990  0.00  0.00    +0.000 C 
BRANCH  21  24
ATOM     24  C   UNL     1      -2.574  14.061  23.412  0.00  0.00    +0.000 A 
ATOM     25  C   UNL     1      -3.887  14.511  23.207  0.00  0.00    +0.000 A 
ATOM     26  C   UNL     1      -4.422  15.575  23.945  0.00  0.00    +0.000 A 
ATOM     27  C   UNL     1      -3.651  16.206  24.919  0.00  0.00    +0.000 A 
ATOM     28  C   UNL     1      -2.355  15.764  25.148  0.00  0.00    +0.000 A 
ATOM     29 CL   UNL     1      -1.387  16.531  26.347  0.00  0.00    +0.000 Cl
ATOM     30  C   UNL     1      -1.826  14.705  24.408  0.00  0.00    +0.000 A 
ENDBRANCH  21  24
ENDBRANCH  17  18
ENDBRANCH   2  17
TORSDOF 8
ENDMDL
MODEL 9
REMARK VINA RESULT:      -7.1      7.009     10.669
REMARK  Name = 
REMARK  10 active torsions:
REMARK  status: ('A' for Active; 'I' for Inactive)
REMARK    1  A    between atoms: C_1  and  O_2
REMARK    2  A    between atoms: O_2  and  C_3
REMARK    3  A    between atoms: C_6  and  C_7
REMARK    4  A    between atoms: C_7  and  C_8
REMARK    5  A    between atoms: C_8  and  N_9
REMARK    6  A    between atoms: C_10  and  C_12
REMARK    7  A    between atoms: C_12  and  N_13
REMARK    8  A    between atoms: N_16  and  C_17
REMARK    9  A    between atoms: C_27  and  O_28
REMARK   10  A    between atoms: O_28  and  C_29
REMARK                            x       y       z     vdW  Elec       q    Type
REMARK                         _______ _______ _______ _____ _____    ______ ____
ROOT
ATOM      1  N   UNL     1       2.074   9.638  18.289  0.00  0.00    +0.000 N 
ATOM      2  C   UNL     1       0.930  10.406  18.345  0.00  0.00    +0.000 C 
ATOM      3  O   UNL     1      -0.172   9.970  18.005  0.00  0.00    +0.000 OA
ATOM      4  H   UNL     1       2.953  10.079  18.543  0.00  0.00    +0.000 HD
ENDROOT
BRANCH   1   5
ATOM      5  C   UNL     1       2.003   8.283  17.770  0.00  0.00    +0.000 C 
BRANCH   5   6
ATOM      6  C   UNL     1       2.709   7.227  18.623  0.00  0.00    +0.000 C 
BRANCH   6  10
ATOM      7  C   UNL     1       5.281   4.573  16.346  0.00  0.00    +0.000 A 
ATOM      8  C   UNL     1       5.358   5.969  16.189  0.00  0.00    +0.000 A 
ATOM      9  C   UNL     1       4.513   6.825  16.896  0.00  0.00    +0.000 A 
ATOM     10  C   UNL     1       3.540   6.308  17.749  0.00  0.00    +0.000 A 
ATOM     11  C   UNL     1       3.402   4.918  17.836  0.00  0.00    +0.000 A 
ATOM     12  C   UNL     1       4.254   4.037  17.138  0.00  0.00    +0.000 A 
BRANCH   7  14
ATOM     13  C   UNL     1       6.229   3.861  14.295  0.00  0.00    +0.000 C 
ATOM     14  O   UNL     1       6.172   3.745  15.718  0.00  0.00    +0.000 OA
ENDBRANCH   7  14
BRANCH  12  15
ATOM     15  O   UNL     1       3.948   2.723  17.377  0.00  0.00    +0.000 OA
ATOM     16  C   UNL     1       2.639   2.377  17.801  0.00  0.00    +0.000 C 
ENDBRANCH  12  15
ENDBRANCH   6  10
ENDBRANCH   5   6
ENDBRANCH   1   5
BRANCH   2  17
ATOM     17  C   UNL     1       1.066  11.823  18.913  0.00  0.00    +0.000 C 
BRANCH  17  18
ATOM     18  N   UNL     1       1.297  11.883  20.380  0.00  0.00    +0.000 NA
ATOM     19  C   UNL     1       1.161  13.257  20.929  0.00  0.00    +0.000 C 
ATOM     20  C   UNL     1      -0.239  13.873  20.770  0.00  0.00    +0.000 C 
ATOM     21  N   UNL     1      -1.240  13.027  21.429  0.00  0.00    +0.000 N 
ATOM     22  C   UNL     1      -1.201  11.593  21.100  0.00  0.00    +0.000 C 
ATOM     23  C   UNL     1       0.263  11.043  21.070  0.00  0.00    +0.000 C 
BRANCH  21  24
ATOM     24  C   UNL     1      -1.932  13.486  22.538  0.00  0.00    +0.000 A 
ATOM     25  C   UNL     1      -1.570  14.688  23.165  0.00  0.00    +0.000 A 
ATOM     26  C   UNL     1      -2.214  15.132  24.327  0.00  0.00    +0.000 A 
ATOM     27  C   UNL     1      -3.249  14.382  24.881  0.00  0.00    +0.000 A 
ATOM     28  C   UNL     1      -3.632  13.198  24.266  0.00  0.00    +0.000 A 
ATOM     29 CL   UNL     1      -4.908  12.257  24.936  0.00  0.00    +0.000 Cl
ATOM     30  C   UNL     1      -2.985  12.758  23.110  0.00  0.00    +0.000 A 
ENDBRANCH  21  24
ENDBRANCH  17  18
ENDBRANCH   2  17
TORSDOF 8
ENDMDL
