MODEL 1
REMARK VINA RESULT:      -8.2      0.000      0.000
REMARK  Name = 
REMARK  8 active torsions:
REMARK  status: ('A' for Active; 'I' for Inactive)
REMARK    1  A    between atoms: C_1  and  C_2
REMARK    2  A    between atoms: C_2  and  C_4
REMARK    3  A    between atoms: C_7  and  N_8
REMARK    4  A    between atoms: C_9  and  C_11
REMARK    5  A    between atoms: C_11  and  N_12
REMARK    6  A    between atoms: C_17  and  C_18
REMARK    7  A    between atoms: C_21  and  C_22
REMARK    8  A    between atoms: C_23  and  C_24
REMARK                            x       y       z     vdW  Elec       q    Type
REMARK                         _______ _______ _______ _____ _____    ______ ____
ROOT
ATOM      1  N   UNL     1       0.274  11.367  20.484  0.00  0.00    +0.000 N 
ATOM      2  N   UNL     1       0.605  11.217  19.149  0.00  0.00    +0.000 NA
ATOM      3  C   UNL     1       1.120  10.025  19.100  0.00  0.00    +0.000 A 
ATOM      4  C   UNL     1       1.669   9.345  17.928  0.00  0.00    +0.000 A 
ATOM      5  C   UNL     1       2.149   8.105  18.091  0.00  0.00    +0.000 A 
ATOM      6  C   UNL     1       2.105   7.507  19.461  0.00  0.00    +0.000 A 
ATOM      7  N   UNL     1       1.608   8.109  20.501  0.00  0.00    +0.000 NA
ATOM      8  N   UNL     1       1.134   9.359  20.276  0.00  0.00    +0.000 N 
ATOM      9  C   UNL     1       0.593  10.205  21.222  0.00  0.00    +0.000 A 
ATOM     10  O   UNL     1       0.424  10.036  22.416  0.00  0.00    +0.000 OA
ENDROOT
BRANCH   6  11
ATOM     11  C   UNL     1       2.651   6.131  19.624  0.00  0.00    +0.000 A 
ATOM     12  C   UNL     1       3.764   5.762  18.866  0.00  0.00    +0.000 A 
ATOM     13  C   UNL     1       4.289   4.474  18.970  0.00  0.00    +0.000 A 
ATOM     14  C   UNL     1       3.704   3.524  19.822  0.00  0.00    +0.000 A 
ATOM     15  C   UNL     1       4.306   2.147  19.891  0.00  0.00    +0.000 C 
ATOM     16  C   UNL     1       2.568   3.882  20.574  0.00  0.00    +0.000 A 
ATOM     17  C   UNL     1       1.849   2.923  21.485  0.00  0.00    +0.000 C 
ATOM     18  C   UNL     1       2.055   5.189  20.471  0.00  0.00    +0.000 A 
ENDBRANCH   6  11
BRANCH   1  19
ATOM     19  C   UNL     1      -0.238  12.587  21.049  0.00  0.00    +0.000 C 
BRANCH  19  21
ATOM     20  N   UNL     1       1.673  13.800  20.104  0.00  0.00    +0.000 N 
ATOM     21  C   UNL     1       0.831  13.660  21.199  0.00  0.00    +0.000 C 
ATOM     22  O   UNL     1       0.967  14.219  22.288  0.00  0.00    +0.000 OA
ATOM     23  H   UNL     1       1.464  13.201  19.310  0.00  0.00    +0.000 HD
BRANCH  20  27
ATOM     24  C   UNL     1       4.882  16.548  19.752  0.00  0.00    +0.000 A 
ATOM     25  C   UNL     1       5.047  15.373  20.481  0.00  0.00    +0.000 A 
ATOM     26  C   UNL     1       3.996  14.463  20.597  0.00  0.00    +0.000 A 
ATOM     27  C   UNL     1       2.762  14.693  19.988  0.00  0.00    +0.000 A 
ATOM     28  C   UNL     1       2.598  15.867  19.241  0.00  0.00    +0.000 A 
ATOM     29  C   UNL     1       3.653  16.790  19.125  0.00  0.00    +0.000 A 
BRANCH  24  31
ATOM     30  C   UNL     1       6.167  18.558  20.739  0.00  0.00    +0.000 C 
ATOM     31  C   UNL     1       5.990  17.543  19.634  0.00  0.00    +0.000 C 
ATOM     32  O   UNL     1       6.735  17.520  18.658  0.00  0.00    +0.000 OA
ENDBRANCH  24  31
ENDBRANCH  20  27
ENDBRANCH  19  21
ENDBRANCH   1  19
TORSDOF 5
ENDMDL
MODEL 2
REMARK VINA RESULT:      -8.2      0.895      1.224
REMARK  Name = 
REMARK  8 active torsions:
REMARK  status: ('A' for Active; 'I' for Inactive)
REMARK    1  A    between atoms: C_1  and  C_2
REMARK    2  A    between atoms: C_2  and  C_4
REMARK    3  A    between atoms: C_7  and  N_8
REMARK    4  A    between atoms: C_9  and  C_11
REMARK    5  A    between atoms: C_11  and  N_12
REMARK    6  A    between atoms: C_17  and  C_18
REMARK    7  A    between atoms: C_21  and  C_22
REMARK    8  A    between atoms: C_23  and  C_24
REMARK                            x       y       z     vdW  Elec       q    Type
REMARK                         _______ _______ _______ _____ _____    ______ ____
ROOT
ATOM      1  N   UNL     1       0.458  11.438  20.259  0.00  0.00    +0.000 N 
ATOM      2  N   UNL     1       0.700  11.184  18.921  0.00  0.00    +0.000 NA
ATOM      3  C   UNL     1       1.182   9.978  18.927  0.00  0.00    +0.000 A 
ATOM      4  C   UNL     1       1.639   9.201  17.775  0.00  0.00    +0.000 A 
ATOM      5  C   UNL     1       2.099   7.963  17.998  0.00  0.00    +0.000 A 
ATOM      6  C   UNL     1       2.128   7.465  19.408  0.00  0.00    +0.000 A 
ATOM      7  N   UNL     1       1.711   8.153  20.430  0.00  0.00    +0.000 NA
ATOM      8  N   UNL     1       1.255   9.397  20.145  0.00  0.00    +0.000 N 
ATOM      9  C   UNL     1       0.795  10.323  21.059  0.00  0.00    +0.000 A 
ATOM     10  O   UNL     1       0.697  10.243  22.270  0.00  0.00    +0.000 OA
ENDROOT
BRANCH   6  11
ATOM     11  C   UNL     1       2.650   6.089  19.636  0.00  0.00    +0.000 A 
ATOM     12  C   UNL     1       3.800   5.691  18.951  0.00  0.00    +0.000 A 
ATOM     13  C   UNL     1       4.305   4.402  19.118  0.00  0.00    +0.000 A 
ATOM     14  C   UNL     1       3.664   3.479  19.960  0.00  0.00    +0.000 A 
ATOM     15  C   UNL     1       4.247   2.099  20.097  0.00  0.00    +0.000 C 
ATOM     16  C   UNL     1       2.491   3.866  20.637  0.00  0.00    +0.000 A 
ATOM     17  C   UNL     1       1.713   2.937  21.530  0.00  0.00    +0.000 C 
ATOM     18  C   UNL     1       1.998   5.174  20.472  0.00  0.00    +0.000 A 
ENDBRANCH   6  11
BRANCH   1  19
ATOM     19  C   UNL     1       0.012  12.709  20.765  0.00  0.00    +0.000 C 
BRANCH  19  21
ATOM     20  N   UNL     1       2.249  13.441  20.072  0.00  0.00    +0.000 N 
ATOM     21  C   UNL     1       0.969  13.844  20.431  0.00  0.00    +0.000 C 
ATOM     22  O   UNL     1       0.608  15.005  20.623  0.00  0.00    +0.000 OA
ATOM     23  H   UNL     1       2.397  12.435  20.035  0.00  0.00    +0.000 HD
BRANCH  20  27
ATOM     24  C   UNL     1       5.550  15.938  19.161  0.00  0.00    +0.000 A 
ATOM     25  C   UNL     1       4.790  15.386  18.134  0.00  0.00    +0.000 A 
ATOM     26  C   UNL     1       3.699  14.566  18.427  0.00  0.00    +0.000 A 
ATOM     27  C   UNL     1       3.335  14.282  19.744  0.00  0.00    +0.000 A 
ATOM     28  C   UNL     1       4.089  14.849  20.779  0.00  0.00    +0.000 A 
ATOM     29  C   UNL     1       5.192  15.671  20.489  0.00  0.00    +0.000 A 
BRANCH  24  31
ATOM     30  C   UNL     1       7.883  16.204  18.088  0.00  0.00    +0.000 C 
ATOM     31  C   UNL     1       6.734  16.800  18.865  0.00  0.00    +0.000 C 
ATOM     32  O   UNL     1       6.753  17.967  19.247  0.00  0.00    +0.000 OA
ENDBRANCH  24  31
ENDBRANCH  20  27
ENDBRANCH  19  21
ENDBRANCH   1  19
TORSDOF 5
ENDMDL
MODEL 3
REMARK VINA RESULT:      -8.0      0.575      1.667
REMARK  Name = 
REMARK  8 active torsions:
REMARK  status: ('A' for Active; 'I' for Inactive)
REMARK    1  A    between atoms: C_1  and  C_2
REMARK    2  A    between atoms: C_2  and  C_4
REMARK    3  A    between atoms: C_7  and  N_8
REMARK    4  A    between atoms: C_9  and  C_11
REMARK    5  A    between atoms: C_11  and  N_12
REMARK    6  A    between atoms: C_17  and  C_18
REMARK    7  A    between atoms: C_21  and  C_22
REMARK    8  A    between atoms: C_23  and  C_24
REMARK                            x       y       z     vdW  Elec       q    Type
REMARK                         _______ _______ _______ _____ _____    ______ ____
ROOT
ATOM      1  N   UNL     1       0.197  11.369  20.684  0.00  0.00    +0.000 N 
ATOM      2  N   UNL     1       0.423  11.258  19.323  0.00  0.00    +0.000 NA
ATOM      3  C   UNL     1       0.974  10.087  19.206  0.00  0.00    +0.000 A 
ATOM      4  C   UNL     1       1.448   9.450  17.978  0.00  0.00    +0.000 A 
ATOM      5  C   UNL     1       1.984   8.227  18.073  0.00  0.00    +0.000 A 
ATOM      6  C   UNL     1       2.073   7.600  19.429  0.00  0.00    +0.000 A 
ATOM      7  N   UNL     1       1.641   8.163  20.519  0.00  0.00    +0.000 NA
ATOM      8  N   UNL     1       1.107   9.399  20.362  0.00  0.00    +0.000 N 
ATOM      9  C   UNL     1       0.616  10.206  21.368  0.00  0.00    +0.000 A 
ATOM     10  O   UNL     1       0.552  10.007  22.567  0.00  0.00    +0.000 OA
ENDROOT
BRANCH   6  11
ATOM     11  C   UNL     1       2.679   6.242  19.516  0.00  0.00    +0.000 A 
ATOM     12  C   UNL     1       2.036   5.275  20.292  0.00  0.00    +0.000 A 
ATOM     13  C   UNL     1       2.586   4.000  20.421  0.00  0.00    +0.000 A 
ATOM     14  C   UNL     1       3.796   3.669  19.790  0.00  0.00    +0.000 A 
ATOM     15  C   UNL     1       4.348   2.281  19.968  0.00  0.00    +0.000 C 
ATOM     16  C   UNL     1       4.461   4.646  19.023  0.00  0.00    +0.000 A 
ATOM     17  C   UNL     1       5.780   4.399  18.342  0.00  0.00    +0.000 C 
ATOM     18  C   UNL     1       3.890   5.926  18.890  0.00  0.00    +0.000 A 
ENDBRANCH   6  11
BRANCH   1  19
ATOM     19  C   UNL     1      -0.309  12.558  21.317  0.00  0.00    +0.000 C 
BRANCH  19  21
ATOM     20  N   UNL     1       1.552  13.766  20.269  0.00  0.00    +0.000 N 
ATOM     21  C   UNL     1       0.722  13.676  21.379  0.00  0.00    +0.000 C 
ATOM     22  O   UNL     1       0.844  14.318  22.423  0.00  0.00    +0.000 OA
ATOM     23  H   UNL     1       1.359  13.103  19.522  0.00  0.00    +0.000 HD
BRANCH  20  27
ATOM     24  C   UNL     1       4.777  16.459  19.712  0.00  0.00    +0.000 A 
ATOM     25  C   UNL     1       3.562  16.685  19.071  0.00  0.00    +0.000 A 
ATOM     26  C   UNL     1       2.495  15.804  19.253  0.00  0.00    +0.000 A 
ATOM     27  C   UNL     1       2.607  14.686  20.080  0.00  0.00    +0.000 A 
ATOM     28  C   UNL     1       3.824  14.465  20.738  0.00  0.00    +0.000 A 
ATOM     29  C   UNL     1       4.904  15.346  20.553  0.00  0.00    +0.000 A 
BRANCH  24  31
ATOM     30  C   UNL     1       7.101  16.901  18.678  0.00  0.00    +0.000 C 
ATOM     31  C   UNL     1       5.936  17.380  19.511  0.00  0.00    +0.000 C 
ATOM     32  O   UNL     1       5.924  18.501  20.014  0.00  0.00    +0.000 OA
ENDBRANCH  24  31
ENDBRANCH  20  27
ENDBRANCH  19  21
ENDBRANCH   1  19
TORSDOF 5
ENDMDL
MODEL 4
REMARK VINA RESULT:      -7.8      3.511      6.582
REMARK  Name = 
REMARK  8 active torsions:
REMARK  status: ('A' for Active; 'I' for Inactive)
REMARK    1  A    between atoms: C_1  and  C_2
REMARK    2  A    between atoms: C_2  and  C_4
REMARK    3  A    between atoms: C_7  and  N_8
REMARK    4  A    between atoms: C_9  and  C_11
REMARK    5  A    between atoms: C_11  and  N_12
REMARK    6  A    between atoms: C_17  and  C_18
REMARK    7  A    between atoms: C_21  and  C_22
REMARK    8  A    between atoms: C_23  and  C_24
REMARK                            x       y       z     vdW  Elec       q    Type
REMARK                         _______ _______ _______ _____ _____    ______ ____
ROOT
ATOM      1  N   UNL     1       0.725  11.921  20.678  0.00  0.00    +0.000 N 
ATOM      2  N   UNL     1       0.980  11.858  19.320  0.00  0.00    +0.000 NA
ATOM      3  C   UNL     1       1.305  10.614  19.133  0.00  0.00    +0.000 A 
ATOM      4  C   UNL     1       1.701   9.982  17.875  0.00  0.00    +0.000 A 
ATOM      5  C   UNL     1       1.992   8.675  17.896  0.00  0.00    +0.000 A 
ATOM      6  C   UNL     1       1.907   7.954  19.205  0.00  0.00    +0.000 A 
ATOM      7  N   UNL     1       1.546   8.517  20.321  0.00  0.00    +0.000 NA
ATOM      8  N   UNL     1       1.260   9.839  20.239  0.00  0.00    +0.000 N 
ATOM      9  C   UNL     1       0.890  10.657  21.287  0.00  0.00    +0.000 A 
ATOM     10  O   UNL     1       0.740  10.395  22.467  0.00  0.00    +0.000 OA
ENDROOT
BRANCH   6  11
ATOM     11  C   UNL     1       2.243   6.504  19.210  0.00  0.00    +0.000 A 
ATOM     12  C   UNL     1       2.001   5.769  20.372  0.00  0.00    +0.000 A 
ATOM     13  C   UNL     1       2.326   4.413  20.426  0.00  0.00    +0.000 A 
ATOM     14  C   UNL     1       2.913   3.768  19.326  0.00  0.00    +0.000 A 
ATOM     15  C   UNL     1       3.251   2.307  19.440  0.00  0.00    +0.000 C 
ATOM     16  C   UNL     1       3.180   4.508  18.157  0.00  0.00    +0.000 A 
ATOM     17  C   UNL     1       3.840   3.916  16.941  0.00  0.00    +0.000 C 
ATOM     18  C   UNL     1       2.835   5.873  18.110  0.00  0.00    +0.000 A 
ENDBRANCH   6  11
BRANCH   1  19
ATOM     19  C   UNL     1       0.426  13.140  21.381  0.00  0.00    +0.000 C 
BRANCH  19  21
ATOM     20  N   UNL     1      -2.019  13.174  21.576  0.00  0.00    +0.000 N 
ATOM     21  C   UNL     1      -0.816  13.028  22.254  0.00  0.00    +0.000 C 
ATOM     22  O   UNL     1      -0.682  12.957  23.476  0.00  0.00    +0.000 OA
ATOM     23  H   UNL     1      -1.943  13.302  20.570  0.00  0.00    +0.000 HD
BRANCH  20  27
ATOM     24  C   UNL     1      -5.921  13.017  23.224  0.00  0.00    +0.000 A 
ATOM     25  C   UNL     1      -4.859  13.484  23.992  0.00  0.00    +0.000 A 
ATOM     26  C   UNL     1      -3.572  13.543  23.454  0.00  0.00    +0.000 A 
ATOM     27  C   UNL     1      -3.313  13.145  22.142  0.00  0.00    +0.000 A 
ATOM     28  C   UNL     1      -4.383  12.689  21.362  0.00  0.00    +0.000 A 
ATOM     29  C   UNL     1      -5.680  12.623  21.901  0.00  0.00    +0.000 A 
BRANCH  24  31
ATOM     30  C   UNL     1      -7.911  14.169  24.398  0.00  0.00    +0.000 C 
ATOM     31  C   UNL     1      -7.300  12.928  23.790  0.00  0.00    +0.000 C 
ATOM     32  O   UNL     1      -7.913  11.865  23.750  0.00  0.00    +0.000 OA
ENDBRANCH  24  31
ENDBRANCH  20  27
ENDBRANCH  19  21
ENDBRANCH   1  19
TORSDOF 5
ENDMDL
MODEL 5
REMARK VINA RESULT:      -7.7      5.245      9.739
REMARK  Name = 
REMARK  8 active torsions:
REMARK  status: ('A' for Active; 'I' for Inactive)
REMARK    1  A    between atoms: C_1  and  C_2
REMARK    2  A    between atoms: C_2  and  C_4
REMARK    3  A    between atoms: C_7  and  N_8
REMARK    4  A    between atoms: C_9  and  C_11
REMARK    5  A    between atoms: C_11  and  N_12
REMARK    6  A    between atoms: C_17  and  C_18
REMARK    7  A    between atoms: C_21  and  C_22
REMARK    8  A    between atoms: C_23  and  C_24
REMARK                            x       y       z     vdW  Elec       q    Type
REMARK                         _______ _______ _______ _____ _____    ______ ____
ROOT
ATOM      1  N   UNL     1       3.075   5.002  19.558  0.00  0.00    +0.000 N 
ATOM      2  N   UNL     1       3.174   5.974  18.578  0.00  0.00    +0.000 NA
ATOM      3  C   UNL     1       2.472   6.956  19.060  0.00  0.00    +0.000 A 
ATOM      4  C   UNL     1       2.210   8.249  18.429  0.00  0.00    +0.000 A 
ATOM      5  C   UNL     1       1.462   9.133  19.101  0.00  0.00    +0.000 A 
ATOM      6  C   UNL     1       0.935   8.734  20.444  0.00  0.00    +0.000 A 
ATOM      7  N   UNL     1       1.178   7.588  21.007  0.00  0.00    +0.000 NA
ATOM      8  N   UNL     1       1.941   6.735  20.283  0.00  0.00    +0.000 N 
ATOM      9  C   UNL     1       2.304   5.455  20.651  0.00  0.00    +0.000 A 
ATOM     10  O   UNL     1       2.037   4.828  21.660  0.00  0.00    +0.000 OA
ENDROOT
BRANCH   6  11
ATOM     11  C   UNL     1       0.098   9.728  21.173  0.00  0.00    +0.000 A 
ATOM     12  C   UNL     1      -0.151   9.519  22.531  0.00  0.00    +0.000 A 
ATOM     13  C   UNL     1      -0.951  10.412  23.243  0.00  0.00    +0.000 A 
ATOM     14  C   UNL     1      -1.532  11.523  22.610  0.00  0.00    +0.000 A 
ATOM     15  C   UNL     1      -2.394  12.450  23.423  0.00  0.00    +0.000 C 
ATOM     16  C   UNL     1      -1.303  11.728  21.235  0.00  0.00    +0.000 A 
ATOM     17  C   UNL     1      -1.912  12.866  20.461  0.00  0.00    +0.000 C 
ATOM     18  C   UNL     1      -0.482  10.827  20.530  0.00  0.00    +0.000 A 
ENDBRANCH   6  11
BRANCH   1  19
ATOM     19  C   UNL     1       3.610   3.673  19.423  0.00  0.00    +0.000 C 
BRANCH  19  21
ATOM     20  N   UNL     1       4.977   4.444  17.537  0.00  0.00    +0.000 N 
ATOM     21  C   UNL     1       4.198   3.412  18.043  0.00  0.00    +0.000 C 
ATOM     22  O   UNL     1       3.849   2.404  17.427  0.00  0.00    +0.000 OA
ATOM     23  H   UNL     1       5.102   5.243  18.154  0.00  0.00    +0.000 HD
BRANCH  20  27
ATOM     24  C   UNL     1       6.807   4.563  13.715  0.00  0.00    +0.000 A 
ATOM     25  C   UNL     1       7.532   4.925  14.847  0.00  0.00    +0.000 A 
ATOM     26  C   UNL     1       6.937   4.883  16.108  0.00  0.00    +0.000 A 
ATOM     27  C   UNL     1       5.613   4.477  16.276  0.00  0.00    +0.000 A 
ATOM     28  C   UNL     1       4.885   4.098  15.140  0.00  0.00    +0.000 A 
ATOM     29  C   UNL     1       5.479   4.143  13.867  0.00  0.00    +0.000 A 
BRANCH  24  31
ATOM     30  C   UNL     1       8.207   5.853  11.972  0.00  0.00    +0.000 C 
ATOM     31  C   UNL     1       7.422   4.621  12.355  0.00  0.00    +0.000 C 
ATOM     32  O   UNL     1       7.287   3.678  11.580  0.00  0.00    +0.000 OA
ENDBRANCH  24  31
ENDBRANCH  20  27
ENDBRANCH  19  21
ENDBRANCH   1  19
TORSDOF 5
ENDMDL
MODEL 6
REMARK VINA RESULT:      -7.7      3.742      6.748
REMARK  Name = 
REMARK  8 active torsions:
REMARK  status: ('A' for Active; 'I' for Inactive)
REMARK    1  A    between atoms: C_1  and  C_2
REMARK    2  A    between atoms: C_2  and  C_4
REMARK    3  A    between atoms: C_7  and  N_8
REMARK    4  A    between atoms: C_9  and  C_11
REMARK    5  A    between atoms: C_11  and  N_12
REMARK    6  A    between atoms: C_17  and  C_18
REMARK    7  A    between atoms: C_21  and  C_22
REMARK    8  A    between atoms: C_23  and  C_24
REMARK                            x       y       z     vdW  Elec       q    Type
REMARK                         _______ _______ _______ _____ _____    ______ ____
ROOT
ATOM      1  N   UNL     1       0.079  12.116  19.911  0.00  0.00    +0.000 N 
ATOM      2  N   UNL     1       0.150  11.666  21.217  0.00  0.00    +0.000 NA
ATOM      3  C   UNL     1       0.608  10.456  21.092  0.00  0.00    +0.000 A 
ATOM      4  C   UNL     1       0.863   9.491  22.161  0.00  0.00    +0.000 A 
ATOM      5  C   UNL     1       1.346   8.290  21.818  0.00  0.00    +0.000 A 
ATOM      6  C   UNL     1       1.579   8.012  20.367  0.00  0.00    +0.000 A 
ATOM      7  N   UNL     1       1.361   8.875  19.419  0.00  0.00    +0.000 NA
ATOM      8  N   UNL     1       0.876  10.073  19.824  0.00  0.00    +0.000 N 
ATOM      9  C   UNL     1       0.535  11.132  19.006  0.00  0.00    +0.000 A 
ATOM     10  O   UNL     1       0.590  11.230  17.794  0.00  0.00    +0.000 OA
ENDROOT
BRANCH   6  11
ATOM     11  C   UNL     1       2.109   6.669  20.005  0.00  0.00    +0.000 A 
ATOM     12  C   UNL     1       2.961   6.564  18.903  0.00  0.00    +0.000 A 
ATOM     13  C   UNL     1       3.458   5.320  18.515  0.00  0.00    +0.000 A 
ATOM     14  C   UNL     1       3.101   4.153  19.210  0.00  0.00    +0.000 A 
ATOM     15  C   UNL     1       3.658   2.835  18.744  0.00  0.00    +0.000 C 
ATOM     16  C   UNL     1       2.225   4.248  20.309  0.00  0.00    +0.000 A 
ATOM     17  C   UNL     1       1.755   3.051  21.092  0.00  0.00    +0.000 C 
ATOM     18  C   UNL     1       1.741   5.511  20.699  0.00  0.00    +0.000 A 
ENDBRANCH   6  11
BRANCH   1  19
ATOM     19  C   UNL     1      -0.480  13.386  19.531  0.00  0.00    +0.000 C 
BRANCH  19  21
ATOM     20  N   UNL     1      -2.552  12.738  20.675  0.00  0.00    +0.000 N 
ATOM     21  C   UNL     1      -1.681  13.779  20.381  0.00  0.00    +0.000 C 
ATOM     22  O   UNL     1      -1.872  14.969  20.630  0.00  0.00    +0.000 OA
ATOM     23  H   UNL     1      -2.276  11.823  20.325  0.00  0.00    +0.000 HD
BRANCH  20  27
ATOM     24  C   UNL     1      -6.108  13.054  22.960  0.00  0.00    +0.000 A 
ATOM     25  C   UNL     1      -6.174  13.014  21.570  0.00  0.00    +0.000 A 
ATOM     26  C   UNL     1      -5.007  12.906  20.812  0.00  0.00    +0.000 A 
ATOM     27  C   UNL     1      -3.751  12.828  21.415  0.00  0.00    +0.000 A 
ATOM     28  C   UNL     1      -3.684  12.852  22.815  0.00  0.00    +0.000 A 
ATOM     29  C   UNL     1      -4.856  12.966  23.582  0.00  0.00    +0.000 A 
BRANCH  24  31
ATOM     30  C   UNL     1      -7.880  14.576  24.059  0.00  0.00    +0.000 C 
ATOM     31  C   UNL     1      -7.346  13.190  23.785  0.00  0.00    +0.000 C 
ATOM     32  O   UNL     1      -7.907  12.188  24.220  0.00  0.00    +0.000 OA
ENDBRANCH  24  31
ENDBRANCH  20  27
ENDBRANCH  19  21
ENDBRANCH   1  19
TORSDOF 5
ENDMDL
MODEL 7
REMARK VINA RESULT:      -7.6      3.779      9.707
REMARK  Name = 
REMARK  8 active torsions:
REMARK  status: ('A' for Active; 'I' for Inactive)
REMARK    1  A    between atoms: C_1  and  C_2
REMARK    2  A    between atoms: C_2  and  C_4
REMARK    3  A    between atoms: C_7  and  N_8
REMARK    4  A    between atoms: C_9  and  C_11
REMARK    5  A    between atoms: C_11  and  N_12
REMARK    6  A    between atoms: C_17  and  C_18
REMARK    7  A    between atoms: C_21  and  C_22
REMARK    8  A    between atoms: C_23  and  C_24
REMARK                            x       y       z     vdW  Elec       q    Type
REMARK                         _______ _______ _______ _____ _____    ______ ____
ROOT
ATOM      1  N   UNL     1       1.704   6.835  20.372  0.00  0.00    +0.000 N 
ATOM      2  N   UNL     1       0.893   7.222  21.424  0.00  0.00    +0.000 NA
ATOM      3  C   UNL     1       0.693   8.486  21.198  0.00  0.00    +0.000 A 
ATOM      4  C   UNL     1      -0.084   9.419  22.014  0.00  0.00    +0.000 A 
ATOM      5  C   UNL     1      -0.173  10.689  21.598  0.00  0.00    +0.000 A 
ATOM      6  C   UNL     1       0.537  11.070  20.338  0.00  0.00    +0.000 A 
ATOM      7  N   UNL     1       1.219  10.237  19.609  0.00  0.00    +0.000 NA
ATOM      8  N   UNL     1       1.272   8.966  20.076  0.00  0.00    +0.000 N 
ATOM      9  C   UNL     1       1.959   7.916  19.499  0.00  0.00    +0.000 A 
ATOM     10  O   UNL     1       2.639   7.889  18.490  0.00  0.00    +0.000 OA
ENDROOT
BRANCH   6  11
ATOM     11  C   UNL     1       0.433  12.489  19.896  0.00  0.00    +0.000 A 
ATOM     12  C   UNL     1      -0.799  13.136  20.021  0.00  0.00    +0.000 A 
ATOM     13  C   UNL     1      -0.944  14.456  19.594  0.00  0.00    +0.000 A 
ATOM     14  C   UNL     1       0.132  15.151  19.020  0.00  0.00    +0.000 A 
ATOM     15  C   UNL     1      -0.081  16.570  18.569  0.00  0.00    +0.000 C 
ATOM     16  C   UNL     1       1.371  14.497  18.871  0.00  0.00    +0.000 A 
ATOM     17  C   UNL     1       2.572  15.145  18.234  0.00  0.00    +0.000 C 
ATOM     18  C   UNL     1       1.510  13.170  19.318  0.00  0.00    +0.000 A 
ENDBRANCH   6  11
BRANCH   1  19
ATOM     19  C   UNL     1       2.284   5.524  20.249  0.00  0.00    +0.000 C 
BRANCH  19  21
ATOM     20  N   UNL     1       4.067   5.447  18.566  0.00  0.00    +0.000 N 
ATOM     21  C   UNL     1       2.725   5.206  18.827  0.00  0.00    +0.000 C 
ATOM     22  O   UNL     1       1.873   4.899  17.993  0.00  0.00    +0.000 OA
ATOM     23  H   UNL     1       4.617   5.772  19.357  0.00  0.00    +0.000 HD
BRANCH  20  27
ATOM     24  C   UNL     1       6.020   4.829  14.855  0.00  0.00    +0.000 A 
ATOM     25  C   UNL     1       5.601   6.106  15.218  0.00  0.00    +0.000 A 
ATOM     26  C   UNL     1       4.961   6.317  16.440  0.00  0.00    +0.000 A 
ATOM     27  C   UNL     1       4.729   5.268  17.331  0.00  0.00    +0.000 A 
ATOM     28  C   UNL     1       5.164   3.985  16.975  0.00  0.00    +0.000 A 
ATOM     29  C   UNL     1       5.805   3.766  15.742  0.00  0.00    +0.000 A 
BRANCH  24  31
ATOM     30  C   UNL     1       6.161   3.472  12.663  0.00  0.00    +0.000 C 
ATOM     31  C   UNL     1       6.688   4.582  13.542  0.00  0.00    +0.000 C 
ATOM     32  O   UNL     1       7.639   5.278  13.196  0.00  0.00    +0.000 OA
ENDBRANCH  24  31
ENDBRANCH  20  27
ENDBRANCH  19  21
ENDBRANCH   1  19
TORSDOF 5
ENDMDL
MODEL 8
REMARK VINA RESULT:      -7.6      4.073     10.340
REMARK  Name = 
REMARK  8 active torsions:
REMARK  status: ('A' for Active; 'I' for Inactive)
REMARK    1  A    between atoms: C_1  and  C_2
REMARK    2  A    between atoms: C_2  and  C_4
REMARK    3  A    between atoms: C_7  and  N_8
REMARK    4  A    between atoms: C_9  and  C_11
REMARK    5  A    between atoms: C_11  and  N_12
REMARK    6  A    between atoms: C_17  and  C_18
REMARK    7  A    between atoms: C_21  and  C_22
REMARK    8  A    between atoms: C_23  and  C_24
REMARK                            x       y       z     vdW  Elec       q    Type
REMARK                         _______ _______ _______ _____ _____    ______ ____
ROOT
ATOM      1  N   UNL     1       0.540  11.076  19.550  0.00  0.00    +0.000 N 
ATOM      2  N   UNL     1       0.583  10.639  20.862  0.00  0.00    +0.000 NA
ATOM      3  C   UNL     1      -0.469  11.187  21.395  0.00  0.00    +0.000 A 
ATOM      4  C   UNL     1      -0.913  11.085  22.784  0.00  0.00    +0.000 A 
ATOM      5  C   UNL     1      -2.036  11.726  23.131  0.00  0.00    +0.000 A 
ATOM      6  C   UNL     1      -2.753  12.513  22.079  0.00  0.00    +0.000 A 
ATOM      7  N   UNL     1      -2.362  12.594  20.841  0.00  0.00    +0.000 NA
ATOM      8  N   UNL     1      -1.221  11.924  20.547  0.00  0.00    +0.000 N 
ATOM      9  C   UNL     1      -0.593  11.888  19.319  0.00  0.00    +0.000 A 
ATOM     10  O   UNL     1      -0.901  12.421  18.268  0.00  0.00    +0.000 OA
ENDROOT
BRANCH   6  11
ATOM     11  C   UNL     1      -3.996  13.225  22.485  0.00  0.00    +0.000 A 
ATOM     12  C   UNL     1      -5.218  12.765  21.991  0.00  0.00    +0.000 A 
ATOM     13  C   UNL     1      -6.403  13.420  22.327  0.00  0.00    +0.000 A 
ATOM     14  C   UNL     1      -6.389  14.558  23.150  0.00  0.00    +0.000 A 
ATOM     15  C   UNL     1      -7.694  15.232  23.474  0.00  0.00    +0.000 C 
ATOM     16  C   UNL     1      -5.157  15.041  23.634  0.00  0.00    +0.000 A 
ATOM     17  C   UNL     1      -5.036  16.273  24.490  0.00  0.00    +0.000 C 
ATOM     18  C   UNL     1      -3.969  14.363  23.300  0.00  0.00    +0.000 A 
ENDBRANCH   6  11
BRANCH   1  19
ATOM     19  C   UNL     1       1.573  10.810  18.584  0.00  0.00    +0.000 C 
BRANCH  19  21
ATOM     20  N   UNL     1       1.957   8.567  19.501  0.00  0.00    +0.000 N 
ATOM     21  C   UNL     1       1.789   9.322  18.347  0.00  0.00    +0.000 C 
ATOM     22  O   UNL     1       1.934   8.916  17.194  0.00  0.00    +0.000 OA
ATOM     23  H   UNL     1       1.880   9.080  20.376  0.00  0.00    +0.000 HD
BRANCH  20  27
ATOM     24  C   UNL     1       2.612   4.386  19.742  0.00  0.00    +0.000 A 
ATOM     25  C   UNL     1       3.188   5.124  18.711  0.00  0.00    +0.000 A 
ATOM     26  C   UNL     1       2.980   6.501  18.629  0.00  0.00    +0.000 A 
ATOM     27  C   UNL     1       2.202   7.178  19.568  0.00  0.00    +0.000 A 
ATOM     28  C   UNL     1       1.633   6.440  20.615  0.00  0.00    +0.000 A 
ATOM     29  C   UNL     1       1.836   5.052  20.700  0.00  0.00    +0.000 A 
BRANCH  24  31
ATOM     30  C   UNL     1       2.123   2.027  18.817  0.00  0.00    +0.000 C 
ATOM     31  C   UNL     1       2.808   2.908  19.834  0.00  0.00    +0.000 C 
ATOM     32  O   UNL     1       3.517   2.437  20.718  0.00  0.00    +0.000 OA
ENDBRANCH  24  31
ENDBRANCH  20  27
ENDBRANCH  19  21
ENDBRANCH   1  19
TORSDOF 5
ENDMDL
MODEL 9
REMARK VINA RESULT:      -7.5      3.823      9.676
REMARK  Name = 
REMARK  8 active torsions:
REMARK  status: ('A' for Active; 'I' for Inactive)
REMARK    1  A    between atoms: C_1  and  C_2
REMARK    2  A    between atoms: C_2  and  C_4
REMARK    3  A    between atoms: C_7  and  N_8
REMARK    4  A    between atoms: C_9  and  C_11
REMARK    5  A    between atoms: C_11  and  N_12
REMARK    6  A    between atoms: C_17  and  C_18
REMARK    7  A    between atoms: C_21  and  C_22
REMARK    8  A    between atoms: C_23  and  C_24
REMARK                            x       y       z     vdW  Elec       q    Type
REMARK                         _______ _______ _______ _____ _____    ______ ____
ROOT
ATOM      1  N   UNL     1       1.722   6.889  20.436  0.00  0.00    +0.000 N 
ATOM      2  N   UNL     1       0.851   7.221  21.459  0.00  0.00    +0.000 NA
ATOM      3  C   UNL     1       0.578   8.470  21.226  0.00  0.00    +0.000 A 
ATOM      4  C   UNL     1      -0.286   9.349  22.013  0.00  0.00    +0.000 A 
ATOM      5  C   UNL     1      -0.442  10.612  21.595  0.00  0.00    +0.000 A 
ATOM      6  C   UNL     1       0.287  11.040  20.360  0.00  0.00    +0.000 A 
ATOM      7  N   UNL     1       1.046  10.254  19.655  0.00  0.00    +0.000 NA
ATOM      8  N   UNL     1       1.165   8.988  20.125  0.00  0.00    +0.000 N 
ATOM      9  C   UNL     1       1.937   7.986  19.573  0.00  0.00    +0.000 A 
ATOM     10  O   UNL     1       2.653   8.004  18.588  0.00  0.00    +0.000 OA
ENDROOT
BRANCH   6  11
ATOM     11  C   UNL     1       0.107  12.450  19.914  0.00  0.00    +0.000 A 
ATOM     12  C   UNL     1       1.022  12.982  19.003  0.00  0.00    +0.000 A 
ATOM     13  C   UNL     1       0.903  14.306  18.582  0.00  0.00    +0.000 A 
ATOM     14  C   UNL     1      -0.122  15.130  19.073  0.00  0.00    +0.000 A 
ATOM     15  C   UNL     1      -0.198  16.553  18.592  0.00  0.00    +0.000 C 
ATOM     16  C   UNL     1      -1.035  14.607  20.009  0.00  0.00    +0.000 A 
ATOM     17  C   UNL     1      -2.143  15.422  20.622  0.00  0.00    +0.000 C 
ATOM     18  C   UNL     1      -0.914  13.265  20.417  0.00  0.00    +0.000 A 
ENDBRANCH   6  11
BRANCH   1  19
ATOM     19  C   UNL     1       2.389   5.618  20.335  0.00  0.00    +0.000 C 
BRANCH  19  21
ATOM     20  N   UNL     1       4.125   5.396  18.616  0.00  0.00    +0.000 N 
ATOM     21  C   UNL     1       2.773   5.267  18.904  0.00  0.00    +0.000 C 
ATOM     22  O   UNL     1       1.882   5.035  18.087  0.00  0.00    +0.000 OA
ATOM     23  H   UNL     1       4.716   5.673  19.397  0.00  0.00    +0.000 HD
BRANCH  20  27
ATOM     24  C   UNL     1       6.016   4.790  14.871  0.00  0.00    +0.000 A 
ATOM     25  C   UNL     1       5.873   3.728  15.759  0.00  0.00    +0.000 A 
ATOM     26  C   UNL     1       5.247   3.920  16.992  0.00  0.00    +0.000 A 
ATOM     27  C   UNL     1       4.745   5.166  17.368  0.00  0.00    +0.000 A 
ATOM     28  C   UNL     1       4.875   6.233  16.469  0.00  0.00    +0.000 A 
ATOM     29  C   UNL     1       5.508   6.046  15.228  0.00  0.00    +0.000 A 
BRANCH  24  31
ATOM     30  C   UNL     1       6.192   3.535  12.622  0.00  0.00    +0.000 C 
ATOM     31  C   UNL     1       6.701   4.607  13.556  0.00  0.00    +0.000 C 
ATOM     32  O   UNL     1       7.652   5.323  13.255  0.00  0.00    +0.000 OA
ENDBRANCH  24  31
ENDBRANCH  20  27
ENDBRANCH  19  21
ENDBRANCH   1  19
TORSDOF 5
ENDMDL
