MODEL 1
REMARK VINA RESULT:      -8.6      0.000      0.000
REMARK  Name = 
REMARK  6 active torsions:
REMARK  status: ('A' for Active; 'I' for Inactive)
REMARK    1  A    between atoms: C_1  and  C_2
REMARK    2  A    between atoms: C_2  and  C_3
REMARK    3  A    between atoms: C_9  and  C_10
REMARK    4  A    between atoms: C_11  and  O_12
REMARK    5  A    between atoms: C_13  and  C_14
REMARK    6  A    between atoms: C_14  and  N_15
REMARK                            x       y       z     vdW  Elec       q    Type
REMARK                         _______ _______ _______ _____ _____    ______ ____
ROOT
ATOM      1  C   UNL     1       6.094   4.015  13.402  0.00  0.00    +0.000 A 
ATOM      2  C   UNL     1       7.135   4.631  12.822  0.00  0.00    +0.000 A 
ATOM      3  C   UNL     1       8.076   5.491  13.552  0.00  0.00    +0.000 A 
ATOM      4  O   UNL     1       9.031   6.000  12.983  0.00  0.00    +0.000 OA
ATOM      5  O   UNL     1       7.800   5.712  14.890  0.00  0.00    +0.000 OA
ATOM      6  C   UNL     1       6.704   5.105  15.545  0.00  0.00    +0.000 A 
ATOM      7  C   UNL     1       6.497   5.438  16.897  0.00  0.00    +0.000 A 
ATOM      8  C   UNL     1       7.400   6.413  17.602  0.00  0.00    +0.000 C 
ATOM      9  C   UNL     1       5.393   4.859  17.547  0.00  0.00    +0.000 A 
ATOM     10  C   UNL     1       4.545   3.961  16.878  0.00  0.00    +0.000 A 
ATOM     11  C   UNL     1       4.819   3.630  15.540  0.00  0.00    +0.000 A 
ATOM     12  C   UNL     1       5.871   4.223  14.841  0.00  0.00    +0.000 A 
ENDROOT
BRANCH   1  14
ATOM     13  C   UNL     1       5.801   2.248  11.616  0.00  0.00    +0.000 C 
ATOM     14  C   UNL     1       5.116   3.215  12.570  0.00  0.00    +0.000 C 
ENDBRANCH   1  14
BRANCH   9  15
ATOM     15  O   UNL     1       5.091   5.159  18.847  0.00  0.00    +0.000 OA
ATOM     16  H   UNL     1       4.144   5.336  18.939  0.00  0.00    +0.000 HD
ENDBRANCH   9  15
BRANCH  10  17
ATOM     17  C   UNL     1       3.276   3.418  17.503  0.00  0.00    +0.000 C 
BRANCH  17  18
ATOM     18  N   UNL     1       3.078   3.763  18.937  0.00  0.00    +0.000 NA
ATOM     19  C   UNL     1       1.752   4.384  19.109  0.00  0.00    +0.000 C 
ATOM     20  C   UNL     1       1.271   4.466  20.559  0.00  0.00    +0.000 C 
ATOM     21  C   UNL     1       1.340   3.105  21.234  0.00  0.00    +0.000 C 
ATOM     22  C   UNL     1       2.767   2.592  21.167  0.00  0.00    +0.000 C 
ATOM     23  C   UNL     1       3.259   2.528  19.722  0.00  0.00    +0.000 C 
ENDBRANCH  17  18
ENDBRANCH  10  17
TORSDOF 4
ENDMDL
MODEL 2
REMARK VINA RESULT:      -7.6      3.642      7.438
REMARK  Name = 
REMARK  6 active torsions:
REMARK  status: ('A' for Active; 'I' for Inactive)
REMARK    1  A    between atoms: C_1  and  C_2
REMARK    2  A    between atoms: C_2  and  C_3
REMARK    3  A    between atoms: C_9  and  C_10
REMARK    4  A    between atoms: C_11  and  O_12
REMARK    5  A    between atoms: C_13  and  C_14
REMARK    6  A    between atoms: C_14  and  N_15
REMARK                            x       y       z     vdW  Elec       q    Type
REMARK                         _______ _______ _______ _____ _____    ______ ____
ROOT
ATOM      1  C   UNL     1       1.747   8.879  19.073  0.00  0.00    +0.000 A 
ATOM      2  C   UNL     1       0.940   9.234  20.084  0.00  0.00    +0.000 A 
ATOM      3  C   UNL     1       0.616   8.350  21.211  0.00  0.00    +0.000 A 
ATOM      4  O   UNL     1      -0.096   8.736  22.127  0.00  0.00    +0.000 OA
ATOM      5  O   UNL     1       1.131   7.066  21.156  0.00  0.00    +0.000 OA
ATOM      6  C   UNL     1       1.969   6.633  20.103  0.00  0.00    +0.000 A 
ATOM      7  C   UNL     1       2.397   5.292  20.130  0.00  0.00    +0.000 A 
ATOM      8  C   UNL     1       1.962   4.362  21.230  0.00  0.00    +0.000 C 
ATOM      9  C   UNL     1       3.209   4.848  19.072  0.00  0.00    +0.000 A 
ATOM     10  C   UNL     1       3.599   5.718  18.040  0.00  0.00    +0.000 A 
ATOM     11  C   UNL     1       3.177   7.059  18.081  0.00  0.00    +0.000 A 
ATOM     12  C   UNL     1       2.327   7.527  19.083  0.00  0.00    +0.000 A 
ENDROOT
BRANCH   1  14
ATOM     13  C   UNL     1       1.860  11.279  18.285  0.00  0.00    +0.000 C 
ATOM     14  C   UNL     1       1.965   9.811  17.902  0.00  0.00    +0.000 C 
ENDBRANCH   1  14
BRANCH   9  15
ATOM     15  O   UNL     1       3.636   3.551  18.995  0.00  0.00    +0.000 OA
ATOM     16  H   UNL     1       3.641   3.147  19.875  0.00  0.00    +0.000 HD
ENDBRANCH   9  15
BRANCH  10  17
ATOM     17  C   UNL     1       4.363   5.246  16.820  0.00  0.00    +0.000 C 
BRANCH  17  18
ATOM     18  N   UNL     1       5.825   5.525  16.841  0.00  0.00    +0.000 NA
ATOM     19  C   UNL     1       6.043   6.959  17.102  0.00  0.00    +0.000 C 
ATOM     20  C   UNL     1       7.475   7.322  17.500  0.00  0.00    +0.000 C 
ATOM     21  C   UNL     1       7.953   6.466  18.662  0.00  0.00    +0.000 C 
ATOM     22  C   UNL     1       7.856   5.003  18.270  0.00  0.00    +0.000 C 
ATOM     23  C   UNL     1       6.432   4.640  17.853  0.00  0.00    +0.000 C 
ENDBRANCH  17  18
ENDBRANCH  10  17
TORSDOF 4
ENDMDL
MODEL 3
REMARK VINA RESULT:      -7.6      0.974      1.584
REMARK  Name = 
REMARK  6 active torsions:
REMARK  status: ('A' for Active; 'I' for Inactive)
REMARK    1  A    between atoms: C_1  and  C_2
REMARK    2  A    between atoms: C_2  and  C_3
REMARK    3  A    between atoms: C_9  and  C_10
REMARK    4  A    between atoms: C_11  and  O_12
REMARK    5  A    between atoms: C_13  and  C_14
REMARK    6  A    between atoms: C_14  and  N_15
REMARK                            x       y       z     vdW  Elec       q    Type
REMARK                         _______ _______ _______ _____ _____    ______ ____
ROOT
ATOM      1  C   UNL     1       5.955   4.029  13.697  0.00  0.00    +0.000 A 
ATOM      2  C   UNL     1       6.927   4.707  13.069  0.00  0.00    +0.000 A 
ATOM      3  C   UNL     1       7.953   5.488  13.771  0.00  0.00    +0.000 A 
ATOM      4  O   UNL     1       8.841   6.058  13.152  0.00  0.00    +0.000 OA
ATOM      5  O   UNL     1       7.837   5.565  15.148  0.00  0.00    +0.000 OA
ATOM      6  C   UNL     1       6.819   4.887  15.858  0.00  0.00    +0.000 A 
ATOM      7  C   UNL     1       6.773   5.073  17.253  0.00  0.00    +0.000 A 
ATOM      8  C   UNL     1       7.761   5.971  17.947  0.00  0.00    +0.000 C 
ATOM      9  C   UNL     1       5.747   4.425  17.961  0.00  0.00    +0.000 A 
ATOM     10  C   UNL     1       4.819   3.600  17.304  0.00  0.00    +0.000 A 
ATOM     11  C   UNL     1       4.934   3.414  15.916  0.00  0.00    +0.000 A 
ATOM     12  C   UNL     1       5.903   4.082  15.166  0.00  0.00    +0.000 A 
ENDROOT
BRANCH   1  14
ATOM     13  C   UNL     1       5.432   2.554  11.710  0.00  0.00    +0.000 C 
ATOM     14  C   UNL     1       4.880   3.318  12.905  0.00  0.00    +0.000 C 
ENDBRANCH   1  14
BRANCH   9  15
ATOM     15  O   UNL     1       5.601   4.583  19.312  0.00  0.00    +0.000 OA
ATOM     16  H   UNL     1       5.159   5.423  19.505  0.00  0.00    +0.000 HD
ENDBRANCH   9  15
BRANCH  10  17
ATOM     17  C   UNL     1       3.627   2.988  18.012  0.00  0.00    +0.000 C 
BRANCH  17  18
ATOM     18  N   UNL     1       2.575   3.954  18.431  0.00  0.00    +0.000 NA
ATOM     19  C   UNL     1       2.505   3.988  19.903  0.00  0.00    +0.000 C 
ATOM     20  C   UNL     1       1.730   5.176  20.475  0.00  0.00    +0.000 C 
ATOM     21  C   UNL     1       2.250   6.490  19.912  0.00  0.00    +0.000 C 
ATOM     22  C   UNL     1       2.144   6.455  18.399  0.00  0.00    +0.000 C 
ATOM     23  C   UNL     1       2.900   5.258  17.823  0.00  0.00    +0.000 C 
ENDBRANCH  17  18
ENDBRANCH  10  17
TORSDOF 4
ENDMDL
MODEL 4
REMARK VINA RESULT:      -7.4      0.723      1.232
REMARK  Name = 
REMARK  6 active torsions:
REMARK  status: ('A' for Active; 'I' for Inactive)
REMARK    1  A    between atoms: C_1  and  C_2
REMARK    2  A    between atoms: C_2  and  C_3
REMARK    3  A    between atoms: C_9  and  C_10
REMARK    4  A    between atoms: C_11  and  O_12
REMARK    5  A    between atoms: C_13  and  C_14
REMARK    6  A    between atoms: C_14  and  N_15
REMARK                            x       y       z     vdW  Elec       q    Type
REMARK                         _______ _______ _______ _____ _____    ______ ____
ROOT
ATOM      1  C   UNL     1       5.925   4.188  13.664  0.00  0.00    +0.000 A 
ATOM      2  C   UNL     1       7.077   4.606  13.116  0.00  0.00    +0.000 A 
ATOM      3  C   UNL     1       8.073   5.408  13.838  0.00  0.00    +0.000 A 
ATOM      4  O   UNL     1       9.124   5.731  13.304  0.00  0.00    +0.000 OA
ATOM      5  O   UNL     1       7.740   5.793  15.126  0.00  0.00    +0.000 OA
ATOM      6  C   UNL     1       6.531   5.398  15.743  0.00  0.00    +0.000 A 
ATOM      7  C   UNL     1       6.280   5.887  17.039  0.00  0.00    +0.000 A 
ATOM      8  C   UNL     1       7.257   6.805  17.724  0.00  0.00    +0.000 C 
ATOM      9  C   UNL     1       5.067   5.521  17.648  0.00  0.00    +0.000 A 
ATOM     10  C   UNL     1       4.153   4.676  16.997  0.00  0.00    +0.000 A 
ATOM     11  C   UNL     1       4.470   4.182  15.720  0.00  0.00    +0.000 A 
ATOM     12  C   UNL     1       5.636   4.564  15.057  0.00  0.00    +0.000 A 
ENDROOT
BRANCH   1  14
ATOM     13  C   UNL     1       5.540   2.609  11.727  0.00  0.00    +0.000 C 
ATOM     14  C   UNL     1       4.907   3.440  12.832  0.00  0.00    +0.000 C 
ENDBRANCH   1  14
BRANCH   9  15
ATOM     15  O   UNL     1       4.722   5.984  18.888  0.00  0.00    +0.000 OA
ATOM     16  H   UNL     1       3.798   5.767  19.082  0.00  0.00    +0.000 HD
ENDBRANCH   9  15
BRANCH  10  17
ATOM     17  C   UNL     1       2.784   4.363  17.565  0.00  0.00    +0.000 C 
BRANCH  17  18
ATOM     18  N   UNL     1       2.738   3.216  18.512  0.00  0.00    +0.000 NA
ATOM     19  C   UNL     1       4.027   3.115  19.218  0.00  0.00    +0.000 C 
ATOM     20  C   UNL     1       4.006   2.220  20.458  0.00  0.00    +0.000 C 
ATOM     21  C   UNL     1       2.884   2.622  21.402  0.00  0.00    +0.000 C 
ATOM     22  C   UNL     1       1.562   2.548  20.660  0.00  0.00    +0.000 C 
ATOM     23  C   UNL     1       1.586   3.426  19.409  0.00  0.00    +0.000 C 
ENDBRANCH  17  18
ENDBRANCH  10  17
TORSDOF 4
ENDMDL
MODEL 5
REMARK VINA RESULT:      -7.4      3.547      5.196
REMARK  Name = 
REMARK  6 active torsions:
REMARK  status: ('A' for Active; 'I' for Inactive)
REMARK    1  A    between atoms: C_1  and  C_2
REMARK    2  A    between atoms: C_2  and  C_3
REMARK    3  A    between atoms: C_9  and  C_10
REMARK    4  A    between atoms: C_11  and  O_12
REMARK    5  A    between atoms: C_13  and  C_14
REMARK    6  A    between atoms: C_14  and  N_15
REMARK                            x       y       z     vdW  Elec       q    Type
REMARK                         _______ _______ _______ _____ _____    ______ ____
ROOT
ATOM      1  C   UNL     1       6.713   7.019  17.530  0.00  0.00    +0.000 A 
ATOM      2  C   UNL     1       7.742   6.159  17.590  0.00  0.00    +0.000 A 
ATOM      3  C   UNL     1       7.576   4.707  17.734  0.00  0.00    +0.000 A 
ATOM      4  O   UNL     1       8.546   3.963  17.747  0.00  0.00    +0.000 OA
ATOM      5  O   UNL     1       6.279   4.245  17.885  0.00  0.00    +0.000 OA
ATOM      6  C   UNL     1       5.162   5.110  17.850  0.00  0.00    +0.000 A 
ATOM      7  C   UNL     1       3.894   4.533  18.058  0.00  0.00    +0.000 A 
ATOM      8  C   UNL     1       3.748   3.059  18.321  0.00  0.00    +0.000 C 
ATOM      9  C   UNL     1       2.781   5.391  18.052  0.00  0.00    +0.000 A 
ATOM     10  C   UNL     1       2.927   6.768  17.820  0.00  0.00    +0.000 A 
ATOM     11  C   UNL     1       4.210   7.289  17.577  0.00  0.00    +0.000 A 
ATOM     12  C   UNL     1       5.347   6.482  17.629  0.00  0.00    +0.000 A 
ENDROOT
BRANCH   1  14
ATOM     13  C   UNL     1       8.294   8.913  18.085  0.00  0.00    +0.000 C 
ATOM     14  C   UNL     1       6.962   8.509  17.470  0.00  0.00    +0.000 C 
ENDBRANCH   1  14
BRANCH   9  15
ATOM     15  O   UNL     1       1.517   4.923  18.287  0.00  0.00    +0.000 OA
ATOM     16  H   UNL     1       1.441   4.609  19.200  0.00  0.00    +0.000 HD
ENDBRANCH   9  15
BRANCH  10  17
ATOM     17  C   UNL     1       1.770   7.741  17.932  0.00  0.00    +0.000 C 
BRANCH  17  18
ATOM     18  N   UNL     1       1.834   8.670  19.092  0.00  0.00    +0.000 NA
ATOM     19  C   UNL     1       0.864   9.762  18.895  0.00  0.00    +0.000 C 
ATOM     20  C   UNL     1       0.567  10.585  20.151  0.00  0.00    +0.000 C 
ATOM     21  C   UNL     1       0.167   9.686  21.311  0.00  0.00    +0.000 C 
ATOM     22  C   UNL     1       1.281   8.688  21.569  0.00  0.00    +0.000 C 
ATOM     23  C   UNL     1       1.593   7.877  20.312  0.00  0.00    +0.000 C 
ENDBRANCH  17  18
ENDBRANCH  10  17
TORSDOF 4
ENDMDL
MODEL 6
REMARK VINA RESULT:      -7.4      2.326      6.956
REMARK  Name = 
REMARK  6 active torsions:
REMARK  status: ('A' for Active; 'I' for Inactive)
REMARK    1  A    between atoms: C_1  and  C_2
REMARK    2  A    between atoms: C_2  and  C_3
REMARK    3  A    between atoms: C_9  and  C_10
REMARK    4  A    between atoms: C_11  and  O_12
REMARK    5  A    between atoms: C_13  and  C_14
REMARK    6  A    between atoms: C_14  and  N_15
REMARK                            x       y       z     vdW  Elec       q    Type
REMARK                         _______ _______ _______ _____ _____    ______ ____
ROOT
ATOM      1  C   UNL     1       3.535   3.555  19.524  0.00  0.00    +0.000 A 
ATOM      2  C   UNL     1       2.621   3.994  20.402  0.00  0.00    +0.000 A 
ATOM      3  C   UNL     1       2.006   5.325  20.333  0.00  0.00    +0.000 A 
ATOM      4  O   UNL     1       1.149   5.663  21.137  0.00  0.00    +0.000 OA
ATOM      5  O   UNL     1       2.471   6.170  19.339  0.00  0.00    +0.000 OA
ATOM      6  C   UNL     1       3.447   5.765  18.400  0.00  0.00    +0.000 A 
ATOM      7  C   UNL     1       3.875   6.723  17.462  0.00  0.00    +0.000 A 
ATOM      8  C   UNL     1       3.321   8.122  17.475  0.00  0.00    +0.000 C 
ATOM      9  C   UNL     1       4.866   6.335  16.544  0.00  0.00    +0.000 A 
ATOM     10  C   UNL     1       5.390   5.032  16.547  0.00  0.00    +0.000 A 
ATOM     11  C   UNL     1       4.899   4.101  17.478  0.00  0.00    +0.000 A 
ATOM     12  C   UNL     1       3.956   4.459  18.442  0.00  0.00    +0.000 A 
ENDROOT
BRANCH   1  14
ATOM     13  C   UNL     1       3.660   1.151  18.749  0.00  0.00    +0.000 C 
ATOM     14  C   UNL     1       4.191   2.204  19.709  0.00  0.00    +0.000 C 
ENDBRANCH   1  14
BRANCH   9  15
ATOM     15  O   UNL     1       5.371   7.214  15.624  0.00  0.00    +0.000 OA
ATOM     16  H   UNL     1       6.207   7.586  15.940  0.00  0.00    +0.000 HD
ENDBRANCH   9  15
BRANCH  10  17
ATOM     17  C   UNL     1       6.546   4.615  15.660  0.00  0.00    +0.000 C 
BRANCH  17  18
ATOM     18  N   UNL     1       6.313   4.773  14.199  0.00  0.00    +0.000 NA
ATOM     19  C   UNL     1       7.599   5.024  13.525  0.00  0.00    +0.000 C 
ATOM     20  C   UNL     1       7.565   4.854  12.005  0.00  0.00    +0.000 C 
ATOM     21  C   UNL     1       6.989   3.500  11.619  0.00  0.00    +0.000 C 
ATOM     22  C   UNL     1       5.597   3.370  12.208  0.00  0.00    +0.000 C 
ATOM     23  C   UNL     1       5.623   3.558  13.725  0.00  0.00    +0.000 C 
ENDBRANCH  17  18
ENDBRANCH  10  17
TORSDOF 4
ENDMDL
MODEL 7
REMARK VINA RESULT:      -7.4      3.211      7.101
REMARK  Name = 
REMARK  6 active torsions:
REMARK  status: ('A' for Active; 'I' for Inactive)
REMARK    1  A    between atoms: C_1  and  C_2
REMARK    2  A    between atoms: C_2  and  C_3
REMARK    3  A    between atoms: C_9  and  C_10
REMARK    4  A    between atoms: C_11  and  O_12
REMARK    5  A    between atoms: C_13  and  C_14
REMARK    6  A    between atoms: C_14  and  N_15
REMARK                            x       y       z     vdW  Elec       q    Type
REMARK                         _______ _______ _______ _____ _____    ______ ____
ROOT
ATOM      1  C   UNL     1       2.121   7.935  18.951  0.00  0.00    +0.000 A 
ATOM      2  C   UNL     1       1.526   8.526  19.997  0.00  0.00    +0.000 A 
ATOM      3  C   UNL     1       1.189   7.823  21.242  0.00  0.00    +0.000 A 
ATOM      4  O   UNL     1       0.681   8.418  22.181  0.00  0.00    +0.000 OA
ATOM      5  O   UNL     1       1.450   6.463  21.273  0.00  0.00    +0.000 OA
ATOM      6  C   UNL     1       2.056   5.787  20.190  0.00  0.00    +0.000 A 
ATOM      7  C   UNL     1       2.232   4.396  20.317  0.00  0.00    +0.000 A 
ATOM      8  C   UNL     1       1.776   3.667  21.552  0.00  0.00    +0.000 C 
ATOM      9  C   UNL     1       2.809   3.712  19.233  0.00  0.00    +0.000 A 
ATOM     10  C   UNL     1       3.219   4.397  18.077  0.00  0.00    +0.000 A 
ATOM     11  C   UNL     1       3.059   5.792  18.017  0.00  0.00    +0.000 A 
ATOM     12  C   UNL     1       2.441   6.502  19.046  0.00  0.00    +0.000 A 
ENDROOT
BRANCH   1  14
ATOM     13  C   UNL     1       1.997  10.175  17.784  0.00  0.00    +0.000 C 
ATOM     14  C   UNL     1       2.357   8.701  17.668  0.00  0.00    +0.000 C 
ENDBRANCH   1  14
BRANCH   9  15
ATOM     15  O   UNL     1       2.979   2.354  19.253  0.00  0.00    +0.000 OA
ATOM     16  H   UNL     1       2.668   1.965  18.423  0.00  0.00    +0.000 HD
ENDBRANCH   9  15
BRANCH  10  17
ATOM     17  C   UNL     1       3.726   3.681  16.842  0.00  0.00    +0.000 C 
BRANCH  17  18
ATOM     18  N   UNL     1       5.189   3.794  16.599  0.00  0.00    +0.000 NA
ATOM     19  C   UNL     1       5.424   4.684  15.447  0.00  0.00    +0.000 C 
ATOM     20  C   UNL     1       6.866   5.172  15.303  0.00  0.00    +0.000 C 
ATOM     21  C   UNL     1       7.364   5.794  16.598  0.00  0.00    +0.000 C 
ATOM     22  C   UNL     1       7.249   4.772  17.714  0.00  0.00    +0.000 C 
ATOM     23  C   UNL     1       5.813   4.267  17.849  0.00  0.00    +0.000 C 
ENDBRANCH  17  18
ENDBRANCH  10  17
TORSDOF 4
ENDMDL
MODEL 8
REMARK VINA RESULT:      -7.2      3.127      5.067
REMARK  Name = 
REMARK  6 active torsions:
REMARK  status: ('A' for Active; 'I' for Inactive)
REMARK    1  A    between atoms: C_1  and  C_2
REMARK    2  A    between atoms: C_2  and  C_3
REMARK    3  A    between atoms: C_9  and  C_10
REMARK    4  A    between atoms: C_11  and  O_12
REMARK    5  A    between atoms: C_13  and  C_14
REMARK    6  A    between atoms: C_14  and  N_15
REMARK                            x       y       z     vdW  Elec       q    Type
REMARK                         _______ _______ _______ _____ _____    ______ ____
ROOT
ATOM      1  C   UNL     1       5.929   6.244  16.788  0.00  0.00    +0.000 A 
ATOM      2  C   UNL     1       6.524   5.449  15.885  0.00  0.00    +0.000 A 
ATOM      3  C   UNL     1       5.966   4.164  15.445  0.00  0.00    +0.000 A 
ATOM      4  O   UNL     1       6.530   3.494  14.592  0.00  0.00    +0.000 OA
ATOM      5  O   UNL     1       4.801   3.751  16.068  0.00  0.00    +0.000 OA
ATOM      6  C   UNL     1       4.144   4.540  17.040  0.00  0.00    +0.000 A 
ATOM      7  C   UNL     1       2.990   3.998  17.637  0.00  0.00    +0.000 A 
ATOM      8  C   UNL     1       2.494   2.628  17.261  0.00  0.00    +0.000 C 
ATOM      9  C   UNL     1       2.348   4.766  18.624  0.00  0.00    +0.000 A 
ATOM     10  C   UNL     1       2.826   6.037  18.980  0.00  0.00    +0.000 A 
ATOM     11  C   UNL     1       3.958   6.550  18.325  0.00  0.00    +0.000 A 
ATOM     12  C   UNL     1       4.658   5.800  17.380  0.00  0.00    +0.000 A 
ENDROOT
BRANCH   1  14
ATOM     13  C   UNL     1       7.850   7.245  18.094  0.00  0.00    +0.000 C 
ATOM     14  C   UNL     1       6.607   7.512  17.258  0.00  0.00    +0.000 C 
ENDBRANCH   1  14
BRANCH   9  15
ATOM     15  O   UNL     1       1.245   4.300  19.286  0.00  0.00    +0.000 OA
ATOM     16  H   UNL     1       1.341   3.354  19.472  0.00  0.00    +0.000 HD
ENDBRANCH   9  15
BRANCH  10  17
ATOM     17  C   UNL     1       2.238   6.838  20.125  0.00  0.00    +0.000 C 
BRANCH  17  18
ATOM     18  N   UNL     1       1.992   8.276  19.833  0.00  0.00    +0.000 NA
ATOM     19  C   UNL     1       1.527   8.417  18.441  0.00  0.00    +0.000 C 
ATOM     20  C   UNL     1       0.903   9.774  18.113  0.00  0.00    +0.000 C 
ATOM     21  C   UNL     1      -0.195  10.125  19.106  0.00  0.00    +0.000 C 
ATOM     22  C   UNL     1       0.387  10.123  20.507  0.00  0.00    +0.000 C 
ATOM     23  C   UNL     1       1.029   8.775  20.832  0.00  0.00    +0.000 C 
ENDBRANCH  17  18
ENDBRANCH  10  17
TORSDOF 4
ENDMDL
MODEL 9
REMARK VINA RESULT:      -7.2      3.303      6.680
REMARK  Name = 
REMARK  6 active torsions:
REMARK  status: ('A' for Active; 'I' for Inactive)
REMARK    1  A    between atoms: C_1  and  C_2
REMARK    2  A    between atoms: C_2  and  C_3
REMARK    3  A    between atoms: C_9  and  C_10
REMARK    4  A    between atoms: C_11  and  O_12
REMARK    5  A    between atoms: C_13  and  C_14
REMARK    6  A    between atoms: C_14  and  N_15
REMARK                            x       y       z     vdW  Elec       q    Type
REMARK                         _______ _______ _______ _____ _____    ______ ____
ROOT
ATOM      1  C   UNL     1       2.767   2.951  18.970  0.00  0.00    +0.000 A 
ATOM      2  C   UNL     1       2.221   2.450  20.089  0.00  0.00    +0.000 A 
ATOM      3  C   UNL     1       1.573   3.278  21.113  0.00  0.00    +0.000 A 
ATOM      4  O   UNL     1       1.057   2.769  22.098  0.00  0.00    +0.000 OA
ATOM      5  O   UNL     1       1.609   4.648  20.915  0.00  0.00    +0.000 OA
ATOM      6  C   UNL     1       2.189   5.228  19.764  0.00  0.00    +0.000 A 
ATOM      7  C   UNL     1       2.207   6.634  19.691  0.00  0.00    +0.000 A 
ATOM      8  C   UNL     1       1.643   7.475  20.804  0.00  0.00    +0.000 C 
ATOM      9  C   UNL     1       2.807   7.219  18.562  0.00  0.00    +0.000 A 
ATOM     10  C   UNL     1       3.345   6.428  17.534  0.00  0.00    +0.000 A 
ATOM     11  C   UNL     1       3.266   5.028  17.636  0.00  0.00    +0.000 A 
ATOM     12  C   UNL     1       2.728   4.407  18.764  0.00  0.00    +0.000 A 
ENDROOT
BRANCH   1  14
ATOM     13  C   UNL     1       4.204   0.889  18.689  0.00  0.00    +0.000 C 
ATOM     14  C   UNL     1       3.496   2.046  18.001  0.00  0.00    +0.000 C 
ENDBRANCH   1  14
BRANCH   9  15
ATOM     15  O   UNL     1       2.906   8.577  18.428  0.00  0.00    +0.000 OA
ATOM     16  H   UNL     1       2.025   8.978  18.425  0.00  0.00    +0.000 HD
ENDBRANCH   9  15
BRANCH  10  17
ATOM     17  C   UNL     1       4.112   7.017  16.367  0.00  0.00    +0.000 C 
BRANCH  17  18
ATOM     18  N   UNL     1       5.558   6.672  16.320  0.00  0.00    +0.000 NA
ATOM     19  C   UNL     1       6.096   6.639  17.691  0.00  0.00    +0.000 C 
ATOM     20  C   UNL     1       7.460   5.960  17.824  0.00  0.00    +0.000 C 
ATOM     21  C   UNL     1       7.444   4.574  17.198  0.00  0.00    +0.000 C 
ATOM     22  C   UNL     1       7.040   4.694  15.741  0.00  0.00    +0.000 C 
ATOM     23  C   UNL     1       5.686   5.389  15.602  0.00  0.00    +0.000 C 
ENDBRANCH  17  18
ENDBRANCH  10  17
TORSDOF 4
ENDMDL
