MODEL 1
REMARK VINA RESULT:      -6.8      0.000      0.000
REMARK  Name = 
REMARK  5 active torsions:
REMARK  status: ('A' for Active; 'I' for Inactive)
REMARK    1  A    between atoms: C_1  and  C_2
REMARK    2  A    between atoms: C_6  and  C_7
REMARK    3  A    between atoms: N_9  and  C_10
REMARK    4  A    between atoms: N_14  and  C_15
REMARK    5  A    between atoms: N_14  and  C_16
REMARK                            x       y       z     vdW  Elec       q    Type
REMARK                         _______ _______ _______ _____ _____    ______ ____
ROOT
ATOM      1  C   UNL     1       2.171  13.513  19.187  0.00  0.00    +0.000 C 
ATOM      2  C   UNL     1       0.773  13.011  19.281  0.00  0.00    +0.000 C 
ATOM      3  C   UNL     1      -0.207  13.745  19.836  0.00  0.00    +0.000 C 
ATOM      4  C   UNL     1      -1.534  13.279  20.118  0.00  0.00    +0.000 C 
ATOM      5  C   UNL     1      -1.891  12.022  19.828  0.00  0.00    +0.000 C 
ATOM      6  C   UNL     1      -0.941  11.036  19.194  0.00  0.00    +0.000 C 
ATOM      7  C   UNL     1      -1.512  10.722  17.796  0.00  0.00    +0.000 C 
ATOM      8  C   UNL     1      -0.799   9.813  20.125  0.00  0.00    +0.000 C 
ATOM      9  N   UNL     1       0.571   9.314  20.243  0.00  0.00    +0.000 NA
ATOM     10  C   UNL     1       1.394   9.930  21.295  0.00  0.00    +0.000 C 
ATOM     11  N   UNL     1       1.218   9.385  19.022  0.00  0.00    +0.000 N 
ATOM     12  C   UNL     1       2.001   8.298  18.480  0.00  0.00    +0.000 C 
ATOM     13  O   UNL     1       2.483   8.434  17.345  0.00  0.00    +0.000 OA
ATOM     14  N   UNL     1       2.150   7.077  19.246  0.00  0.00    +0.000 N 
ATOM     15  C   UNL     1       1.625   6.790  20.597  0.00  0.00    +0.000 C 
ATOM     16  N   UNL     1       1.453  10.723  18.613  0.00  0.00    +0.000 NA
ATOM     17  C   UNL     1       0.494  11.556  18.961  0.00  0.00    +0.000 C 
ENDROOT
BRANCH  14  18
ATOM     18  C   UNL     1       3.060   5.999  18.795  0.00  0.00    +0.000 A 
ATOM     19  C   UNL     1       4.359   5.839  19.285  0.00  0.00    +0.000 A 
ATOM     20  C   UNL     1       5.173   4.760  18.892  0.00  0.00    +0.000 A 
ATOM     21  C   UNL     1       4.703   3.803  17.998  0.00  0.00    +0.000 A 
ATOM     22  C   UNL     1       3.424   3.925  17.490  0.00  0.00    +0.000 A 
ATOM     23  C   UNL     1       2.623   5.005  17.887  0.00  0.00    +0.000 A 
ENDBRANCH  14  18
TORSDOF 1
ENDMDL
MODEL 2
REMARK VINA RESULT:      -6.8      0.127      1.002
REMARK  Name = 
REMARK  5 active torsions:
REMARK  status: ('A' for Active; 'I' for Inactive)
REMARK    1  A    between atoms: C_1  and  C_2
REMARK    2  A    between atoms: C_6  and  C_7
REMARK    3  A    between atoms: N_9  and  C_10
REMARK    4  A    between atoms: N_14  and  C_15
REMARK    5  A    between atoms: N_14  and  C_16
REMARK                            x       y       z     vdW  Elec       q    Type
REMARK                         _______ _______ _______ _____ _____    ______ ____
ROOT
ATOM      1  C   UNL     1       2.313  13.461  19.255  0.00  0.00    +0.000 C 
ATOM      2  C   UNL     1       0.905  12.986  19.340  0.00  0.00    +0.000 C 
ATOM      3  C   UNL     1      -0.062  13.734  19.899  0.00  0.00    +0.000 C 
ATOM      4  C   UNL     1      -1.399  13.291  20.173  0.00  0.00    +0.000 C 
ATOM      5  C   UNL     1      -1.779  12.044  19.872  0.00  0.00    +0.000 C 
ATOM      6  C   UNL     1      -0.847  11.045  19.231  0.00  0.00    +0.000 C 
ATOM      7  C   UNL     1      -1.419  10.755  17.829  0.00  0.00    +0.000 C 
ATOM      8  C   UNL     1      -0.731   9.812  20.152  0.00  0.00    +0.000 C 
ATOM      9  N   UNL     1       0.629   9.285  20.270  0.00  0.00    +0.000 NA
ATOM     10  C   UNL     1       1.460   9.876  21.329  0.00  0.00    +0.000 C 
ATOM     11  N   UNL     1       1.281   9.354  19.051  0.00  0.00    +0.000 N 
ATOM     12  C   UNL     1       2.044   8.257  18.502  0.00  0.00    +0.000 C 
ATOM     13  O   UNL     1       2.531   8.394  17.370  0.00  0.00    +0.000 OA
ATOM     14  N   UNL     1       2.167   7.027  19.258  0.00  0.00    +0.000 N 
ATOM     15  C   UNL     1       1.633   6.739  20.605  0.00  0.00    +0.000 C 
ATOM     16  N   UNL     1       1.543  10.691  18.654  0.00  0.00    +0.000 NA
ATOM     17  C   UNL     1       0.599  11.540  19.007  0.00  0.00    +0.000 C 
ENDROOT
BRANCH  14  18
ATOM     18  C   UNL     1       3.057   5.936  18.801  0.00  0.00    +0.000 A 
ATOM     19  C   UNL     1       2.695   5.017  17.812  0.00  0.00    +0.000 A 
ATOM     20  C   UNL     1       3.591   4.036  17.346  0.00  0.00    +0.000 A 
ATOM     21  C   UNL     1       4.883   3.953  17.855  0.00  0.00    +0.000 A 
ATOM     22  C   UNL     1       5.280   4.842  18.835  0.00  0.00    +0.000 A 
ATOM     23  C   UNL     1       4.379   5.814  19.293  0.00  0.00    +0.000 A 
ENDBRANCH  14  18
TORSDOF 1
ENDMDL
MODEL 3
REMARK VINA RESULT:      -6.6      1.044      1.067
REMARK  Name = 
REMARK  5 active torsions:
REMARK  status: ('A' for Active; 'I' for Inactive)
REMARK    1  A    between atoms: C_1  and  C_2
REMARK    2  A    between atoms: C_6  and  C_7
REMARK    3  A    between atoms: N_9  and  C_10
REMARK    4  A    between atoms: N_14  and  C_15
REMARK    5  A    between atoms: N_14  and  C_16
REMARK                            x       y       z     vdW  Elec       q    Type
REMARK                         _______ _______ _______ _____ _____    ______ ____
ROOT
ATOM      1  C   UNL     1       2.403  13.362  20.391  0.00  0.00    +0.000 C 
ATOM      2  C   UNL     1       1.014  12.859  20.573  0.00  0.00    +0.000 C 
ATOM      3  C   UNL     1       0.151  13.454  21.414  0.00  0.00    +0.000 C 
ATOM      4  C   UNL     1      -1.140  12.942  21.776  0.00  0.00    +0.000 C 
ATOM      5  C   UNL     1      -1.581  11.784  21.270  0.00  0.00    +0.000 C 
ATOM      6  C   UNL     1      -0.768  10.962  20.301  0.00  0.00    +0.000 C 
ATOM      7  C   UNL     1      -1.540  10.973  18.967  0.00  0.00    +0.000 C 
ATOM      8  C   UNL     1      -0.541   9.561  20.907  0.00  0.00    +0.000 C 
ATOM      9  N   UNL     1       0.813   9.041  20.711  0.00  0.00    +0.000 NA
ATOM     10  C   UNL     1       1.797   9.401  21.742  0.00  0.00    +0.000 C 
ATOM     11  N   UNL     1       1.284   9.381  19.455  0.00  0.00    +0.000 N 
ATOM     12  C   UNL     1       1.941   8.441  18.578  0.00  0.00    +0.000 C 
ATOM     13  O   UNL     1       2.263   8.826  17.444  0.00  0.00    +0.000 OA
ATOM     14  N   UNL     1       2.151   7.078  19.025  0.00  0.00    +0.000 N 
ATOM     15  C   UNL     1       1.811   6.498  20.340  0.00  0.00    +0.000 C 
ATOM     16  N   UNL     1       1.508  10.776  19.323  0.00  0.00    +0.000 NA
ATOM     17  C   UNL     1       0.639  11.514  19.983  0.00  0.00    +0.000 C 
ENDROOT
BRANCH  14  18
ATOM     18  C   UNL     1       2.947   6.125  18.219  0.00  0.00    +0.000 A 
ATOM     19  C   UNL     1       4.263   6.374  17.817  0.00  0.00    +0.000 A 
ATOM     20  C   UNL     1       5.018   5.416  17.116  0.00  0.00    +0.000 A 
ATOM     21  C   UNL     1       4.478   4.173  16.801  0.00  0.00    +0.000 A 
ATOM     22  C   UNL     1       3.180   3.887  17.179  0.00  0.00    +0.000 A 
ATOM     23  C   UNL     1       2.436   4.850  17.876  0.00  0.00    +0.000 A 
ENDBRANCH  14  18
TORSDOF 1
ENDMDL
MODEL 4
REMARK VINA RESULT:      -6.3      4.779      7.587
REMARK  Name = 
REMARK  5 active torsions:
REMARK  status: ('A' for Active; 'I' for Inactive)
REMARK    1  A    between atoms: C_1  and  C_2
REMARK    2  A    between atoms: C_6  and  C_7
REMARK    3  A    between atoms: N_9  and  C_10
REMARK    4  A    between atoms: N_14  and  C_15
REMARK    5  A    between atoms: N_14  and  C_16
REMARK                            x       y       z     vdW  Elec       q    Type
REMARK                         _______ _______ _______ _____ _____    ______ ____
ROOT
ATOM      1  C   UNL     1       1.615   6.435  19.757  0.00  0.00    +0.000 C 
ATOM      2  C   UNL     1       2.012   5.063  20.176  0.00  0.00    +0.000 C 
ATOM      3  C   UNL     1       1.862   4.639  21.443  0.00  0.00    +0.000 C 
ATOM      4  C   UNL     1       2.368   3.403  21.969  0.00  0.00    +0.000 C 
ATOM      5  C   UNL     1       3.052   2.559  21.187  0.00  0.00    +0.000 C 
ATOM      6  C   UNL     1       3.326   2.844  19.731  0.00  0.00    +0.000 C 
ATOM      7  C   UNL     1       2.558   1.776  18.928  0.00  0.00    +0.000 C 
ATOM      8  C   UNL     1       4.853   2.852  19.505  0.00  0.00    +0.000 C 
ATOM      9  N   UNL     1       5.316   3.922  18.621  0.00  0.00    +0.000 NA
ATOM     10  C   UNL     1       5.631   5.203  19.270  0.00  0.00    +0.000 C 
ATOM     11  N   UNL     1       4.420   4.114  17.584  0.00  0.00    +0.000 N 
ATOM     12  C   UNL     1       4.827   4.248  16.204  0.00  0.00    +0.000 C 
ATOM     13  O   UNL     1       3.942   4.346  15.341  0.00  0.00    +0.000 OA
ATOM     14  N   UNL     1       6.237   4.208  15.872  0.00  0.00    +0.000 N 
ATOM     15  C   UNL     1       7.380   4.091  16.800  0.00  0.00    +0.000 C 
ATOM     16  N   UNL     1       3.184   4.650  18.031  0.00  0.00    +0.000 NA
ATOM     17  C   UNL     1       2.818   4.210  19.218  0.00  0.00    +0.000 C 
ENDROOT
BRANCH  14  18
ATOM     18  C   UNL     1       6.704   4.486  14.494  0.00  0.00    +0.000 A 
ATOM     19  C   UNL     1       7.648   5.472  14.191  0.00  0.00    +0.000 A 
ATOM     20  C   UNL     1       8.127   5.661  12.881  0.00  0.00    +0.000 A 
ATOM     21  C   UNL     1       7.678   4.861  11.835  0.00  0.00    +0.000 A 
ATOM     22  C   UNL     1       6.745   3.876  12.093  0.00  0.00    +0.000 A 
ATOM     23  C   UNL     1       6.273   3.697  13.401  0.00  0.00    +0.000 A 
ENDBRANCH  14  18
TORSDOF 1
ENDMDL
MODEL 5
REMARK VINA RESULT:      -6.2      1.795      7.418
REMARK  Name = 
REMARK  5 active torsions:
REMARK  status: ('A' for Active; 'I' for Inactive)
REMARK    1  A    between atoms: C_1  and  C_2
REMARK    2  A    between atoms: C_6  and  C_7
REMARK    3  A    between atoms: N_9  and  C_10
REMARK    4  A    between atoms: N_14  and  C_15
REMARK    5  A    between atoms: N_14  and  C_16
REMARK                            x       y       z     vdW  Elec       q    Type
REMARK                         _______ _______ _______ _____ _____    ______ ____
ROOT
ATOM      1  C   UNL     1       6.056   5.410  19.480  0.00  0.00    +0.000 C 
ATOM      2  C   UNL     1       4.869   4.746  18.874  0.00  0.00    +0.000 C 
ATOM      3  C   UNL     1       4.994   3.793  17.935  0.00  0.00    +0.000 C 
ATOM      4  C   UNL     1       3.913   3.224  17.182  0.00  0.00    +0.000 C 
ATOM      5  C   UNL     1       2.654   3.631  17.383  0.00  0.00    +0.000 C 
ATOM      6  C   UNL     1       2.296   4.688  18.398  0.00  0.00    +0.000 C 
ATOM      7  C   UNL     1       1.445   3.986  19.475  0.00  0.00    +0.000 C 
ATOM      8  C   UNL     1       1.592   5.855  17.673  0.00  0.00    +0.000 C 
ATOM      9  N   UNL     1       2.011   7.179  18.134  0.00  0.00    +0.000 NA
ATOM     10  C   UNL     1       3.180   7.758  17.456  0.00  0.00    +0.000 C 
ATOM     11  N   UNL     1       2.201   7.176  19.505  0.00  0.00    +0.000 N 
ATOM     12  C   UNL     1       1.686   8.207  20.375  0.00  0.00    +0.000 C 
ATOM     13  O   UNL     1       1.850   8.076  21.597  0.00  0.00    +0.000 OA
ATOM     14  N   UNL     1       0.954   9.320  19.804  0.00  0.00    +0.000 N 
ATOM     15  C   UNL     1       0.689   9.587  18.375  0.00  0.00    +0.000 C 
ATOM     16  N   UNL     1       3.318   6.390  19.892  0.00  0.00    +0.000 NA
ATOM     17  C   UNL     1       3.493   5.319  19.145  0.00  0.00    +0.000 C 
ENDROOT
BRANCH  14  18
ATOM     18  C   UNL     1       0.537  10.468  20.640  0.00  0.00    +0.000 A 
ATOM     19  C   UNL     1       0.970  11.778  20.413  0.00  0.00    +0.000 A 
ATOM     20  C   UNL     1       0.496  12.859  21.180  0.00  0.00    +0.000 A 
ATOM     21  C   UNL     1      -0.434  12.660  22.195  0.00  0.00    +0.000 A 
ATOM     22  C   UNL     1      -0.887  11.380  22.452  0.00  0.00    +0.000 A 
ATOM     23  C   UNL     1      -0.407  10.310  21.684  0.00  0.00    +0.000 A 
ENDBRANCH  14  18
TORSDOF 1
ENDMDL
MODEL 6
REMARK VINA RESULT:      -6.2      2.185      7.760
REMARK  Name = 
REMARK  5 active torsions:
REMARK  status: ('A' for Active; 'I' for Inactive)
REMARK    1  A    between atoms: C_1  and  C_2
REMARK    2  A    between atoms: C_6  and  C_7
REMARK    3  A    between atoms: N_9  and  C_10
REMARK    4  A    between atoms: N_14  and  C_15
REMARK    5  A    between atoms: N_14  and  C_16
REMARK                            x       y       z     vdW  Elec       q    Type
REMARK                         _______ _______ _______ _____ _____    ______ ____
ROOT
ATOM      1  C   UNL     1       4.905   4.799  14.426  0.00  0.00    +0.000 C 
ATOM      2  C   UNL     1       5.840   5.004  15.566  0.00  0.00    +0.000 C 
ATOM      3  C   UNL     1       6.847   4.149  15.819  0.00  0.00    +0.000 C 
ATOM      4  C   UNL     1       7.685   4.177  16.983  0.00  0.00    +0.000 C 
ATOM      5  C   UNL     1       7.504   5.102  17.933  0.00  0.00    +0.000 C 
ATOM      6  C   UNL     1       6.431   6.159  17.839  0.00  0.00    +0.000 C 
ATOM      7  C   UNL     1       7.163   7.510  17.718  0.00  0.00    +0.000 C 
ATOM      8  C   UNL     1       5.501   6.033  19.064  0.00  0.00    +0.000 C 
ATOM      9  N   UNL     1       4.080   6.190  18.750  0.00  0.00    +0.000 NA
ATOM     10  C   UNL     1       3.367   4.964  18.362  0.00  0.00    +0.000 C 
ATOM     11  N   UNL     1       3.903   7.174  17.793  0.00  0.00    +0.000 N 
ATOM     12  C   UNL     1       2.901   8.209  17.902  0.00  0.00    +0.000 C 
ATOM     13  O   UNL     1       2.870   9.086  17.026  0.00  0.00    +0.000 OA
ATOM     14  N   UNL     1       2.013   8.221  19.046  0.00  0.00    +0.000 N 
ATOM     15  C   UNL     1       1.952   7.243  20.152  0.00  0.00    +0.000 C 
ATOM     16  N   UNL     1       4.420   6.794  16.527  0.00  0.00    +0.000 NA
ATOM     17  C   UNL     1       5.512   6.061  16.602  0.00  0.00    +0.000 C 
ENDROOT
BRANCH  14  18
ATOM     18  C   UNL     1       0.881   9.173  19.125  0.00  0.00    +0.000 A 
ATOM     19  C   UNL     1       0.073   9.493  18.030  0.00  0.00    +0.000 A 
ATOM     20  C   UNL     1      -1.041  10.345  18.154  0.00  0.00    +0.000 A 
ATOM     21  C   UNL     1      -1.382  10.897  19.384  0.00  0.00    +0.000 A 
ATOM     22  C   UNL     1      -0.608  10.606  20.491  0.00  0.00    +0.000 A 
ATOM     23  C   UNL     1       0.500   9.758  20.356  0.00  0.00    +0.000 A 
ENDBRANCH  14  18
TORSDOF 1
ENDMDL
MODEL 7
REMARK VINA RESULT:      -6.2      4.628      7.550
REMARK  Name = 
REMARK  5 active torsions:
REMARK  status: ('A' for Active; 'I' for Inactive)
REMARK    1  A    between atoms: C_1  and  C_2
REMARK    2  A    between atoms: C_6  and  C_7
REMARK    3  A    between atoms: N_9  and  C_10
REMARK    4  A    between atoms: N_14  and  C_15
REMARK    5  A    between atoms: N_14  and  C_16
REMARK                            x       y       z     vdW  Elec       q    Type
REMARK                         _______ _______ _______ _____ _____    ______ ____
ROOT
ATOM      1  C   UNL     1       1.707   6.715  19.501  0.00  0.00    +0.000 C 
ATOM      2  C   UNL     1       2.033   5.337  19.963  0.00  0.00    +0.000 C 
ATOM      3  C   UNL     1       1.838   4.953  21.236  0.00  0.00    +0.000 C 
ATOM      4  C   UNL     1       2.276   3.710  21.803  0.00  0.00    +0.000 C 
ATOM      5  C   UNL     1       2.936   2.816  21.058  0.00  0.00    +0.000 C 
ATOM      6  C   UNL     1       3.252   3.050  19.601  0.00  0.00    +0.000 C 
ATOM      7  C   UNL     1       2.451   1.997  18.809  0.00  0.00    +0.000 C 
ATOM      8  C   UNL     1       4.782   2.983  19.407  0.00  0.00    +0.000 C 
ATOM      9  N   UNL     1       5.311   4.007  18.507  0.00  0.00    +0.000 NA
ATOM     10  C   UNL     1       5.671   5.289  19.130  0.00  0.00    +0.000 C 
ATOM     11  N   UNL     1       4.446   4.213  17.447  0.00  0.00    +0.000 N 
ATOM     12  C   UNL     1       4.886   4.293  16.073  0.00  0.00    +0.000 C 
ATOM     13  O   UNL     1       4.024   4.408  15.189  0.00  0.00    +0.000 OA
ATOM     14  N   UNL     1       6.299   4.180  15.771  0.00  0.00    +0.000 N 
ATOM     15  C   UNL     1       7.417   4.035  16.726  0.00  0.00    +0.000 C 
ATOM     16  N   UNL     1       3.227   4.816  17.854  0.00  0.00    +0.000 NA
ATOM     17  C   UNL     1       2.818   4.424  19.043  0.00  0.00    +0.000 C 
ENDROOT
BRANCH  14  18
ATOM     18  C   UNL     1       6.806   4.401  14.398  0.00  0.00    +0.000 A 
ATOM     19  C   UNL     1       6.381   3.654  13.295  0.00  0.00    +0.000 A 
ATOM     20  C   UNL     1       6.826   3.938  11.990  0.00  0.00    +0.000 A 
ATOM     21  C   UNL     1       7.709   4.987  11.751  0.00  0.00    +0.000 A 
ATOM     22  C   UNL     1       8.154   5.749  12.814  0.00  0.00    +0.000 A 
ATOM     23  C   UNL     1       7.705   5.456  14.110  0.00  0.00    +0.000 A 
ENDBRANCH  14  18
TORSDOF 1
ENDMDL
MODEL 8
REMARK VINA RESULT:      -6.1      1.610      3.022
REMARK  Name = 
REMARK  5 active torsions:
REMARK  status: ('A' for Active; 'I' for Inactive)
REMARK    1  A    between atoms: C_1  and  C_2
REMARK    2  A    between atoms: C_6  and  C_7
REMARK    3  A    between atoms: N_9  and  C_10
REMARK    4  A    between atoms: N_14  and  C_15
REMARK    5  A    between atoms: N_14  and  C_16
REMARK                            x       y       z     vdW  Elec       q    Type
REMARK                         _______ _______ _______ _____ _____    ______ ____
ROOT
ATOM      1  C   UNL     1      -2.484  12.277  21.418  0.00  0.00    +0.000 C 
ATOM      2  C   UNL     1      -1.340  12.988  20.785  0.00  0.00    +0.000 C 
ATOM      3  C   UNL     1      -1.484  14.197  20.217  0.00  0.00    +0.000 C 
ATOM      4  C   UNL     1      -0.483  14.875  19.444  0.00  0.00    +0.000 C 
ATOM      5  C   UNL     1       0.713  14.312  19.233  0.00  0.00    +0.000 C 
ATOM      6  C   UNL     1       1.080  12.959  19.789  0.00  0.00    +0.000 C 
ATOM      7  C   UNL     1       2.212  13.201  20.807  0.00  0.00    +0.000 C 
ATOM      8  C   UNL     1       1.450  12.024  18.618  0.00  0.00    +0.000 C 
ATOM      9  N   UNL     1       0.923  10.666  18.752  0.00  0.00    +0.000 NA
ATOM     10  C   UNL     1      -0.426  10.442  18.211  0.00  0.00    +0.000 C 
ATOM     11  N   UNL     1       0.988  10.251  20.071  0.00  0.00    +0.000 N 
ATOM     12  C   UNL     1       1.487   8.954  20.465  0.00  0.00    +0.000 C 
ATOM     13  O   UNL     1       1.571   8.704  21.677  0.00  0.00    +0.000 OA
ATOM     14  N   UNL     1       1.920   8.019  19.446  0.00  0.00    +0.000 N 
ATOM     15  C   UNL     1       1.876   8.197  17.980  0.00  0.00    +0.000 C 
ATOM     16  N   UNL     1       0.097  10.971  20.908  0.00  0.00    +0.000 NA
ATOM     17  C   UNL     1      -0.042  12.235  20.565  0.00  0.00    +0.000 C 
ENDROOT
BRANCH  14  18
ATOM     18  C   UNL     1       2.299   6.630  19.796  0.00  0.00    +0.000 A 
ATOM     19  C   UNL     1       1.507   5.798  20.592  0.00  0.00    +0.000 A 
ATOM     20  C   UNL     1       1.860   4.459  20.845  0.00  0.00    +0.000 A 
ATOM     21  C   UNL     1       3.017   3.911  20.300  0.00  0.00    +0.000 A 
ATOM     22  C   UNL     1       3.828   4.701  19.508  0.00  0.00    +0.000 A 
ATOM     23  C   UNL     1       3.468   6.034  19.264  0.00  0.00    +0.000 A 
ENDBRANCH  14  18
TORSDOF 1
ENDMDL
MODEL 9
REMARK VINA RESULT:      -6.1      1.097      1.359
REMARK  Name = 
REMARK  5 active torsions:
REMARK  status: ('A' for Active; 'I' for Inactive)
REMARK    1  A    between atoms: C_1  and  C_2
REMARK    2  A    between atoms: C_6  and  C_7
REMARK    3  A    between atoms: N_9  and  C_10
REMARK    4  A    between atoms: N_14  and  C_15
REMARK    5  A    between atoms: N_14  and  C_16
REMARK                            x       y       z     vdW  Elec       q    Type
REMARK                         _______ _______ _______ _____ _____    ______ ____
ROOT
ATOM      1  C   UNL     1       1.623  14.399  18.910  0.00  0.00    +0.000 C 
ATOM      2  C   UNL     1       0.286  13.851  19.269  0.00  0.00    +0.000 C 
ATOM      3  C   UNL     1      -0.600  14.562  19.987  0.00  0.00    +0.000 C 
ATOM      4  C   UNL     1      -1.834  14.055  20.517  0.00  0.00    +0.000 C 
ATOM      5  C   UNL     1      -2.190  12.781  20.316  0.00  0.00    +0.000 C 
ATOM      6  C   UNL     1      -1.338  11.815  19.529  0.00  0.00    +0.000 C 
ATOM      7  C   UNL     1      -2.145  11.454  18.267  0.00  0.00    +0.000 C 
ATOM      8  C   UNL     1      -0.979  10.618  20.435  0.00  0.00    +0.000 C 
ATOM      9  N   UNL     1       0.408  10.169  20.303  0.00  0.00    +0.000 NA
ATOM     10  C   UNL     1       1.387  10.836  21.175  0.00  0.00    +0.000 C 
ATOM     11  N   UNL     1       0.814  10.238  18.982  0.00  0.00    +0.000 N 
ATOM     12  C   UNL     1       1.524   9.168  18.319  0.00  0.00    +0.000 C 
ATOM     13  O   UNL     1       1.781   9.297  17.113  0.00  0.00    +0.000 OA
ATOM     14  N   UNL     1       1.858   7.969  19.061  0.00  0.00    +0.000 N 
ATOM     15  C   UNL     1       1.605   7.692  20.490  0.00  0.00    +0.000 C 
ATOM     16  N   UNL     1       0.918  11.575  18.518  0.00  0.00    +0.000 NA
ATOM     17  C   UNL     1       0.009  12.381  19.027  0.00  0.00    +0.000 C 
ENDROOT
BRANCH  14  18
ATOM     18  C   UNL     1       2.709   6.914  18.464  0.00  0.00    +0.000 A 
ATOM     19  C   UNL     1       2.400   5.553  18.531  0.00  0.00    +0.000 A 
ATOM     20  C   UNL     1       3.190   4.580  17.890  0.00  0.00    +0.000 A 
ATOM     21  C   UNL     1       4.313   4.947  17.154  0.00  0.00    +0.000 A 
ATOM     22  C   UNL     1       4.653   6.283  17.064  0.00  0.00    +0.000 A 
ATOM     23  C   UNL     1       3.860   7.243  17.708  0.00  0.00    +0.000 A 
ENDBRANCH  14  18
TORSDOF 1
ENDMDL
