MODEL 1
REMARK VINA RESULT:      -7.9      0.000      0.000
REMARK  Name = 
REMARK  5 active torsions:
REMARK  status: ('A' for Active; 'I' for Inactive)
REMARK    1  A    between atoms: C_1  and  O_2
REMARK    2  A    between atoms: O_2  and  C_3
REMARK    3  A    between atoms: C_6  and  C_7
REMARK    4  A    between atoms: C_7  and  C_8
REMARK    5  A    between atoms: C_8  and  N_9
REMARK                            x       y       z     vdW  Elec       q    Type
REMARK                         _______ _______ _______ _____ _____    ______ ____
ROOT
ATOM      1  N   UNL     1       6.513   4.393  18.969  0.00  0.00    +0.000 N 
ATOM      2  C   UNL     1       5.222   4.301  19.328  0.00  0.00    +0.000 A 
ATOM      3  N   UNL     1       4.733   3.060  19.598  0.00  0.00    +0.000 NA
ATOM      4  C   UNL     1       3.488   3.299  19.946  0.00  0.00    +0.000 A 
ATOM      5  C   UNL     1       2.424   2.453  20.365  0.00  0.00    +0.000 A 
ATOM      6  C   UNL     1       1.223   2.988  20.659  0.00  0.00    +0.000 A 
ATOM      7  C   UNL     1       0.982   4.419  20.557  0.00  0.00    +0.000 A 
ATOM      8  C   UNL     1       1.989   5.219  20.172  0.00  0.00    +0.000 A 
ATOM      9  N   UNL     1       3.234   4.670  19.869  0.00  0.00    +0.000 N 
ATOM     10  N   UNL     1       4.361   5.305  19.487  0.00  0.00    +0.000 NA
ATOM     11  H   UNL     1       7.034   3.536  19.109  0.00  0.00    +0.000 HD
ENDROOT
BRANCH   1  12
ATOM     12  C   UNL     1       7.232   5.620  19.289  0.00  0.00    +0.000 C 
BRANCH  12  13
ATOM     13  C   UNL     1       7.460   6.463  18.031  0.00  0.00    +0.000 C 
BRANCH  13  17
ATOM     14  C   UNL     1       5.697   4.676  14.507  0.00  0.00    +0.000 A 
ATOM     15  C   UNL     1       6.852   4.135  15.073  0.00  0.00    +0.000 A 
ATOM     16  C   UNL     1       7.416   4.701  16.219  0.00  0.00    +0.000 A 
ATOM     17  C   UNL     1       6.839   5.831  16.809  0.00  0.00    +0.000 A 
ATOM     18  C   UNL     1       5.695   6.387  16.221  0.00  0.00    +0.000 A 
ATOM     19  C   UNL     1       5.126   5.813  15.079  0.00  0.00    +0.000 A 
BRANCH  14  21
ATOM     20  C   UNL     1       6.250   3.521  12.517  0.00  0.00    +0.000 C 
ATOM     21  O   UNL     1       5.247   4.043  13.381  0.00  0.00    +0.000 OA
ENDBRANCH  14  21
ENDBRANCH  13  17
ENDBRANCH  12  13
ENDBRANCH   1  12
TORSDOF 4
ENDMDL
MODEL 2
REMARK VINA RESULT:      -7.8      2.710      6.196
REMARK  Name = 
REMARK  5 active torsions:
REMARK  status: ('A' for Active; 'I' for Inactive)
REMARK    1  A    between atoms: C_1  and  O_2
REMARK    2  A    between atoms: O_2  and  C_3
REMARK    3  A    between atoms: C_6  and  C_7
REMARK    4  A    between atoms: C_7  and  C_8
REMARK    5  A    between atoms: C_8  and  N_9
REMARK                            x       y       z     vdW  Elec       q    Type
REMARK                         _______ _______ _______ _____ _____    ______ ____
ROOT
ATOM      1  N   UNL     1       7.434   5.654  17.140  0.00  0.00    +0.000 N 
ATOM      2  C   UNL     1       7.118   5.158  15.934  0.00  0.00    +0.000 A 
ATOM      3  N   UNL     1       7.822   5.618  14.863  0.00  0.00    +0.000 NA
ATOM      4  C   UNL     1       7.318   4.934  13.859  0.00  0.00    +0.000 A 
ATOM      5  C   UNL     1       7.608   4.910  12.466  0.00  0.00    +0.000 A 
ATOM      6  C   UNL     1       6.910   4.093  11.654  0.00  0.00    +0.000 A 
ATOM      7  C   UNL     1       5.858   3.229  12.166  0.00  0.00    +0.000 A 
ATOM      8  C   UNL     1       5.591   3.242  13.482  0.00  0.00    +0.000 A 
ATOM      9  N   UNL     1       6.313   4.084  14.327  0.00  0.00    +0.000 N 
ATOM     10  N   UNL     1       6.206   4.225  15.664  0.00  0.00    +0.000 NA
ATOM     11  H   UNL     1       8.290   6.195  17.145  0.00  0.00    +0.000 HD
ENDROOT
BRANCH   1  12
ATOM     12  C   UNL     1       7.223   4.809  18.310  0.00  0.00    +0.000 C 
BRANCH  12  13
ATOM     13  C   UNL     1       6.165   5.414  19.237  0.00  0.00    +0.000 C 
BRANCH  13  17
ATOM     14  C   UNL     1       2.204   3.962  18.274  0.00  0.00    +0.000 A 
ATOM     15  C   UNL     1       3.107   3.152  18.966  0.00  0.00    +0.000 A 
ATOM     16  C   UNL     1       4.382   3.623  19.290  0.00  0.00    +0.000 A 
ATOM     17  C   UNL     1       4.779   4.910  18.913  0.00  0.00    +0.000 A 
ATOM     18  C   UNL     1       3.879   5.710  18.196  0.00  0.00    +0.000 A 
ATOM     19  C   UNL     1       2.599   5.240  17.880  0.00  0.00    +0.000 A 
BRANCH  14  21
ATOM     20  C   UNL     1       0.661   2.241  18.780  0.00  0.00    +0.000 C 
ATOM     21  O   UNL     1       0.993   3.387  18.004  0.00  0.00    +0.000 OA
ENDBRANCH  14  21
ENDBRANCH  13  17
ENDBRANCH  12  13
ENDBRANCH   1  12
TORSDOF 4
ENDMDL
MODEL 3
REMARK VINA RESULT:      -7.7      0.102      1.081
REMARK  Name = 
REMARK  5 active torsions:
REMARK  status: ('A' for Active; 'I' for Inactive)
REMARK    1  A    between atoms: C_1  and  O_2
REMARK    2  A    between atoms: O_2  and  C_3
REMARK    3  A    between atoms: C_6  and  C_7
REMARK    4  A    between atoms: C_7  and  C_8
REMARK    5  A    between atoms: C_8  and  N_9
REMARK                            x       y       z     vdW  Elec       q    Type
REMARK                         _______ _______ _______ _____ _____    ______ ____
ROOT
ATOM      1  N   UNL     1       6.546   4.388  18.922  0.00  0.00    +0.000 N 
ATOM      2  C   UNL     1       5.256   4.320  19.288  0.00  0.00    +0.000 A 
ATOM      3  N   UNL     1       4.745   3.087  19.556  0.00  0.00    +0.000 NA
ATOM      4  C   UNL     1       3.507   3.349  19.914  0.00  0.00    +0.000 A 
ATOM      5  C   UNL     1       2.430   2.521  20.336  0.00  0.00    +0.000 A 
ATOM      6  C   UNL     1       1.241   3.077  20.640  0.00  0.00    +0.000 A 
ATOM      7  C   UNL     1       1.027   4.513  20.545  0.00  0.00    +0.000 A 
ATOM      8  C   UNL     1       2.046   5.296  20.157  0.00  0.00    +0.000 A 
ATOM      9  N   UNL     1       3.279   4.725  19.844  0.00  0.00    +0.000 N 
ATOM     10  N   UNL     1       4.415   5.339  19.457  0.00  0.00    +0.000 NA
ATOM     11  H   UNL     1       7.052   3.521  19.055  0.00  0.00    +0.000 HD
ENDROOT
BRANCH   1  12
ATOM     12  C   UNL     1       7.290   5.601  19.241  0.00  0.00    +0.000 C 
BRANCH  12  13
ATOM     13  C   UNL     1       7.406   6.510  18.015  0.00  0.00    +0.000 C 
BRANCH  13  17
ATOM     14  C   UNL     1       5.794   4.607  14.479  0.00  0.00    +0.000 A 
ATOM     15  C   UNL     1       5.131   5.686  15.067  0.00  0.00    +0.000 A 
ATOM     16  C   UNL     1       5.656   6.311  16.201  0.00  0.00    +0.000 A 
ATOM     17  C   UNL     1       6.849   5.855  16.773  0.00  0.00    +0.000 A 
ATOM     18  C   UNL     1       7.496   4.755  16.196  0.00  0.00    +0.000 A 
ATOM     19  C   UNL     1       6.973   4.136  15.054  0.00  0.00    +0.000 A 
BRANCH  14  21
ATOM     20  C   UNL     1       6.025   3.402  12.456  0.00  0.00    +0.000 C 
ATOM     21  O   UNL     1       5.176   4.071  13.382  0.00  0.00    +0.000 OA
ENDBRANCH  14  21
ENDBRANCH  13  17
ENDBRANCH  12  13
ENDBRANCH   1  12
TORSDOF 4
ENDMDL
MODEL 4
REMARK VINA RESULT:      -7.7      1.229      2.035
REMARK  Name = 
REMARK  5 active torsions:
REMARK  status: ('A' for Active; 'I' for Inactive)
REMARK    1  A    between atoms: C_1  and  O_2
REMARK    2  A    between atoms: O_2  and  C_3
REMARK    3  A    between atoms: C_6  and  C_7
REMARK    4  A    between atoms: C_7  and  C_8
REMARK    5  A    between atoms: C_8  and  N_9
REMARK                            x       y       z     vdW  Elec       q    Type
REMARK                         _______ _______ _______ _____ _____    ______ ____
ROOT
ATOM      1  N   UNL     1       6.336   5.068  19.064  0.00  0.00    +0.000 N 
ATOM      2  C   UNL     1       5.105   4.544  19.170  0.00  0.00    +0.000 A 
ATOM      3  N   UNL     1       4.173   5.265  19.852  0.00  0.00    +0.000 NA
ATOM      4  C   UNL     1       3.091   4.525  19.751  0.00  0.00    +0.000 A 
ATOM      5  C   UNL     1       1.758   4.697  20.221  0.00  0.00    +0.000 A 
ATOM      6  C   UNL     1       0.836   3.748  19.968  0.00  0.00    +0.000 A 
ATOM      7  C   UNL     1       1.168   2.543  19.224  0.00  0.00    +0.000 A 
ATOM      8  C   UNL     1       2.422   2.386  18.771  0.00  0.00    +0.000 A 
ATOM      9  N   UNL     1       3.380   3.366  19.028  0.00  0.00    +0.000 N 
ATOM     10  N   UNL     1       4.673   3.398  18.646  0.00  0.00    +0.000 NA
ATOM     11  H   UNL     1       6.392   6.036  19.357  0.00  0.00    +0.000 HD
ENDROOT
BRANCH   1  12
ATOM     12  C   UNL     1       7.133   4.724  17.892  0.00  0.00    +0.000 C 
BRANCH  12  13
ATOM     13  C   UNL     1       6.932   5.751  16.774  0.00  0.00    +0.000 C 
BRANCH  13  17
ATOM     14  C   UNL     1       6.104   3.828  12.987  0.00  0.00    +0.000 A 
ATOM     15  C   UNL     1       5.181   3.761  14.033  0.00  0.00    +0.000 A 
ATOM     16  C   UNL     1       5.439   4.393  15.252  0.00  0.00    +0.000 A 
ATOM     17  C   UNL     1       6.636   5.090  15.449  0.00  0.00    +0.000 A 
ATOM     18  C   UNL     1       7.571   5.132  14.406  0.00  0.00    +0.000 A 
ATOM     19  C   UNL     1       7.306   4.506  13.182  0.00  0.00    +0.000 A 
BRANCH  14  21
ATOM     20  C   UNL     1       4.359   3.187  11.523  0.00  0.00    +0.000 C 
ATOM     21  O   UNL     1       5.744   3.160  11.849  0.00  0.00    +0.000 OA
ENDBRANCH  14  21
ENDBRANCH  13  17
ENDBRANCH  12  13
ENDBRANCH   1  12
TORSDOF 4
ENDMDL
MODEL 5
REMARK VINA RESULT:      -7.7      1.212      1.857
REMARK  Name = 
REMARK  5 active torsions:
REMARK  status: ('A' for Active; 'I' for Inactive)
REMARK    1  A    between atoms: C_1  and  O_2
REMARK    2  A    between atoms: O_2  and  C_3
REMARK    3  A    between atoms: C_6  and  C_7
REMARK    4  A    between atoms: C_7  and  C_8
REMARK    5  A    between atoms: C_8  and  N_9
REMARK                            x       y       z     vdW  Elec       q    Type
REMARK                         _______ _______ _______ _____ _____    ______ ____
ROOT
ATOM      1  N   UNL     1       6.295   5.361  19.121  0.00  0.00    +0.000 N 
ATOM      2  C   UNL     1       5.114   4.732  19.224  0.00  0.00    +0.000 A 
ATOM      3  N   UNL     1       4.090   5.412  19.810  0.00  0.00    +0.000 NA
ATOM      4  C   UNL     1       3.086   4.566  19.730  0.00  0.00    +0.000 A 
ATOM      5  C   UNL     1       1.724   4.645  20.134  0.00  0.00    +0.000 A 
ATOM      6  C   UNL     1       0.905   3.596  19.925  0.00  0.00    +0.000 A 
ATOM      7  C   UNL     1       1.380   2.374  19.294  0.00  0.00    +0.000 A 
ATOM      8  C   UNL     1       2.662   2.303  18.902  0.00  0.00    +0.000 A 
ATOM      9  N   UNL     1       3.513   3.388  19.114  0.00  0.00    +0.000 N 
ATOM     10  N   UNL     1       4.813   3.513  18.779  0.00  0.00    +0.000 NA
ATOM     11  H   UNL     1       6.248   6.350  19.337  0.00  0.00    +0.000 HD
ENDROOT
BRANCH   1  12
ATOM     12  C   UNL     1       7.171   5.006  18.011  0.00  0.00    +0.000 C 
BRANCH  12  13
ATOM     13  C   UNL     1       6.958   5.948  16.823  0.00  0.00    +0.000 C 
BRANCH  13  17
ATOM     14  C   UNL     1       5.994   3.815  13.184  0.00  0.00    +0.000 A 
ATOM     15  C   UNL     1       7.226   4.456  13.324  0.00  0.00    +0.000 A 
ATOM     16  C   UNL     1       7.546   5.134  14.503  0.00  0.00    +0.000 A 
ATOM     17  C   UNL     1       6.628   5.193  15.558  0.00  0.00    +0.000 A 
ATOM     18  C   UNL     1       5.382   4.571  15.402  0.00  0.00    +0.000 A 
ATOM     19  C   UNL     1       5.067   3.885  14.223  0.00  0.00    +0.000 A 
BRANCH  14  21
ATOM     20  C   UNL     1       4.447   3.168  11.514  0.00  0.00    +0.000 C 
ATOM     21  O   UNL     1       5.791   3.196  11.981  0.00  0.00    +0.000 OA
ENDBRANCH  14  21
ENDBRANCH  13  17
ENDBRANCH  12  13
ENDBRANCH   1  12
TORSDOF 4
ENDMDL
MODEL 6
REMARK VINA RESULT:      -7.6      5.712      7.461
REMARK  Name = 
REMARK  5 active torsions:
REMARK  status: ('A' for Active; 'I' for Inactive)
REMARK    1  A    between atoms: C_1  and  O_2
REMARK    2  A    between atoms: O_2  and  C_3
REMARK    3  A    between atoms: C_6  and  C_7
REMARK    4  A    between atoms: C_7  and  C_8
REMARK    5  A    between atoms: C_8  and  N_9
REMARK                            x       y       z     vdW  Elec       q    Type
REMARK                         _______ _______ _______ _____ _____    ______ ____
ROOT
ATOM      1  N   UNL     1       8.535   7.995  18.676  0.00  0.00    +0.000 N 
ATOM      2  C   UNL     1       7.717   7.132  18.053  0.00  0.00    +0.000 A 
ATOM      3  N   UNL     1       7.281   6.057  18.765  0.00  0.00    +0.000 NA
ATOM      4  C   UNL     1       6.490   5.438  17.916  0.00  0.00    +0.000 A 
ATOM      5  C   UNL     1       5.699   4.259  18.017  0.00  0.00    +0.000 A 
ATOM      6  C   UNL     1       4.975   3.849  16.958  0.00  0.00    +0.000 A 
ATOM      7  C   UNL     1       4.981   4.584  15.703  0.00  0.00    +0.000 A 
ATOM      8  C   UNL     1       5.717   5.703  15.610  0.00  0.00    +0.000 A 
ATOM      9  N   UNL     1       6.466   6.132  16.705  0.00  0.00    +0.000 N 
ATOM     10  N   UNL     1       7.246   7.228  16.811  0.00  0.00    +0.000 NA
ATOM     11  H   UNL     1       8.601   7.842  19.675  0.00  0.00    +0.000 HD
ENDROOT
BRANCH   1  12
ATOM     12  C   UNL     1       8.512   9.392  18.258  0.00  0.00    +0.000 C 
BRANCH  12  13
ATOM     13  C   UNL     1       9.311  10.266  19.229  0.00  0.00    +0.000 C 
BRANCH  13  17
ATOM     14  C   UNL     1      10.772  13.887  17.363  0.00  0.00    +0.000 A 
ATOM     15  C   UNL     1      11.559  12.734  17.385  0.00  0.00    +0.000 A 
ATOM     16  C   UNL     1      11.085  11.560  17.975  0.00  0.00    +0.000 A 
ATOM     17  C   UNL     1       9.817  11.525  18.566  0.00  0.00    +0.000 A 
ATOM     18  C   UNL     1       9.041  12.692  18.565  0.00  0.00    +0.000 A 
ATOM     19  C   UNL     1       9.515  13.865  17.966  0.00  0.00    +0.000 A 
BRANCH  14  21
ATOM     20  C   UNL     1      10.679  16.217  16.963  0.00  0.00    +0.000 C 
ATOM     21  O   UNL     1      11.349  14.976  16.770  0.00  0.00    +0.000 OA
ENDBRANCH  14  21
ENDBRANCH  13  17
ENDBRANCH  12  13
ENDBRANCH   1  12
TORSDOF 4
ENDMDL
MODEL 7
REMARK VINA RESULT:      -7.6      2.641      6.182
REMARK  Name = 
REMARK  5 active torsions:
REMARK  status: ('A' for Active; 'I' for Inactive)
REMARK    1  A    between atoms: C_1  and  O_2
REMARK    2  A    between atoms: O_2  and  C_3
REMARK    3  A    between atoms: C_6  and  C_7
REMARK    4  A    between atoms: C_7  and  C_8
REMARK    5  A    between atoms: C_8  and  N_9
REMARK                            x       y       z     vdW  Elec       q    Type
REMARK                         _______ _______ _______ _____ _____    ______ ____
ROOT
ATOM      1  N   UNL     1       3.924   2.177  17.673  0.00  0.00    +0.000 N 
ATOM      2  C   UNL     1       4.808   3.178  17.806  0.00  0.00    +0.000 A 
ATOM      3  N   UNL     1       5.224   3.802  16.670  0.00  0.00    +0.000 NA
ATOM      4  C   UNL     1       6.034   4.735  17.121  0.00  0.00    +0.000 A 
ATOM      5  C   UNL     1       6.794   5.748  16.473  0.00  0.00    +0.000 A 
ATOM      6  C   UNL     1       7.558   6.579  17.207  0.00  0.00    +0.000 A 
ATOM      7  C   UNL     1       7.630   6.467  18.656  0.00  0.00    +0.000 A 
ATOM      8  C   UNL     1       6.905   5.518  19.269  0.00  0.00    +0.000 A 
ATOM      9  N   UNL     1       6.110   4.657  18.513  0.00  0.00    +0.000 N 
ATOM     10  N   UNL     1       5.305   3.664  18.942  0.00  0.00    +0.000 NA
ATOM     11  H   UNL     1       3.526   2.108  16.744  0.00  0.00    +0.000 HD
ENDROOT
BRANCH   1  12
ATOM     12  C   UNL     1       2.997   1.925  18.770  0.00  0.00    +0.000 C 
BRANCH  12  13
ATOM     13  C   UNL     1       1.674   2.663  18.547  0.00  0.00    +0.000 C 
BRANCH  13  17
ATOM     14  C   UNL     1       1.899   6.760  19.922  0.00  0.00    +0.000 A 
ATOM     15  C   UNL     1       2.148   6.446  18.585  0.00  0.00    +0.000 A 
ATOM     16  C   UNL     1       2.063   5.126  18.134  0.00  0.00    +0.000 A 
ATOM     17  C   UNL     1       1.740   4.095  19.023  0.00  0.00    +0.000 A 
ATOM     18  C   UNL     1       1.517   4.410  20.369  0.00  0.00    +0.000 A 
ATOM     19  C   UNL     1       1.594   5.734  20.816  0.00  0.00    +0.000 A 
BRANCH  14  21
ATOM     20  C   UNL     1       1.242   8.532  21.345  0.00  0.00    +0.000 C 
ATOM     21  O   UNL     1       2.025   8.083  20.245  0.00  0.00    +0.000 OA
ENDBRANCH  14  21
ENDBRANCH  13  17
ENDBRANCH  12  13
ENDBRANCH   1  12
TORSDOF 4
ENDMDL
MODEL 8
REMARK VINA RESULT:      -7.5      5.756      7.579
REMARK  Name = 
REMARK  5 active torsions:
REMARK  status: ('A' for Active; 'I' for Inactive)
REMARK    1  A    between atoms: C_1  and  O_2
REMARK    2  A    between atoms: O_2  and  C_3
REMARK    3  A    between atoms: C_6  and  C_7
REMARK    4  A    between atoms: C_7  and  C_8
REMARK    5  A    between atoms: C_8  and  N_9
REMARK                            x       y       z     vdW  Elec       q    Type
REMARK                         _______ _______ _______ _____ _____    ______ ____
ROOT
ATOM      1  N   UNL     1       8.615   8.060  18.716  0.00  0.00    +0.000 N 
ATOM      2  C   UNL     1       7.773   7.201  18.120  0.00  0.00    +0.000 A 
ATOM      3  N   UNL     1       7.374   6.115  18.837  0.00  0.00    +0.000 NA
ATOM      4  C   UNL     1       6.548   5.503  18.018  0.00  0.00    +0.000 A 
ATOM      5  C   UNL     1       5.768   4.319  18.140  0.00  0.00    +0.000 A 
ATOM      6  C   UNL     1       4.999   3.919  17.110  0.00  0.00    +0.000 A 
ATOM      7  C   UNL     1       4.944   4.669  15.865  0.00  0.00    +0.000 A 
ATOM      8  C   UNL     1       5.670   5.792  15.752  0.00  0.00    +0.000 A 
ATOM      9  N   UNL     1       6.466   6.212  16.817  0.00  0.00    +0.000 N 
ATOM     10  N   UNL     1       7.245   7.310  16.902  0.00  0.00    +0.000 NA
ATOM     11  H   UNL     1       8.726   7.895  19.709  0.00  0.00    +0.000 HD
ENDROOT
BRANCH   1  12
ATOM     12  C   UNL     1       8.566   9.462  18.317  0.00  0.00    +0.000 C 
BRANCH  12  13
ATOM     13  C   UNL     1       9.274  10.348  19.347  0.00  0.00    +0.000 C 
BRANCH  13  17
ATOM     14  C   UNL     1      10.696  14.022  17.557  0.00  0.00    +0.000 A 
ATOM     15  C   UNL     1       9.706  14.050  18.541  0.00  0.00    +0.000 A 
ATOM     16  C   UNL     1       9.254  12.866  19.130  0.00  0.00    +0.000 A 
ATOM     17  C   UNL     1       9.778  11.632  18.732  0.00  0.00    +0.000 A 
ATOM     18  C   UNL     1      10.752  11.607  17.726  0.00  0.00    +0.000 A 
ATOM     19  C   UNL     1      11.210  12.794  17.143  0.00  0.00    +0.000 A 
BRANCH  14  21
ATOM     20  C   UNL     1      10.103  16.291  17.240  0.00  0.00    +0.000 C 
ATOM     21  O   UNL     1      11.046  15.242  17.047  0.00  0.00    +0.000 OA
ENDBRANCH  14  21
ENDBRANCH  13  17
ENDBRANCH  12  13
ENDBRANCH   1  12
TORSDOF 4
ENDMDL
MODEL 9
REMARK VINA RESULT:      -7.5      2.893      6.701
REMARK  Name = 
REMARK  5 active torsions:
REMARK  status: ('A' for Active; 'I' for Inactive)
REMARK    1  A    between atoms: C_1  and  O_2
REMARK    2  A    between atoms: O_2  and  C_3
REMARK    3  A    between atoms: C_6  and  C_7
REMARK    4  A    between atoms: C_7  and  C_8
REMARK    5  A    between atoms: C_8  and  N_9
REMARK                            x       y       z     vdW  Elec       q    Type
REMARK                         _______ _______ _______ _____ _____    ______ ____
ROOT
ATOM      1  N   UNL     1       6.288   4.434  17.323  0.00  0.00    +0.000 N 
ATOM      2  C   UNL     1       6.559   4.455  16.009  0.00  0.00    +0.000 A 
ATOM      3  N   UNL     1       6.010   3.474  15.240  0.00  0.00    +0.000 NA
ATOM      4  C   UNL     1       6.419   3.781  14.029  0.00  0.00    +0.000 A 
ATOM      5  C   UNL     1       6.197   3.184  12.756  0.00  0.00    +0.000 A 
ATOM      6  C   UNL     1       6.761   3.725  11.659  0.00  0.00    +0.000 A 
ATOM      7  C   UNL     1       7.600   4.911  11.741  0.00  0.00    +0.000 A 
ATOM      8  C   UNL     1       7.801   5.481  12.940  0.00  0.00    +0.000 A 
ATOM      9  N   UNL     1       7.216   4.926  14.078  0.00  0.00    +0.000 N 
ATOM     10  N   UNL     1       7.285   5.359  15.353  0.00  0.00    +0.000 NA
ATOM     11  H   UNL     1       5.554   3.784  17.576  0.00  0.00    +0.000 HD
ENDROOT
BRANCH   1  12
ATOM     12  C   UNL     1       6.275   5.701  18.044  0.00  0.00    +0.000 C 
BRANCH  12  13
ATOM     13  C   UNL     1       4.932   6.416  17.868  0.00  0.00    +0.000 C 
BRANCH  13  17
ATOM     14  C   UNL     1       1.696   4.163  19.652  0.00  0.00    +0.000 A 
ATOM     15  C   UNL     1       2.541   4.940  20.446  0.00  0.00    +0.000 A 
ATOM     16  C   UNL     1       3.578   5.680  19.872  0.00  0.00    +0.000 A 
ATOM     17  C   UNL     1       3.795   5.640  18.490  0.00  0.00    +0.000 A 
ATOM     18  C   UNL     1       2.962   4.837  17.700  0.00  0.00    +0.000 A 
ATOM     19  C   UNL     1       1.918   4.105  18.276  0.00  0.00    +0.000 A 
BRANCH  14  21
ATOM     20  C   UNL     1       1.186   2.597  21.350  0.00  0.00    +0.000 C 
ATOM     21  O   UNL     1       0.727   3.475  20.329  0.00  0.00    +0.000 OA
ENDBRANCH  14  21
ENDBRANCH  13  17
ENDBRANCH  12  13
ENDBRANCH   1  12
TORSDOF 4
ENDMDL
