MODEL 1
REMARK VINA RESULT:      -7.7      0.000      0.000
REMARK  Name = 
REMARK  7 active torsions:
REMARK  status: ('A' for Active; 'I' for Inactive)
REMARK    1  A    between atoms: C_1  and  S_2
REMARK    2  A    between atoms: S_2  and  C_3
REMARK    3  A    between atoms: N_6  and  C_7
REMARK    4  A    between atoms: C_11  and  O_12
REMARK    5  A    between atoms: N_17  and  C_18
REMARK    6  A    between atoms: C_18  and  C_19
REMARK    7  A    between atoms: C_19  and  C_20
REMARK                            x       y       z     vdW  Elec       q    Type
REMARK                         _______ _______ _______ _____ _____    ______ ____
ROOT
ATOM      1  C   UNL     1       2.372   5.410  20.210  0.00  0.00    +0.000 A 
ATOM      2  N   UNL     1       3.139   5.484  19.111  0.00  0.00    +0.000 NA
ATOM      3  C   UNL     1       3.176   6.623  18.372  0.00  0.00    +0.000 A 
ATOM      4  N   UNL     1       3.958   6.668  17.212  0.00  0.00    +0.000 N 
ATOM      5  C   UNL     1       2.398   7.697  18.815  0.00  0.00    +0.000 A 
ATOM      6  C   UNL     1       2.121   9.025  18.434  0.00  0.00    +0.000 A 
ATOM      7  N   UNL     1       1.286   9.644  19.275  0.00  0.00    +0.000 NA
ATOM      8  N   UNL     1       1.018   8.699  20.213  0.00  0.00    +0.000 N 
ATOM      9  C   UNL     1       1.663   7.513  19.971  0.00  0.00    +0.000 A 
ATOM     10  N   UNL     1       1.601   6.389  20.703  0.00  0.00    +0.000 NA
ATOM     11  H   UNL     1       3.806   7.452  16.592  0.00  0.00    +0.000 HD
ENDROOT
BRANCH   4  12
ATOM     12  C   UNL     1       5.135   5.944  16.954  0.00  0.00    +0.000 A 
ATOM     13  C   UNL     1       6.246   6.018  17.808  0.00  0.00    +0.000 A 
ATOM     14  C   UNL     1       7.397   5.268  17.566  0.00  0.00    +0.000 A 
ATOM     15  C   UNL     1       7.446   4.405  16.474  0.00  0.00    +0.000 A 
ATOM     16  C   UNL     1       6.342   4.314  15.633  0.00  0.00    +0.000 A 
ATOM     17  C   UNL     1       5.198   5.079  15.857  0.00  0.00    +0.000 A 
BRANCH  16  18
ATOM     18  O   UNL     1       6.339   3.460  14.568  0.00  0.00    +0.000 OA
ATOM     19  H   UNL     1       6.979   2.752  14.742  0.00  0.00    +0.000 HD
ENDBRANCH  16  18
ENDBRANCH   4  12
BRANCH   1  21
ATOM     20  C   UNL     1       0.976   3.049  20.230  0.00  0.00    +0.000 C 
ATOM     21  S   UNL     1       2.375   3.844  21.054  0.00  0.00    +0.000 S 
ENDBRANCH   1  21
BRANCH   8  22
ATOM     22  C   UNL     1       0.052   9.003  21.255  0.00  0.00    +0.000 C 
BRANCH  22  23
ATOM     23  C   UNL     1       0.286  10.310  22.014  0.00  0.00    +0.000 C 
BRANCH  23  24
ATOM     24  C   UNL     1      -0.942  11.187  22.026  0.00  0.00    +0.000 A 
ATOM     25  C   UNL     1      -1.670  11.357  23.213  0.00  0.00    +0.000 A 
ATOM     26  C   UNL     1      -2.805  12.168  23.236  0.00  0.00    +0.000 A 
ATOM     27  C   UNL     1      -3.226  12.809  22.075  0.00  0.00    +0.000 A 
ATOM     28  C   UNL     1      -2.513  12.641  20.889  0.00  0.00    +0.000 A 
ATOM     29  C   UNL     1      -1.375  11.831  20.862  0.00  0.00    +0.000 A 
ENDBRANCH  23  24
ENDBRANCH  22  23
ENDBRANCH   8  22
TORSDOF 6
ENDMDL
MODEL 2
REMARK VINA RESULT:      -7.6      0.570      1.077
REMARK  Name = 
REMARK  7 active torsions:
REMARK  status: ('A' for Active; 'I' for Inactive)
REMARK    1  A    between atoms: C_1  and  S_2
REMARK    2  A    between atoms: S_2  and  C_3
REMARK    3  A    between atoms: N_6  and  C_7
REMARK    4  A    between atoms: C_11  and  O_12
REMARK    5  A    between atoms: N_17  and  C_18
REMARK    6  A    between atoms: C_18  and  C_19
REMARK    7  A    between atoms: C_19  and  C_20
REMARK                            x       y       z     vdW  Elec       q    Type
REMARK                         _______ _______ _______ _____ _____    ______ ____
ROOT
ATOM      1  C   UNL     1       2.298   5.912  20.088  0.00  0.00    +0.000 A 
ATOM      2  N   UNL     1       3.089   5.889  19.004  0.00  0.00    +0.000 NA
ATOM      3  C   UNL     1       3.162   6.968  18.182  0.00  0.00    +0.000 A 
ATOM      4  N   UNL     1       3.969   6.912  17.039  0.00  0.00    +0.000 N 
ATOM      5  C   UNL     1       2.398   8.087  18.527  0.00  0.00    +0.000 A 
ATOM      6  C   UNL     1       2.155   9.387  18.042  0.00  0.00    +0.000 A 
ATOM      7  N   UNL     1       1.316  10.083  18.817  0.00  0.00    +0.000 NA
ATOM      8  N   UNL     1       1.011   9.217  19.817  0.00  0.00    +0.000 N 
ATOM      9  C   UNL     1       1.636   8.004  19.678  0.00  0.00    +0.000 A 
ATOM     10  N   UNL     1       1.537   6.940  20.490  0.00  0.00    +0.000 NA
ATOM     11  H   UNL     1       3.845   7.649  16.360  0.00  0.00    +0.000 HD
ENDROOT
BRANCH   4  12
ATOM     12  C   UNL     1       5.136   6.148  16.861  0.00  0.00    +0.000 A 
ATOM     13  C   UNL     1       6.240   6.283  17.717  0.00  0.00    +0.000 A 
ATOM     14  C   UNL     1       7.381   5.496  17.556  0.00  0.00    +0.000 A 
ATOM     15  C   UNL     1       7.425   4.535  16.549  0.00  0.00    +0.000 A 
ATOM     16  C   UNL     1       6.327   4.385  15.708  0.00  0.00    +0.000 A 
ATOM     17  C   UNL     1       5.194   5.185  15.849  0.00  0.00    +0.000 A 
BRANCH  16  18
ATOM     18  O   UNL     1       6.319   3.437  14.726  0.00  0.00    +0.000 OA
ATOM     19  H   UNL     1       5.528   2.887  14.838  0.00  0.00    +0.000 HD
ENDBRANCH  16  18
ENDBRANCH   4  12
BRANCH   1  21
ATOM     20  C   UNL     1       2.354   3.195  19.716  0.00  0.00    +0.000 C 
ATOM     21  S   UNL     1       2.252   4.414  21.046  0.00  0.00    +0.000 S 
ENDBRANCH   1  21
BRANCH   8  22
ATOM     22  C   UNL     1       0.031   9.615  20.812  0.00  0.00    +0.000 C 
BRANCH  22  23
ATOM     23  C   UNL     1       0.179  11.038  21.354  0.00  0.00    +0.000 C 
BRANCH  23  24
ATOM     24  C   UNL     1      -1.151  11.648  21.721  0.00  0.00    +0.000 A 
ATOM     25  C   UNL     1      -1.914  12.305  20.746  0.00  0.00    +0.000 A 
ATOM     26  C   UNL     1      -3.147  12.870  21.074  0.00  0.00    +0.000 A 
ATOM     27  C   UNL     1      -3.624  12.789  22.379  0.00  0.00    +0.000 A 
ATOM     28  C   UNL     1      -2.869  12.144  23.357  0.00  0.00    +0.000 A 
ATOM     29  C   UNL     1      -1.636  11.576  23.033  0.00  0.00    +0.000 A 
ENDBRANCH  23  24
ENDBRANCH  22  23
ENDBRANCH   8  22
TORSDOF 6
ENDMDL
MODEL 3
REMARK VINA RESULT:      -7.6      1.674      2.219
REMARK  Name = 
REMARK  7 active torsions:
REMARK  status: ('A' for Active; 'I' for Inactive)
REMARK    1  A    between atoms: C_1  and  S_2
REMARK    2  A    between atoms: S_2  and  C_3
REMARK    3  A    between atoms: N_6  and  C_7
REMARK    4  A    between atoms: C_11  and  O_12
REMARK    5  A    between atoms: N_17  and  C_18
REMARK    6  A    between atoms: C_18  and  C_19
REMARK    7  A    between atoms: C_19  and  C_20
REMARK                            x       y       z     vdW  Elec       q    Type
REMARK                         _______ _______ _______ _____ _____    ______ ____
ROOT
ATOM      1  C   UNL     1       2.223   6.253  19.895  0.00  0.00    +0.000 A 
ATOM      2  N   UNL     1       3.071   6.150  18.860  0.00  0.00    +0.000 NA
ATOM      3  C   UNL     1       3.237   7.189  18.000  0.00  0.00    +0.000 A 
ATOM      4  N   UNL     1       4.103   7.050  16.909  0.00  0.00    +0.000 N 
ATOM      5  C   UNL     1       2.503   8.352  18.253  0.00  0.00    +0.000 A 
ATOM      6  C   UNL     1       2.344   9.638  17.702  0.00  0.00    +0.000 A 
ATOM      7  N   UNL     1       1.494  10.401  18.397  0.00  0.00    +0.000 NA
ATOM      8  N   UNL     1       1.097   9.592  19.413  0.00  0.00    +0.000 N 
ATOM      9  C   UNL     1       1.675   8.350  19.361  0.00  0.00    +0.000 A 
ATOM     10  N   UNL     1       1.486   7.328  20.210  0.00  0.00    +0.000 NA
ATOM     11  H   UNL     1       4.049   7.761  16.193  0.00  0.00    +0.000 HD
ENDROOT
BRANCH   4  12
ATOM     12  C   UNL     1       5.244   6.232  16.830  0.00  0.00    +0.000 A 
ATOM     13  C   UNL     1       6.313   6.374  17.728  0.00  0.00    +0.000 A 
ATOM     14  C   UNL     1       7.426   5.536  17.667  0.00  0.00    +0.000 A 
ATOM     15  C   UNL     1       7.476   4.517  16.720  0.00  0.00    +0.000 A 
ATOM     16  C   UNL     1       6.412   4.359  15.838  0.00  0.00    +0.000 A 
ATOM     17  C   UNL     1       5.308   5.209  15.879  0.00  0.00    +0.000 A 
BRANCH  16  18
ATOM     18  O   UNL     1       6.410   3.356  14.912  0.00  0.00    +0.000 OA
ATOM     19  H   UNL     1       6.391   3.756  14.028  0.00  0.00    +0.000 HD
ENDBRANCH  16  18
ENDBRANCH   4  12
BRANCH   1  21
ATOM     20  C   UNL     1       2.666   3.550  19.757  0.00  0.00    +0.000 C 
ATOM     21  S   UNL     1       2.060   4.802  20.911  0.00  0.00    +0.000 S 
ENDBRANCH   1  21
BRANCH   8  22
ATOM     22  C   UNL     1       0.080  10.074  20.333  0.00  0.00    +0.000 C 
BRANCH  22  23
ATOM     23  C   UNL     1      -0.591  11.392  19.946  0.00  0.00    +0.000 C 
BRANCH  23  24
ATOM     24  C   UNL     1      -1.863  11.174  19.165  0.00  0.00    +0.000 A 
ATOM     25  C   UNL     1      -1.954  10.113  18.253  0.00  0.00    +0.000 A 
ATOM     26  C   UNL     1      -3.127   9.901  17.528  0.00  0.00    +0.000 A 
ATOM     27  C   UNL     1      -4.215  10.750  17.702  0.00  0.00    +0.000 A 
ATOM     28  C   UNL     1      -4.133  11.813  18.601  0.00  0.00    +0.000 A 
ATOM     29  C   UNL     1      -2.961  12.027  19.330  0.00  0.00    +0.000 A 
ENDBRANCH  23  24
ENDBRANCH  22  23
ENDBRANCH   8  22
TORSDOF 6
ENDMDL
MODEL 4
REMARK VINA RESULT:      -7.6      1.942      2.538
REMARK  Name = 
REMARK  7 active torsions:
REMARK  status: ('A' for Active; 'I' for Inactive)
REMARK    1  A    between atoms: C_1  and  S_2
REMARK    2  A    between atoms: S_2  and  C_3
REMARK    3  A    between atoms: N_6  and  C_7
REMARK    4  A    between atoms: C_11  and  O_12
REMARK    5  A    between atoms: N_17  and  C_18
REMARK    6  A    between atoms: C_18  and  C_19
REMARK    7  A    between atoms: C_19  and  C_20
REMARK                            x       y       z     vdW  Elec       q    Type
REMARK                         _______ _______ _______ _____ _____    ______ ____
ROOT
ATOM      1  C   UNL     1       2.188   6.186  19.967  0.00  0.00    +0.000 A 
ATOM      2  N   UNL     1       3.052   6.044  18.950  0.00  0.00    +0.000 NA
ATOM      3  C   UNL     1       3.247   7.057  18.065  0.00  0.00    +0.000 A 
ATOM      4  N   UNL     1       4.129   6.876  16.994  0.00  0.00    +0.000 N 
ATOM      5  C   UNL     1       2.526   8.236  18.275  0.00  0.00    +0.000 A 
ATOM      6  C   UNL     1       2.395   9.509  17.687  0.00  0.00    +0.000 A 
ATOM      7  N   UNL     1       1.544  10.302  18.348  0.00  0.00    +0.000 NA
ATOM      8  N   UNL     1       1.118   9.527  19.378  0.00  0.00    +0.000 N 
ATOM      9  C   UNL     1       1.680   8.276  19.369  0.00  0.00    +0.000 A 
ATOM     10  N   UNL     1       1.461   7.279  20.241  0.00  0.00    +0.000 NA
ATOM     11  H   UNL     1       4.097   7.569  16.259  0.00  0.00    +0.000 HD
ENDROOT
BRANCH   4  12
ATOM     12  C   UNL     1       5.259   6.041  16.956  0.00  0.00    +0.000 A 
ATOM     13  C   UNL     1       5.608   5.328  15.799  0.00  0.00    +0.000 A 
ATOM     14  C   UNL     1       6.751   4.529  15.758  0.00  0.00    +0.000 A 
ATOM     15  C   UNL     1       7.585   4.453  16.870  0.00  0.00    +0.000 A 
ATOM     16  C   UNL     1       7.254   5.171  18.015  0.00  0.00    +0.000 A 
ATOM     17  C   UNL     1       6.101   5.951  18.070  0.00  0.00    +0.000 A 
BRANCH  16  18
ATOM     18  O   UNL     1       8.058   5.144  19.118  0.00  0.00    +0.000 OA
ATOM     19  H   UNL     1       8.982   5.109  18.821  0.00  0.00    +0.000 HD
ENDBRANCH  16  18
ENDBRANCH   4  12
BRANCH   1  21
ATOM     20  C   UNL     1       1.436   3.555  19.795  0.00  0.00    +0.000 C 
ATOM     21  S   UNL     1       1.986   4.765  21.018  0.00  0.00    +0.000 S 
ENDBRANCH   1  21
BRANCH   8  22
ATOM     22  C   UNL     1       0.094  10.047  20.267  0.00  0.00    +0.000 C 
BRANCH  22  23
ATOM     23  C   UNL     1      -0.553  11.363  19.833  0.00  0.00    +0.000 C 
BRANCH  23  24
ATOM     24  C   UNL     1      -1.828  11.142  19.058  0.00  0.00    +0.000 A 
ATOM     25  C   UNL     1      -2.933  11.978  19.272  0.00  0.00    +0.000 A 
ATOM     26  C   UNL     1      -4.117  11.784  18.559  0.00  0.00    +0.000 A 
ATOM     27  C   UNL     1      -4.208  10.750  17.632  0.00  0.00    +0.000 A 
ATOM     28  C   UNL     1      -3.118   9.908  17.417  0.00  0.00    +0.000 A 
ATOM     29  C   UNL     1      -1.932  10.100  18.128  0.00  0.00    +0.000 A 
ENDBRANCH  23  24
ENDBRANCH  22  23
ENDBRANCH   8  22
TORSDOF 6
ENDMDL
MODEL 5
REMARK VINA RESULT:      -7.6      0.927      1.285
REMARK  Name = 
REMARK  7 active torsions:
REMARK  status: ('A' for Active; 'I' for Inactive)
REMARK    1  A    between atoms: C_1  and  S_2
REMARK    2  A    between atoms: S_2  and  C_3
REMARK    3  A    between atoms: N_6  and  C_7
REMARK    4  A    between atoms: C_11  and  O_12
REMARK    5  A    between atoms: N_17  and  C_18
REMARK    6  A    between atoms: C_18  and  C_19
REMARK    7  A    between atoms: C_19  and  C_20
REMARK                            x       y       z     vdW  Elec       q    Type
REMARK                         _______ _______ _______ _____ _____    ______ ____
ROOT
ATOM      1  C   UNL     1       2.325   5.541  20.206  0.00  0.00    +0.000 A 
ATOM      2  N   UNL     1       3.077   5.561  19.095  0.00  0.00    +0.000 NA
ATOM      3  C   UNL     1       3.125   6.673  18.315  0.00  0.00    +0.000 A 
ATOM      4  N   UNL     1       3.891   6.663  17.144  0.00  0.00    +0.000 N 
ATOM      5  C   UNL     1       2.375   7.777  18.732  0.00  0.00    +0.000 A 
ATOM      6  C   UNL     1       2.118   9.096  18.309  0.00  0.00    +0.000 A 
ATOM      7  N   UNL     1       1.309   9.761  19.140  0.00  0.00    +0.000 NA
ATOM      8  N   UNL     1       1.037   8.855  20.114  0.00  0.00    +0.000 N 
ATOM      9  C   UNL     1       1.654   7.648  19.905  0.00  0.00    +0.000 A 
ATOM     10  N   UNL     1       1.581   6.552  20.676  0.00  0.00    +0.000 NA
ATOM     11  H   UNL     1       3.745   7.427  16.500  0.00  0.00    +0.000 HD
ENDROOT
BRANCH   4  12
ATOM     12  C   UNL     1       5.049   5.906  16.895  0.00  0.00    +0.000 A 
ATOM     13  C   UNL     1       5.361   5.442  15.607  0.00  0.00    +0.000 A 
ATOM     14  C   UNL     1       6.530   4.722  15.360  0.00  0.00    +0.000 A 
ATOM     15  C   UNL     1       7.427   4.478  16.397  0.00  0.00    +0.000 A 
ATOM     16  C   UNL     1       7.132   4.950  17.672  0.00  0.00    +0.000 A 
ATOM     17  C   UNL     1       5.954   5.648  17.930  0.00  0.00    +0.000 A 
BRANCH  16  18
ATOM     18  O   UNL     1       7.997   4.755  18.710  0.00  0.00    +0.000 OA
ATOM     19  H   UNL     1       8.464   3.916  18.566  0.00  0.00    +0.000 HD
ENDBRANCH  16  18
ENDBRANCH   4  12
BRANCH   1  21
ATOM     20  C   UNL     1       1.022   3.128  20.189  0.00  0.00    +0.000 C 
ATOM     21  S   UNL     1       2.310   4.006  21.104  0.00  0.00    +0.000 S 
ENDBRANCH   1  21
BRANCH   8  22
ATOM     22  C   UNL     1       0.093   9.214  21.159  0.00  0.00    +0.000 C 
BRANCH  22  23
ATOM     23  C   UNL     1       0.296  10.592  21.790  0.00  0.00    +0.000 C 
BRANCH  23  24
ATOM     24  C   UNL     1      -0.989  11.379  21.863  0.00  0.00    +0.000 A 
ATOM     25  C   UNL     1      -1.668  11.500  23.084  0.00  0.00    +0.000 A 
ATOM     26  C   UNL     1      -2.856  12.228  23.164  0.00  0.00    +0.000 A 
ATOM     27  C   UNL     1      -3.378  12.834  22.026  0.00  0.00    +0.000 A 
ATOM     28  C   UNL     1      -2.714  12.714  20.806  0.00  0.00    +0.000 A 
ATOM     29  C   UNL     1      -1.524  11.987  20.722  0.00  0.00    +0.000 A 
ENDBRANCH  23  24
ENDBRANCH  22  23
ENDBRANCH   8  22
TORSDOF 6
ENDMDL
MODEL 6
REMARK VINA RESULT:      -7.6      3.781      8.759
REMARK  Name = 
REMARK  7 active torsions:
REMARK  status: ('A' for Active; 'I' for Inactive)
REMARK    1  A    between atoms: C_1  and  S_2
REMARK    2  A    between atoms: S_2  and  C_3
REMARK    3  A    between atoms: N_6  and  C_7
REMARK    4  A    between atoms: C_11  and  O_12
REMARK    5  A    between atoms: N_17  and  C_18
REMARK    6  A    between atoms: C_18  and  C_19
REMARK    7  A    between atoms: C_19  and  C_20
REMARK                            x       y       z     vdW  Elec       q    Type
REMARK                         _______ _______ _______ _____ _____    ______ ____
ROOT
ATOM      1  C   UNL     1       0.197   9.430  21.343  0.00  0.00    +0.000 A 
ATOM      2  N   UNL     1      -0.567  10.253  20.607  0.00  0.00    +0.000 NA
ATOM      3  C   UNL     1      -0.367  10.366  19.268  0.00  0.00    +0.000 A 
ATOM      4  N   UNL     1      -1.154  11.252  18.525  0.00  0.00    +0.000 N 
ATOM      5  C   UNL     1       0.647   9.584  18.706  0.00  0.00    +0.000 A 
ATOM      6  C   UNL     1       1.206   9.338  17.437  0.00  0.00    +0.000 A 
ATOM      7  N   UNL     1       2.185   8.427  17.467  0.00  0.00    +0.000 NA
ATOM      8  N   UNL     1       2.260   8.082  18.778  0.00  0.00    +0.000 N 
ATOM      9  C   UNL     1       1.357   8.758  19.558  0.00  0.00    +0.000 A 
ATOM     10  N   UNL     1       1.185   8.648  20.885  0.00  0.00    +0.000 NA
ATOM     11  H   UNL     1      -0.848  11.451  17.583  0.00  0.00    +0.000 HD
ENDROOT
BRANCH   4  12
ATOM     12  C   UNL     1      -2.472  11.655  18.804  0.00  0.00    +0.000 A 
ATOM     13  C   UNL     1      -2.773  12.475  19.902  0.00  0.00    +0.000 A 
ATOM     14  C   UNL     1      -4.077  12.901  20.153  0.00  0.00    +0.000 A 
ATOM     15  C   UNL     1      -5.105  12.535  19.287  0.00  0.00    +0.000 A 
ATOM     16  C   UNL     1      -4.810  11.736  18.186  0.00  0.00    +0.000 A 
ATOM     17  C   UNL     1      -3.513  11.288  17.945  0.00  0.00    +0.000 A 
BRANCH  16  18
ATOM     18  O   UNL     1      -5.784  11.377  17.299  0.00  0.00    +0.000 OA
ATOM     19  H   UNL     1      -5.393  11.349  16.411  0.00  0.00    +0.000 HD
ENDBRANCH  16  18
ENDBRANCH   4  12
BRANCH   1  21
ATOM     20  C   UNL     1      -1.222  10.858  23.205  0.00  0.00    +0.000 C 
ATOM     21  S   UNL     1      -0.134   9.420  23.090  0.00  0.00    +0.000 S 
ENDBRANCH   1  21
BRANCH   8  22
ATOM     22  C   UNL     1       3.302   7.161  19.200  0.00  0.00    +0.000 C 
BRANCH  22  23
ATOM     23  C   UNL     1       3.412   5.870  18.387  0.00  0.00    +0.000 C 
BRANCH  23  24
ATOM     24  C   UNL     1       2.476   4.800  18.891  0.00  0.00    +0.000 A 
ATOM     25  C   UNL     1       2.020   3.800  18.019  0.00  0.00    +0.000 A 
ATOM     26  C   UNL     1       1.156   2.803  18.475  0.00  0.00    +0.000 A 
ATOM     27  C   UNL     1       0.736   2.801  19.802  0.00  0.00    +0.000 A 
ATOM     28  C   UNL     1       1.178   3.794  20.674  0.00  0.00    +0.000 A 
ATOM     29  C   UNL     1       2.043   4.793  20.222  0.00  0.00    +0.000 A 
ENDBRANCH  23  24
ENDBRANCH  22  23
ENDBRANCH   8  22
TORSDOF 6
ENDMDL
MODEL 7
REMARK VINA RESULT:      -7.5      4.516      9.625
REMARK  Name = 
REMARK  7 active torsions:
REMARK  status: ('A' for Active; 'I' for Inactive)
REMARK    1  A    between atoms: C_1  and  S_2
REMARK    2  A    between atoms: S_2  and  C_3
REMARK    3  A    between atoms: N_6  and  C_7
REMARK    4  A    between atoms: C_11  and  O_12
REMARK    5  A    between atoms: N_17  and  C_18
REMARK    6  A    between atoms: C_18  and  C_19
REMARK    7  A    between atoms: C_19  and  C_20
REMARK                            x       y       z     vdW  Elec       q    Type
REMARK                         _______ _______ _______ _____ _____    ______ ____
ROOT
ATOM      1  C   UNL     1      -1.005  10.946  19.188  0.00  0.00    +0.000 A 
ATOM      2  N   UNL     1      -1.397  11.329  20.413  0.00  0.00    +0.000 NA
ATOM      3  C   UNL     1      -0.847  10.764  21.520  0.00  0.00    +0.000 A 
ATOM      4  N   UNL     1      -1.292  11.155  22.788  0.00  0.00    +0.000 N 
ATOM      5  C   UNL     1       0.140   9.794  21.319  0.00  0.00    +0.000 A 
ATOM      6  C   UNL     1       0.982   8.972  22.093  0.00  0.00    +0.000 A 
ATOM      7  N   UNL     1       1.797   8.215  21.349  0.00  0.00    +0.000 NA
ATOM      8  N   UNL     1       1.472   8.553  20.075  0.00  0.00    +0.000 N 
ATOM      9  C   UNL     1       0.477   9.495  20.011  0.00  0.00    +0.000 A 
ATOM     10  N   UNL     1      -0.069  10.029  18.908  0.00  0.00    +0.000 NA
ATOM     11  H   UNL     1      -1.005  10.579  23.567  0.00  0.00    +0.000 HD
ENDROOT
BRANCH   4  12
ATOM     12  C   UNL     1      -1.821  12.405  23.153  0.00  0.00    +0.000 A 
ATOM     13  C   UNL     1      -3.167  12.556  23.519  0.00  0.00    +0.000 A 
ATOM     14  C   UNL     1      -3.676  13.792  23.915  0.00  0.00    +0.000 A 
ATOM     15  C   UNL     1      -2.835  14.900  23.981  0.00  0.00    +0.000 A 
ATOM     16  C   UNL     1      -1.495  14.754  23.636  0.00  0.00    +0.000 A 
ATOM     17  C   UNL     1      -0.987  13.527  23.216  0.00  0.00    +0.000 A 
BRANCH  16  18
ATOM     18  O   UNL     1      -0.632  15.809  23.712  0.00  0.00    +0.000 OA
ATOM     19  H   UNL     1       0.272  15.473  23.600  0.00  0.00    +0.000 HD
ENDBRANCH  16  18
ENDBRANCH   4  12
BRANCH   1  21
ATOM     20  C   UNL     1      -2.190  10.273  16.808  0.00  0.00    +0.000 C 
ATOM     21  S   UNL     1      -1.845  11.725  17.827  0.00  0.00    +0.000 S 
ENDBRANCH   1  21
BRANCH   8  22
ATOM     22  C   UNL     1       2.110   7.843  18.980  0.00  0.00    +0.000 C 
BRANCH  22  23
ATOM     23  C   UNL     1       2.992   6.660  19.383  0.00  0.00    +0.000 C 
BRANCH  23  24
ATOM     24  C   UNL     1       2.242   5.352  19.341  0.00  0.00    +0.000 A 
ATOM     25  C   UNL     1       2.077   4.676  18.124  0.00  0.00    +0.000 A 
ATOM     26  C   UNL     1       1.388   3.464  18.075  0.00  0.00    +0.000 A 
ATOM     27  C   UNL     1       0.853   2.921  19.239  0.00  0.00    +0.000 A 
ATOM     28  C   UNL     1       1.005   3.588  20.453  0.00  0.00    +0.000 A 
ATOM     29  C   UNL     1       1.696   4.801  20.507  0.00  0.00    +0.000 A 
ENDBRANCH  23  24
ENDBRANCH  22  23
ENDBRANCH   8  22
TORSDOF 6
ENDMDL
MODEL 8
REMARK VINA RESULT:      -7.5      4.389      9.712
REMARK  Name = 
REMARK  7 active torsions:
REMARK  status: ('A' for Active; 'I' for Inactive)
REMARK    1  A    between atoms: C_1  and  S_2
REMARK    2  A    between atoms: S_2  and  C_3
REMARK    3  A    between atoms: N_6  and  C_7
REMARK    4  A    between atoms: C_11  and  O_12
REMARK    5  A    between atoms: N_17  and  C_18
REMARK    6  A    between atoms: C_18  and  C_19
REMARK    7  A    between atoms: C_19  and  C_20
REMARK                            x       y       z     vdW  Elec       q    Type
REMARK                         _______ _______ _______ _____ _____    ______ ____
ROOT
ATOM      1  C   UNL     1      -1.046  10.956  18.838  0.00  0.00    +0.000 A 
ATOM      2  N   UNL     1      -1.338  11.194  20.126  0.00  0.00    +0.000 NA
ATOM      3  C   UNL     1      -0.680  10.536  21.115  0.00  0.00    +0.000 A 
ATOM      4  N   UNL     1      -1.021  10.776  22.451  0.00  0.00    +0.000 N 
ATOM      5  C   UNL     1       0.309   9.626  20.728  0.00  0.00    +0.000 A 
ATOM      6  C   UNL     1       1.237   8.757  21.334  0.00  0.00    +0.000 A 
ATOM      7  N   UNL     1       2.001   8.110  20.448  0.00  0.00    +0.000 NA
ATOM      8  N   UNL     1       1.558   8.568  19.249  0.00  0.00    +0.000 N 
ATOM      9  C   UNL     1       0.538   9.477  19.372  0.00  0.00    +0.000 A 
ATOM     10  N   UNL     1      -0.115  10.106  18.382  0.00  0.00    +0.000 NA
ATOM     11  H   UNL     1      -0.652  10.132  23.136  0.00  0.00    +0.000 HD
ENDROOT
BRANCH   4  12
ATOM     12  C   UNL     1      -1.546  11.962  22.992  0.00  0.00    +0.000 A 
ATOM     13  C   UNL     1      -0.831  13.169  22.948  0.00  0.00    +0.000 A 
ATOM     14  C   UNL     1      -1.373  14.350  23.455  0.00  0.00    +0.000 A 
ATOM     15  C   UNL     1      -2.659  14.351  23.990  0.00  0.00    +0.000 A 
ATOM     16  C   UNL     1      -3.380  13.161  24.021  0.00  0.00    +0.000 A 
ATOM     17  C   UNL     1      -2.834  11.973  23.538  0.00  0.00    +0.000 A 
BRANCH  16  18
ATOM     18  O   UNL     1      -4.652  13.124  24.513  0.00  0.00    +0.000 OA
ATOM     19  H   UNL     1      -5.202  12.608  23.901  0.00  0.00    +0.000 HD
ENDBRANCH  16  18
ENDBRANCH   4  12
BRANCH   1  21
ATOM     20  C   UNL     1      -2.465  10.486  16.538  0.00  0.00    +0.000 C 
ATOM     21  S   UNL     1      -2.021  11.844  17.644  0.00  0.00    +0.000 S 
ENDBRANCH   1  21
BRANCH   8  22
ATOM     22  C   UNL     1       2.115   7.999  18.034  0.00  0.00    +0.000 C 
BRANCH  22  23
ATOM     23  C   UNL     1       3.374   7.151  18.217  0.00  0.00    +0.000 C 
BRANCH  23  24
ATOM     24  C   UNL     1       3.124   5.692  17.925  0.00  0.00    +0.000 A 
ATOM     25  C   UNL     1       1.902   5.104  18.284  0.00  0.00    +0.000 A 
ATOM     26  C   UNL     1       1.659   3.757  18.016  0.00  0.00    +0.000 A 
ATOM     27  C   UNL     1       2.636   2.984  17.395  0.00  0.00    +0.000 A 
ATOM     28  C   UNL     1       3.857   3.557  17.041  0.00  0.00    +0.000 A 
ATOM     29  C   UNL     1       4.103   4.906  17.306  0.00  0.00    +0.000 A 
ENDBRANCH  23  24
ENDBRANCH  22  23
ENDBRANCH   8  22
TORSDOF 6
ENDMDL
MODEL 9
REMARK VINA RESULT:      -7.5      4.502      9.620
REMARK  Name = 
REMARK  7 active torsions:
REMARK  status: ('A' for Active; 'I' for Inactive)
REMARK    1  A    between atoms: C_1  and  S_2
REMARK    2  A    between atoms: S_2  and  C_3
REMARK    3  A    between atoms: N_6  and  C_7
REMARK    4  A    between atoms: C_11  and  O_12
REMARK    5  A    between atoms: N_17  and  C_18
REMARK    6  A    between atoms: C_18  and  C_19
REMARK    7  A    between atoms: C_19  and  C_20
REMARK                            x       y       z     vdW  Elec       q    Type
REMARK                         _______ _______ _______ _____ _____    ______ ____
ROOT
ATOM      1  C   UNL     1      -0.901  11.035  19.192  0.00  0.00    +0.000 A 
ATOM      2  N   UNL     1      -1.308  11.393  20.419  0.00  0.00    +0.000 NA
ATOM      3  C   UNL     1      -0.804  10.776  21.520  0.00  0.00    +0.000 A 
ATOM      4  N   UNL     1      -1.265  11.143  22.789  0.00  0.00    +0.000 N 
ATOM      5  C   UNL     1       0.155   9.779  21.310  0.00  0.00    +0.000 A 
ATOM      6  C   UNL     1       0.951   8.906  22.076  0.00  0.00    +0.000 A 
ATOM      7  N   UNL     1       1.757   8.145  21.328  0.00  0.00    +0.000 NA
ATOM      8  N   UNL     1       1.474   8.532  20.058  0.00  0.00    +0.000 N 
ATOM      9  C   UNL     1       0.512   9.509  20.002  0.00  0.00    +0.000 A 
ATOM     10  N   UNL     1       0.011  10.095  18.904  0.00  0.00    +0.000 NA
ATOM     11  H   UNL     1      -1.015  10.534  23.556  0.00  0.00    +0.000 HD
ENDROOT
BRANCH   4  12
ATOM     12  C   UNL     1      -1.759  12.399  23.182  0.00  0.00    +0.000 A 
ATOM     13  C   UNL     1      -3.111  12.587  23.507  0.00  0.00    +0.000 A 
ATOM     14  C   UNL     1      -3.589  13.827  23.930  0.00  0.00    +0.000 A 
ATOM     15  C   UNL     1      -2.710  14.899  24.066  0.00  0.00    +0.000 A 
ATOM     16  C   UNL     1      -1.365  14.715  23.762  0.00  0.00    +0.000 A 
ATOM     17  C   UNL     1      -0.888  13.484  23.315  0.00  0.00    +0.000 A 
BRANCH  16  18
ATOM     18  O   UNL     1      -0.466  15.732  23.906  0.00  0.00    +0.000 OA
ATOM     19  H   UNL     1      -0.937  16.574  23.796  0.00  0.00    +0.000 HD
ENDBRANCH  16  18
ENDBRANCH   4  12
BRANCH   1  21
ATOM     20  C   UNL     1      -3.383  11.317  18.061  0.00  0.00    +0.000 C 
ATOM     21  S   UNL     1      -1.682  11.883  17.838  0.00  0.00    +0.000 S 
ENDBRANCH   1  21
BRANCH   8  22
ATOM     22  C   UNL     1       2.113   7.835  18.955  0.00  0.00    +0.000 C 
BRANCH  22  23
ATOM     23  C   UNL     1       3.002   6.653  19.346  0.00  0.00    +0.000 C 
BRANCH  23  24
ATOM     24  C   UNL     1       2.266   5.339  19.271  0.00  0.00    +0.000 A 
ATOM     25  C   UNL     1       1.696   4.786  20.427  0.00  0.00    +0.000 A 
ATOM     26  C   UNL     1       1.011   3.572  20.368  0.00  0.00    +0.000 A 
ATOM     27  C   UNL     1       0.895   2.898  19.157  0.00  0.00    +0.000 A 
ATOM     28  C   UNL     1       1.464   3.435  18.003  0.00  0.00    +0.000 A 
ATOM     29  C   UNL     1       2.150   4.650  18.058  0.00  0.00    +0.000 A 
ENDBRANCH  23  24
ENDBRANCH  22  23
ENDBRANCH   8  22
TORSDOF 6
ENDMDL
