MODEL 1
REMARK VINA RESULT:      -8.1      0.000      0.000
REMARK  Name = 
REMARK  9 active torsions:
REMARK  status: ('A' for Active; 'I' for Inactive)
REMARK    1  A    between atoms: C_1  and  C_2
REMARK    2  A    between atoms: C_4  and  C_5
REMARK    3  A    between atoms: C_7  and  O_8
REMARK    4  A    between atoms: O_8  and  C_9
REMARK    5  A    between atoms: C_10  and  C_11
REMARK    6  A    between atoms: C_11  and  C_12
REMARK    7  A    between atoms: C_11  and  C_13
REMARK    8  A    between atoms: N_19  and  C_20
REMARK    9  A    between atoms: C_20  and  C_21
REMARK                            x       y       z     vdW  Elec       q    Type
REMARK                         _______ _______ _______ _____ _____    ______ ____
ROOT
ATOM      1  C   UNL     1       3.917   5.474  18.127  0.00  0.00    +0.000 A 
ATOM      2  C   UNL     1       5.178   5.838  17.791  0.00  0.00    +0.000 A 
ATOM      3  C   UNL     1       6.282   5.014  18.350  0.00  0.00    +0.000 A 
ATOM      4  O   UNL     1       7.447   5.104  17.971  0.00  0.00    +0.000 OA
ATOM      5  N   UNL     1       5.933   4.129  19.321  0.00  0.00    +0.000 N 
ATOM      6  C   UNL     1       4.720   3.530  19.333  0.00  0.00    +0.000 A 
ATOM      7  O   UNL     1       4.611   2.400  19.809  0.00  0.00    +0.000 OA
ATOM      8  N   UNL     1       3.672   4.238  18.730  0.00  0.00    +0.000 N 
ATOM      9  H   UNL     1       6.688   3.532  19.630  0.00  0.00    +0.000 HD
ENDROOT
BRANCH   2  10
ATOM     10  C   UNL     1       5.612   6.893  16.781  0.00  0.00    +0.000 C 
ATOM     11  C   UNL     1       6.933   7.568  17.178  0.00  0.00    +0.000 C 
ATOM     12  C   UNL     1       5.645   6.419  15.332  0.00  0.00    +0.000 C 
ENDBRANCH   2  10
BRANCH   1  13
ATOM     13  O   UNL     1       2.830   6.233  17.712  0.00  0.00    +0.000 OA
BRANCH  13  20
ATOM     14  C   UNL     1       2.030  11.036  17.702  0.00  0.00    +0.000 C 
ATOM     15  C   UNL     1       1.957   9.719  18.414  0.00  0.00    +0.000 A 
ATOM     16  C   UNL     1       1.527   9.656  19.743  0.00  0.00    +0.000 A 
ATOM     17  C   UNL     1       1.515   8.436  20.435  0.00  0.00    +0.000 A 
ATOM     18  C   UNL     1       1.123   8.413  21.885  0.00  0.00    +0.000 C 
ATOM     19  C   UNL     1       1.948   7.262  19.789  0.00  0.00    +0.000 A 
ATOM     20  C   UNL     1       2.394   7.311  18.463  0.00  0.00    +0.000 A 
ATOM     21  C   UNL     1       2.388   8.539  17.786  0.00  0.00    +0.000 A 
ENDBRANCH  13  20
ENDBRANCH   1  13
BRANCH   8  22
ATOM     22  C   UNL     1       2.475   3.402  18.526  0.00  0.00    +0.000 C 
BRANCH  22  23
ATOM     23  C   UNL     1       1.226   3.432  19.432  0.00  0.00    +0.000 C 
ATOM     24  C   UNL     1       1.009   2.127  20.219  0.00  0.00    +0.000 C 
ATOM     25  C   UNL     1       1.714   2.371  21.511  0.00  0.00    +0.000 C 
ATOM     26  C   UNL     1       1.953   3.672  21.696  0.00  0.00    +0.000 C 
ATOM     27  C   UNL     1       1.426   4.485  20.556  0.00  0.00    +0.000 C 
ENDBRANCH  22  23
ENDBRANCH   8  22
TORSDOF 5
ENDMDL
MODEL 2
REMARK VINA RESULT:      -7.8      0.169      1.691
REMARK  Name = 
REMARK  9 active torsions:
REMARK  status: ('A' for Active; 'I' for Inactive)
REMARK    1  A    between atoms: C_1  and  C_2
REMARK    2  A    between atoms: C_4  and  C_5
REMARK    3  A    between atoms: C_7  and  O_8
REMARK    4  A    between atoms: O_8  and  C_9
REMARK    5  A    between atoms: C_10  and  C_11
REMARK    6  A    between atoms: C_11  and  C_12
REMARK    7  A    between atoms: C_11  and  C_13
REMARK    8  A    between atoms: N_19  and  C_20
REMARK    9  A    between atoms: C_20  and  C_21
REMARK                            x       y       z     vdW  Elec       q    Type
REMARK                         _______ _______ _______ _____ _____    ______ ____
ROOT
ATOM      1  C   UNL     1       3.904   5.356  18.060  0.00  0.00    +0.000 A 
ATOM      2  C   UNL     1       5.163   5.729  17.727  0.00  0.00    +0.000 A 
ATOM      3  C   UNL     1       6.273   4.945  18.331  0.00  0.00    +0.000 A 
ATOM      4  O   UNL     1       7.441   5.041  17.964  0.00  0.00    +0.000 OA
ATOM      5  N   UNL     1       5.926   4.091  19.329  0.00  0.00    +0.000 N 
ATOM      6  C   UNL     1       4.723   3.472  19.347  0.00  0.00    +0.000 A 
ATOM      7  O   UNL     1       4.626   2.358  19.863  0.00  0.00    +0.000 OA
ATOM      8  N   UNL     1       3.671   4.139  18.705  0.00  0.00    +0.000 N 
ATOM      9  H   UNL     1       6.687   3.518  19.670  0.00  0.00    +0.000 HD
ENDROOT
BRANCH   2  10
ATOM     10  C   UNL     1       5.593   6.754  16.685  0.00  0.00    +0.000 C 
ATOM     11  C   UNL     1       6.840   7.537  17.120  0.00  0.00    +0.000 C 
ATOM     12  C   UNL     1       5.749   6.204  15.271  0.00  0.00    +0.000 C 
ENDBRANCH   2  10
BRANCH   1  13
ATOM     13  O   UNL     1       2.811   6.081  17.603  0.00  0.00    +0.000 OA
BRANCH  13  20
ATOM     14  C   UNL     1       1.038   8.041  21.693  0.00  0.00    +0.000 C 
ATOM     15  C   UNL     1       1.587   8.221  20.310  0.00  0.00    +0.000 A 
ATOM     16  C   UNL     1       1.638   9.493  19.729  0.00  0.00    +0.000 A 
ATOM     17  C   UNL     1       2.092   9.662  18.413  0.00  0.00    +0.000 A 
ATOM     18  C   UNL     1       2.060  11.029  17.791  0.00  0.00    +0.000 C 
ATOM     19  C   UNL     1       2.493   8.539  17.663  0.00  0.00    +0.000 A 
ATOM     20  C   UNL     1       2.434   7.259  18.225  0.00  0.00    +0.000 A 
ATOM     21  C   UNL     1       1.988   7.113  19.546  0.00  0.00    +0.000 A 
ENDBRANCH  13  20
ENDBRANCH   1  13
BRANCH   8  22
ATOM     22  C   UNL     1       2.492   3.275  18.516  0.00  0.00    +0.000 C 
BRANCH  22  23
ATOM     23  C   UNL     1       1.226   3.324  19.399  0.00  0.00    +0.000 C 
ATOM     24  C   UNL     1       1.031   2.062  20.258  0.00  0.00    +0.000 C 
ATOM     25  C   UNL     1       1.706   2.402  21.545  0.00  0.00    +0.000 C 
ATOM     26  C   UNL     1       1.905   3.718  21.656  0.00  0.00    +0.000 C 
ATOM     27  C   UNL     1       1.377   4.447  20.461  0.00  0.00    +0.000 C 
ENDBRANCH  22  23
ENDBRANCH   8  22
TORSDOF 5
ENDMDL
MODEL 3
REMARK VINA RESULT:      -7.7      0.932      4.541
REMARK  Name = 
REMARK  9 active torsions:
REMARK  status: ('A' for Active; 'I' for Inactive)
REMARK    1  A    between atoms: C_1  and  C_2
REMARK    2  A    between atoms: C_4  and  C_5
REMARK    3  A    between atoms: C_7  and  O_8
REMARK    4  A    between atoms: O_8  and  C_9
REMARK    5  A    between atoms: C_10  and  C_11
REMARK    6  A    between atoms: C_11  and  C_12
REMARK    7  A    between atoms: C_11  and  C_13
REMARK    8  A    between atoms: N_19  and  C_20
REMARK    9  A    between atoms: C_20  and  C_21
REMARK                            x       y       z     vdW  Elec       q    Type
REMARK                         _______ _______ _______ _____ _____    ______ ____
ROOT
ATOM      1  C   UNL     1       3.362   4.886  18.582  0.00  0.00    +0.000 A 
ATOM      2  C   UNL     1       2.899   3.856  19.329  0.00  0.00    +0.000 A 
ATOM      3  C   UNL     1       3.910   2.882  19.822  0.00  0.00    +0.000 A 
ATOM      4  O   UNL     1       3.662   2.026  20.667  0.00  0.00    +0.000 OA
ATOM      5  N   UNL     1       5.153   2.989  19.285  0.00  0.00    +0.000 N 
ATOM      6  C   UNL     1       5.660   4.184  18.902  0.00  0.00    +0.000 A 
ATOM      7  O   UNL     1       6.876   4.369  18.961  0.00  0.00    +0.000 OA
ATOM      8  N   UNL     1       4.730   5.160  18.520  0.00  0.00    +0.000 N 
ATOM      9  H   UNL     1       5.837   2.365  19.690  0.00  0.00    +0.000 HD
ENDROOT
BRANCH   2  10
ATOM     10  C   UNL     1       1.490   3.647  19.869  0.00  0.00    +0.000 C 
ATOM     11  C   UNL     1       0.717   2.580  19.079  0.00  0.00    +0.000 C 
ATOM     12  C   UNL     1       1.409   3.392  21.370  0.00  0.00    +0.000 C 
ENDBRANCH   2  10
BRANCH   1  13
ATOM     13  O   UNL     1       2.480   5.799  18.018  0.00  0.00    +0.000 OA
BRANCH  13  20
ATOM     14  C   UNL     1       1.936  10.622  17.634  0.00  0.00    +0.000 C 
ATOM     15  C   UNL     1       1.825   9.374  18.457  0.00  0.00    +0.000 A 
ATOM     16  C   UNL     1       1.451   9.444  19.803  0.00  0.00    +0.000 A 
ATOM     17  C   UNL     1       1.404   8.288  20.595  0.00  0.00    +0.000 A 
ATOM     18  C   UNL     1       1.076   8.407  22.056  0.00  0.00    +0.000 C 
ATOM     19  C   UNL     1       1.745   7.042  20.033  0.00  0.00    +0.000 A 
ATOM     20  C   UNL     1       2.135   6.958  18.691  0.00  0.00    +0.000 A 
ATOM     21  C   UNL     1       2.164   8.124  17.914  0.00  0.00    +0.000 A 
ENDBRANCH  13  20
ENDBRANCH   1  13
BRANCH   8  22
ATOM     22  C   UNL     1       5.337   6.499  18.407  0.00  0.00    +0.000 C 
BRANCH  22  23
ATOM     23  C   UNL     1       5.845   7.116  17.087  0.00  0.00    +0.000 C 
ATOM     24  C   UNL     1       7.258   6.648  16.697  0.00  0.00    +0.000 C 
ATOM     25  C   UNL     1       7.011   5.465  15.821  0.00  0.00    +0.000 C 
ATOM     26  C   UNL     1       5.747   5.436  15.390  0.00  0.00    +0.000 C 
ATOM     27  C   UNL     1       4.973   6.608  15.907  0.00  0.00    +0.000 C 
ENDBRANCH  22  23
ENDBRANCH   8  22
TORSDOF 5
ENDMDL
MODEL 4
REMARK VINA RESULT:      -7.7      1.615      5.005
REMARK  Name = 
REMARK  9 active torsions:
REMARK  status: ('A' for Active; 'I' for Inactive)
REMARK    1  A    between atoms: C_1  and  C_2
REMARK    2  A    between atoms: C_4  and  C_5
REMARK    3  A    between atoms: C_7  and  O_8
REMARK    4  A    between atoms: O_8  and  C_9
REMARK    5  A    between atoms: C_10  and  C_11
REMARK    6  A    between atoms: C_11  and  C_12
REMARK    7  A    between atoms: C_11  and  C_13
REMARK    8  A    between atoms: N_19  and  C_20
REMARK    9  A    between atoms: C_20  and  C_21
REMARK                            x       y       z     vdW  Elec       q    Type
REMARK                         _______ _______ _______ _____ _____    ______ ____
ROOT
ATOM      1  C   UNL     1       3.183   5.026  18.867  0.00  0.00    +0.000 A 
ATOM      2  C   UNL     1       2.626   3.792  18.861  0.00  0.00    +0.000 A 
ATOM      3  C   UNL     1       2.765   3.002  17.608  0.00  0.00    +0.000 A 
ATOM      4  O   UNL     1       2.489   1.808  17.532  0.00  0.00    +0.000 OA
ATOM      5  N   UNL     1       3.228   3.679  16.525  0.00  0.00    +0.000 N 
ATOM      6  C   UNL     1       4.106   4.701  16.649  0.00  0.00    +0.000 A 
ATOM      7  O   UNL     1       4.912   4.916  15.743  0.00  0.00    +0.000 OA
ATOM      8  N   UNL     1       4.068   5.410  17.857  0.00  0.00    +0.000 N 
ATOM      9  H   UNL     1       3.382   3.103  15.708  0.00  0.00    +0.000 HD
ENDROOT
BRANCH   2  10
ATOM     10  C   UNL     1       2.006   3.036  20.030  0.00  0.00    +0.000 C 
ATOM     11  C   UNL     1       3.009   2.808  21.171  0.00  0.00    +0.000 C 
ATOM     12  C   UNL     1       0.698   3.621  20.551  0.00  0.00    +0.000 C 
ENDBRANCH   2  10
BRANCH   1  13
ATOM     13  O   UNL     1       3.034   5.861  19.967  0.00  0.00    +0.000 OA
BRANCH  13  20
ATOM     14  C   UNL     1      -0.241   8.685  22.205  0.00  0.00    +0.000 C 
ATOM     15  C   UNL     1       0.679   8.448  21.045  0.00  0.00    +0.000 A 
ATOM     16  C   UNL     1       0.697   9.336  19.964  0.00  0.00    +0.000 A 
ATOM     17  C   UNL     1       1.509   9.088  18.848  0.00  0.00    +0.000 A 
ATOM     18  C   UNL     1       1.449  10.019  17.670  0.00  0.00    +0.000 C 
ATOM     19  C   UNL     1       2.309   7.929  18.808  0.00  0.00    +0.000 A 
ATOM     20  C   UNL     1       2.290   7.024  19.876  0.00  0.00    +0.000 A 
ATOM     21  C   UNL     1       1.479   7.296  20.987  0.00  0.00    +0.000 A 
ENDBRANCH  13  20
ENDBRANCH   1  13
BRANCH   8  22
ATOM     22  C   UNL     1       5.234   6.296  18.024  0.00  0.00    +0.000 C 
BRANCH  22  23
ATOM     23  C   UNL     1       6.640   6.002  17.459  0.00  0.00    +0.000 C 
ATOM     24  C   UNL     1       7.556   7.239  17.424  0.00  0.00    +0.000 C 
ATOM     25  C   UNL     1       8.280   7.180  18.728  0.00  0.00    +0.000 C 
ATOM     26  C   UNL     1       8.185   5.968  19.282  0.00  0.00    +0.000 C 
ATOM     27  C   UNL     1       7.393   5.039  18.417  0.00  0.00    +0.000 C 
ENDBRANCH  22  23
ENDBRANCH   8  22
TORSDOF 5
ENDMDL
MODEL 5
REMARK VINA RESULT:      -7.5      0.930      4.835
REMARK  Name = 
REMARK  9 active torsions:
REMARK  status: ('A' for Active; 'I' for Inactive)
REMARK    1  A    between atoms: C_1  and  C_2
REMARK    2  A    between atoms: C_4  and  C_5
REMARK    3  A    between atoms: C_7  and  O_8
REMARK    4  A    between atoms: O_8  and  C_9
REMARK    5  A    between atoms: C_10  and  C_11
REMARK    6  A    between atoms: C_11  and  C_12
REMARK    7  A    between atoms: C_11  and  C_13
REMARK    8  A    between atoms: N_19  and  C_20
REMARK    9  A    between atoms: C_20  and  C_21
REMARK                            x       y       z     vdW  Elec       q    Type
REMARK                         _______ _______ _______ _____ _____    ______ ____
ROOT
ATOM      1  C   UNL     1       3.379   4.877  18.499  0.00  0.00    +0.000 A 
ATOM      2  C   UNL     1       2.909   3.866  19.268  0.00  0.00    +0.000 A 
ATOM      3  C   UNL     1       3.920   2.945  19.851  0.00  0.00    +0.000 A 
ATOM      4  O   UNL     1       3.655   2.119  20.720  0.00  0.00    +0.000 OA
ATOM      5  N   UNL     1       5.185   3.067  19.370  0.00  0.00    +0.000 N 
ATOM      6  C   UNL     1       5.677   4.258  18.959  0.00  0.00    +0.000 A 
ATOM      7  O   UNL     1       6.883   4.482  19.069  0.00  0.00    +0.000 OA
ATOM      8  N   UNL     1       4.740   5.189  18.491  0.00  0.00    +0.000 N 
ATOM      9  H   UNL     1       5.865   2.480  19.834  0.00  0.00    +0.000 HD
ENDROOT
BRANCH   2  10
ATOM     10  C   UNL     1       1.480   3.639  19.748  0.00  0.00    +0.000 C 
ATOM     11  C   UNL     1       0.773   2.527  18.961  0.00  0.00    +0.000 C 
ATOM     12  C   UNL     1       1.334   3.433  21.252  0.00  0.00    +0.000 C 
ENDBRANCH   2  10
BRANCH   1  13
ATOM     13  O   UNL     1       2.500   5.738  17.853  0.00  0.00    +0.000 OA
BRANCH  13  20
ATOM     14  C   UNL     1       0.996   8.086  21.845  0.00  0.00    +0.000 C 
ATOM     15  C   UNL     1       1.486   8.134  20.429  0.00  0.00    +0.000 A 
ATOM     16  C   UNL     1       1.558   9.353  19.746  0.00  0.00    +0.000 A 
ATOM     17  C   UNL     1       1.956   9.398  18.402  0.00  0.00    +0.000 A 
ATOM     18  C   UNL     1       1.948  10.713  17.674  0.00  0.00    +0.000 C 
ATOM     19  C   UNL     1       2.279   8.205  17.728  0.00  0.00    +0.000 A 
ATOM     20  C   UNL     1       2.199   6.976  18.394  0.00  0.00    +0.000 A 
ATOM     21  C   UNL     1       1.809   6.954  19.741  0.00  0.00    +0.000 A 
ENDBRANCH  13  20
ENDBRANCH   1  13
BRANCH   8  22
ATOM     22  C   UNL     1       5.314   6.539  18.348  0.00  0.00    +0.000 C 
BRANCH  22  23
ATOM     23  C   UNL     1       5.896   7.104  17.035  0.00  0.00    +0.000 C 
ATOM     24  C   UNL     1       7.284   6.536  16.686  0.00  0.00    +0.000 C 
ATOM     25  C   UNL     1       6.977   5.361  15.817  0.00  0.00    +0.000 C 
ATOM     26  C   UNL     1       5.725   5.413  15.354  0.00  0.00    +0.000 C 
ATOM     27  C   UNL     1       5.021   6.641  15.838  0.00  0.00    +0.000 C 
ENDBRANCH  22  23
ENDBRANCH   8  22
TORSDOF 5
ENDMDL
MODEL 6
REMARK VINA RESULT:      -7.4      2.508      5.592
REMARK  Name = 
REMARK  9 active torsions:
REMARK  status: ('A' for Active; 'I' for Inactive)
REMARK    1  A    between atoms: C_1  and  C_2
REMARK    2  A    between atoms: C_4  and  C_5
REMARK    3  A    between atoms: C_7  and  O_8
REMARK    4  A    between atoms: O_8  and  C_9
REMARK    5  A    between atoms: C_10  and  C_11
REMARK    6  A    between atoms: C_11  and  C_12
REMARK    7  A    between atoms: C_11  and  C_13
REMARK    8  A    between atoms: N_19  and  C_20
REMARK    9  A    between atoms: C_20  and  C_21
REMARK                            x       y       z     vdW  Elec       q    Type
REMARK                         _______ _______ _______ _____ _____    ______ ____
ROOT
ATOM      1  C   UNL     1       4.504   4.638  17.094  0.00  0.00    +0.000 A 
ATOM      2  C   UNL     1       4.645   5.832  17.717  0.00  0.00    +0.000 A 
ATOM      3  C   UNL     1       3.397   6.494  18.182  0.00  0.00    +0.000 A 
ATOM      4  O   UNL     1       3.392   7.467  18.931  0.00  0.00    +0.000 OA
ATOM      5  N   UNL     1       2.234   5.956  17.732  0.00  0.00    +0.000 N 
ATOM      6  C   UNL     1       2.112   4.630  17.489  0.00  0.00    +0.000 A 
ATOM      7  O   UNL     1       1.017   4.088  17.638  0.00  0.00    +0.000 OA
ATOM      8  N   UNL     1       3.288   3.952  17.139  0.00  0.00    +0.000 N 
ATOM      9  H   UNL     1       1.402   6.379  18.121  0.00  0.00    +0.000 HD
ENDROOT
BRANCH   2  10
ATOM     10  C   UNL     1       5.936   6.517  18.150  0.00  0.00    +0.000 C 
ATOM     11  C   UNL     1       6.876   5.564  18.901  0.00  0.00    +0.000 C 
ATOM     12  C   UNL     1       6.670   7.261  17.040  0.00  0.00    +0.000 C 
ENDBRANCH   2  10
BRANCH   1  13
ATOM     13  O   UNL     1       5.609   3.987  16.560  0.00  0.00    +0.000 OA
BRANCH  13  20
ATOM     14  C   UNL     1       8.682   5.735  13.211  0.00  0.00    +0.000 C 
ATOM     15  C   UNL     1       7.474   4.913  13.549  0.00  0.00    +0.000 A 
ATOM     16  C   UNL     1       6.702   4.340  12.533  0.00  0.00    +0.000 A 
ATOM     17  C   UNL     1       5.536   3.622  12.837  0.00  0.00    +0.000 A 
ATOM     18  C   UNL     1       4.686   3.087  11.720  0.00  0.00    +0.000 C 
ATOM     19  C   UNL     1       5.132   3.482  14.179  0.00  0.00    +0.000 A 
ATOM     20  C   UNL     1       5.887   4.062  15.206  0.00  0.00    +0.000 A 
ATOM     21  C   UNL     1       7.055   4.766  14.881  0.00  0.00    +0.000 A 
ENDBRANCH  13  20
ENDBRANCH   1  13
BRANCH   8  22
ATOM     22  C   UNL     1       3.125   2.488  17.182  0.00  0.00    +0.000 C 
BRANCH  22  23
ATOM     23  C   UNL     1       3.408   1.616  18.424  0.00  0.00    +0.000 C 
ATOM     24  C   UNL     1       4.292   2.313  19.472  0.00  0.00    +0.000 C 
ATOM     25  C   UNL     1       3.309   2.960  20.391  0.00  0.00    +0.000 C 
ATOM     26  C   UNL     1       2.087   2.444  20.235  0.00  0.00    +0.000 C 
ATOM     27  C   UNL     1       2.083   1.368  19.196  0.00  0.00    +0.000 C 
ENDBRANCH  22  23
ENDBRANCH   8  22
TORSDOF 5
ENDMDL
MODEL 7
REMARK VINA RESULT:      -7.3      1.646      4.752
REMARK  Name = 
REMARK  9 active torsions:
REMARK  status: ('A' for Active; 'I' for Inactive)
REMARK    1  A    between atoms: C_1  and  C_2
REMARK    2  A    between atoms: C_4  and  C_5
REMARK    3  A    between atoms: C_7  and  O_8
REMARK    4  A    between atoms: O_8  and  C_9
REMARK    5  A    between atoms: C_10  and  C_11
REMARK    6  A    between atoms: C_11  and  C_12
REMARK    7  A    between atoms: C_11  and  C_13
REMARK    8  A    between atoms: N_19  and  C_20
REMARK    9  A    between atoms: C_20  and  C_21
REMARK                            x       y       z     vdW  Elec       q    Type
REMARK                         _______ _______ _______ _____ _____    ______ ____
ROOT
ATOM      1  C   UNL     1       3.205   4.961  18.973  0.00  0.00    +0.000 A 
ATOM      2  C   UNL     1       2.625   3.738  18.944  0.00  0.00    +0.000 A 
ATOM      3  C   UNL     1       2.711   2.988  17.662  0.00  0.00    +0.000 A 
ATOM      4  O   UNL     1       2.411   1.802  17.555  0.00  0.00    +0.000 OA
ATOM      5  N   UNL     1       3.152   3.694  16.588  0.00  0.00    +0.000 N 
ATOM      6  C   UNL     1       4.052   4.696  16.718  0.00  0.00    +0.000 A 
ATOM      7  O   UNL     1       4.833   4.928  15.794  0.00  0.00    +0.000 OA
ATOM      8  N   UNL     1       4.065   5.364  17.949  0.00  0.00    +0.000 N 
ATOM      9  H   UNL     1       3.270   3.143  15.748  0.00  0.00    +0.000 HD
ENDROOT
BRANCH   2  10
ATOM     10  C   UNL     1       2.029   2.954  20.107  0.00  0.00    +0.000 C 
ATOM     11  C   UNL     1       3.078   2.613  21.176  0.00  0.00    +0.000 C 
ATOM     12  C   UNL     1       0.785   3.577  20.730  0.00  0.00    +0.000 C 
ENDBRANCH   2  10
BRANCH   1  13
ATOM     13  O   UNL     1       3.106   5.761  20.105  0.00  0.00    +0.000 OA
BRANCH  13  20
ATOM     14  C   UNL     1       1.776   9.739  17.631  0.00  0.00    +0.000 C 
ATOM     15  C   UNL     1       1.608   8.846  18.824  0.00  0.00    +0.000 A 
ATOM     16  C   UNL     1       0.724   9.196  19.850  0.00  0.00    +0.000 A 
ATOM     17  C   UNL     1       0.607   8.397  20.998  0.00  0.00    +0.000 A 
ATOM     18  C   UNL     1      -0.292   8.841  22.117  0.00  0.00    +0.000 C 
ATOM     19  C   UNL     1       1.392   7.235  21.124  0.00  0.00    +0.000 A 
ATOM     20  C   UNL     1       2.291   6.879  20.111  0.00  0.00    +0.000 A 
ATOM     21  C   UNL     1       2.385   7.685  18.967  0.00  0.00    +0.000 A 
ENDBRANCH  13  20
ENDBRANCH   1  13
BRANCH   8  22
ATOM     22  C   UNL     1       5.252   6.224  18.108  0.00  0.00    +0.000 C 
BRANCH  22  23
ATOM     23  C   UNL     1       6.645   5.903  17.527  0.00  0.00    +0.000 C 
ATOM     24  C   UNL     1       7.563   7.134  17.422  0.00  0.00    +0.000 C 
ATOM     25  C   UNL     1       8.314   7.126  18.712  0.00  0.00    +0.000 C 
ATOM     26  C   UNL     1       8.227   5.938  19.318  0.00  0.00    +0.000 C 
ATOM     27  C   UNL     1       7.415   4.977  18.508  0.00  0.00    +0.000 C 
ENDBRANCH  22  23
ENDBRANCH   8  22
TORSDOF 5
ENDMDL
MODEL 8
REMARK VINA RESULT:      -7.3      2.516      5.619
REMARK  Name = 
REMARK  9 active torsions:
REMARK  status: ('A' for Active; 'I' for Inactive)
REMARK    1  A    between atoms: C_1  and  C_2
REMARK    2  A    between atoms: C_4  and  C_5
REMARK    3  A    between atoms: C_7  and  O_8
REMARK    4  A    between atoms: O_8  and  C_9
REMARK    5  A    between atoms: C_10  and  C_11
REMARK    6  A    between atoms: C_11  and  C_12
REMARK    7  A    between atoms: C_11  and  C_13
REMARK    8  A    between atoms: N_19  and  C_20
REMARK    9  A    between atoms: C_20  and  C_21
REMARK                            x       y       z     vdW  Elec       q    Type
REMARK                         _______ _______ _______ _____ _____    ______ ____
ROOT
ATOM      1  C   UNL     1       4.509   4.568  17.105  0.00  0.00    +0.000 A 
ATOM      2  C   UNL     1       4.661   5.772  17.707  0.00  0.00    +0.000 A 
ATOM      3  C   UNL     1       3.417   6.466  18.137  0.00  0.00    +0.000 A 
ATOM      4  O   UNL     1       3.417   7.454  18.866  0.00  0.00    +0.000 OA
ATOM      5  N   UNL     1       2.252   5.939  17.678  0.00  0.00    +0.000 N 
ATOM      6  C   UNL     1       2.111   4.611  17.459  0.00  0.00    +0.000 A 
ATOM      7  O   UNL     1       1.004   4.091  17.599  0.00  0.00    +0.000 OA
ATOM      8  N   UNL     1       3.280   3.905  17.143  0.00  0.00    +0.000 N 
ATOM      9  H   UNL     1       1.421   6.384  18.044  0.00  0.00    +0.000 HD
ENDROOT
BRANCH   2  10
ATOM     10  C   UNL     1       5.956   6.443  18.148  0.00  0.00    +0.000 C 
ATOM     11  C   UNL     1       6.947   5.445  18.766  0.00  0.00    +0.000 C 
ATOM     12  C   UNL     1       6.627   7.304  17.084  0.00  0.00    +0.000 C 
ENDBRANCH   2  10
BRANCH   1  13
ATOM     13  O   UNL     1       5.611   3.887  16.604  0.00  0.00    +0.000 OA
BRANCH  13  20
ATOM     14  C   UNL     1       4.750   3.035  11.887  0.00  0.00    +0.000 C 
ATOM     15  C   UNL     1       5.570   3.708  12.947  0.00  0.00    +0.000 A 
ATOM     16  C   UNL     1       6.707   4.445  12.601  0.00  0.00    +0.000 A 
ATOM     17  C   UNL     1       7.513   5.025  13.591  0.00  0.00    +0.000 A 
ATOM     18  C   UNL     1       8.771   5.743  13.191  0.00  0.00    +0.000 C 
ATOM     19  C   UNL     1       7.181   4.859  14.949  0.00  0.00    +0.000 A 
ATOM     20  C   UNL     1       6.053   4.113  15.312  0.00  0.00    +0.000 A 
ATOM     21  C   UNL     1       5.255   3.550  14.306  0.00  0.00    +0.000 A 
ENDBRANCH  13  20
ENDBRANCH   1  13
BRANCH   8  22
ATOM     22  C   UNL     1       3.090   2.445  17.212  0.00  0.00    +0.000 C 
BRANCH  22  23
ATOM     23  C   UNL     1       3.349   1.592  18.472  0.00  0.00    +0.000 C 
ATOM     24  C   UNL     1       4.288   2.268  19.487  0.00  0.00    +0.000 C 
ATOM     25  C   UNL     1       3.358   2.989  20.404  0.00  0.00    +0.000 C 
ATOM     26  C   UNL     1       2.107   2.536  20.282  0.00  0.00    +0.000 C 
ATOM     27  C   UNL     1       2.028   1.435  19.273  0.00  0.00    +0.000 C 
ENDBRANCH  22  23
ENDBRANCH   8  22
TORSDOF 5
ENDMDL
MODEL 9
REMARK VINA RESULT:      -7.2      5.790      9.078
REMARK  Name = 
REMARK  9 active torsions:
REMARK  status: ('A' for Active; 'I' for Inactive)
REMARK    1  A    between atoms: C_1  and  C_2
REMARK    2  A    between atoms: C_4  and  C_5
REMARK    3  A    between atoms: C_7  and  O_8
REMARK    4  A    between atoms: O_8  and  C_9
REMARK    5  A    between atoms: C_10  and  C_11
REMARK    6  A    between atoms: C_11  and  C_12
REMARK    7  A    between atoms: C_11  and  C_13
REMARK    8  A    between atoms: N_19  and  C_20
REMARK    9  A    between atoms: C_20  and  C_21
REMARK                            x       y       z     vdW  Elec       q    Type
REMARK                         _______ _______ _______ _____ _____    ______ ____
ROOT
ATOM      1  C   UNL     1      -0.841  11.451  20.814  0.00  0.00    +0.000 A 
ATOM      2  C   UNL     1      -0.905  11.227  22.149  0.00  0.00    +0.000 A 
ATOM      3  C   UNL     1      -0.182  10.033  22.661  0.00  0.00    +0.000 A 
ATOM      4  O   UNL     1       0.012   9.826  23.855  0.00  0.00    +0.000 OA
ATOM      5  N   UNL     1       0.272   9.162  21.721  0.00  0.00    +0.000 N 
ATOM      6  C   UNL     1       0.669   9.581  20.498  0.00  0.00    +0.000 A 
ATOM      7  O   UNL     1       1.549   8.958  19.904  0.00  0.00    +0.000 OA
ATOM      8  N   UNL     1       0.077  10.758  20.021  0.00  0.00    +0.000 N 
ATOM      9  H   UNL     1       0.822   8.399  22.092  0.00  0.00    +0.000 HD
ENDROOT
BRANCH   2  10
ATOM     10  C   UNL     1      -1.493  12.132  23.224  0.00  0.00    +0.000 C 
ATOM     11  C   UNL     1      -1.030  13.588  23.076  0.00  0.00    +0.000 C 
ATOM     12  C   UNL     1      -3.007  12.045  23.379  0.00  0.00    +0.000 C 
ENDBRANCH   2  10
BRANCH   1  13
ATOM     13  O   UNL     1      -1.551  12.498  20.241  0.00  0.00    +0.000 OA
BRANCH  13  20
ATOM     14  C   UNL     1      -6.408  12.825  20.153  0.00  0.00    +0.000 C 
ATOM     15  C   UNL     1      -5.127  12.475  19.457  0.00  0.00    +0.000 A 
ATOM     16  C   UNL     1      -5.148  11.902  18.182  0.00  0.00    +0.000 A 
ATOM     17  C   UNL     1      -3.957  11.514  17.551  0.00  0.00    +0.000 A 
ATOM     18  C   UNL     1      -4.018  10.830  16.215  0.00  0.00    +0.000 C 
ATOM     19  C   UNL     1      -2.726  11.695  18.210  0.00  0.00    +0.000 A 
ATOM     20  C   UNL     1      -2.690  12.255  19.493  0.00  0.00    +0.000 A 
ATOM     21  C   UNL     1      -3.891  12.645  20.102  0.00  0.00    +0.000 A 
ENDBRANCH  13  20
ENDBRANCH   1  13
BRANCH   8  22
ATOM     22  C   UNL     1       0.770  11.296  18.837  0.00  0.00    +0.000 C 
BRANCH  22  23
ATOM     23  C   UNL     1       2.001  12.225  18.895  0.00  0.00    +0.000 C 
ATOM     24  C   UNL     1       1.900  13.435  17.949  0.00  0.00    +0.000 C 
ATOM     25  C   UNL     1       1.297  14.501  18.801  0.00  0.00    +0.000 C 
ATOM     26  C   UNL     1       1.391  14.197  20.098  0.00  0.00    +0.000 C 
ATOM     27  C   UNL     1       2.085  12.887  20.297  0.00  0.00    +0.000 C 
ENDBRANCH  22  23
ENDBRANCH   8  22
TORSDOF 5
ENDMDL
