MODEL 1
REMARK VINA RESULT:      -7.6      0.000      0.000
REMARK  Name = 
REMARK  9 active torsions:
REMARK  status: ('A' for Active; 'I' for Inactive)
REMARK    1  A    between atoms: C_1  and  C_2
REMARK    2  A    between atoms: C_2  and  O_3
REMARK    3  A    between atoms: O_3  and  C_4
REMARK    4  A    between atoms: N_12  and  C_13
REMARK    5  A    between atoms: C_15  and  C_16
REMARK    6  A    between atoms: C_16  and  O_17
REMARK    7  A    between atoms: C_18  and  C_19
REMARK    8  A    between atoms: C_18  and  O_20
REMARK    9  A    between atoms: C_21  and  C_22
REMARK                            x       y       z     vdW  Elec       q    Type
REMARK                         _______ _______ _______ _____ _____    ______ ____
ROOT
ATOM      1  C   UNL     1       3.793   3.090  18.743  0.00  0.00    +0.000 C 
ATOM      2  O   UNL     1       3.859   2.630  20.118  0.00  0.00    +0.000 OA
ATOM      3  C   UNL     1       2.788   3.230  20.891  0.00  0.00    +0.000 C 
ATOM      4  C   UNL     1       1.983   4.144  19.946  0.00  0.00    +0.000 C 
ATOM      5  C   UNL     1       2.452   5.604  20.110  0.00  0.00    +0.000 C 
ATOM      6  C   UNL     1       2.348   3.589  18.553  0.00  0.00    +0.000 C 
ATOM      7  C   UNL     1       1.468   2.431  18.069  0.00  0.00    +0.000 C 
ATOM      8  F   UNL     1       2.223   4.568  17.626  0.00  0.00    +0.000 F 
ENDROOT
BRANCH   1  17
ATOM      9  C   UNL     1       6.929   6.044  16.533  0.00  0.00    +0.000 A 
ATOM     10  N   UNL     1       6.583   5.692  15.267  0.00  0.00    +0.000 NA
ATOM     11  C   UNL     1       5.664   4.712  15.119  0.00  0.00    +0.000 A 
ATOM     12  N   UNL     1       5.016   4.021  16.080  0.00  0.00    +0.000 NA
ATOM     13  C   UNL     1       5.378   4.433  17.306  0.00  0.00    +0.000 A 
ATOM     14  C   UNL     1       6.325   5.401  17.615  0.00  0.00    +0.000 A 
ATOM     15  N   UNL     1       6.478   5.514  18.977  0.00  0.00    +0.000 NA
ATOM     16  C   UNL     1       5.643   4.635  19.485  0.00  0.00    +0.000 A 
ATOM     17  N   UNL     1       4.876   4.033  18.517  0.00  0.00    +0.000 N 
BRANCH   9  18
ATOM     18  O   UNL     1       7.810   7.079  16.753  0.00  0.00    +0.000 OA
BRANCH  18  20
ATOM     19  C   UNL     1       8.329   8.977  18.082  0.00  0.00    +0.000 C 
ATOM     20  C   UNL     1       7.215   8.199  17.401  0.00  0.00    +0.000 C 
ENDBRANCH  18  20
ENDBRANCH   9  18
ENDBRANCH   1  17
BRANCH   4  21
ATOM     21  O   UNL     1       0.595   4.167  20.278  0.00  0.00    +0.000 OA
ATOM     22  H   UNL     1       0.453   4.329  21.223  0.00  0.00    +0.000 HD
ENDBRANCH   4  21
BRANCH   3  23
ATOM     23  C   UNL     1       1.981   2.113  21.577  0.00  0.00    +0.000 C 
BRANCH  23  24
ATOM     24  O   UNL     1       1.131   2.640  22.598  0.00  0.00    +0.000 OA
ATOM     25  H   UNL     1       0.353   3.040  22.175  0.00  0.00    +0.000 HD
ENDBRANCH  23  24
ENDBRANCH   3  23
TORSDOF 6
ENDMDL
MODEL 2
REMARK VINA RESULT:      -7.1      1.163      2.023
REMARK  Name = 
REMARK  9 active torsions:
REMARK  status: ('A' for Active; 'I' for Inactive)
REMARK    1  A    between atoms: C_1  and  C_2
REMARK    2  A    between atoms: C_2  and  O_3
REMARK    3  A    between atoms: O_3  and  C_4
REMARK    4  A    between atoms: N_12  and  C_13
REMARK    5  A    between atoms: C_15  and  C_16
REMARK    6  A    between atoms: C_16  and  O_17
REMARK    7  A    between atoms: C_18  and  C_19
REMARK    8  A    between atoms: C_18  and  O_20
REMARK    9  A    between atoms: C_21  and  C_22
REMARK                            x       y       z     vdW  Elec       q    Type
REMARK                         _______ _______ _______ _____ _____    ______ ____
ROOT
ATOM      1  C   UNL     1       4.108   3.631  18.287  0.00  0.00    +0.000 C 
ATOM      2  O   UNL     1       4.383   3.387  19.691  0.00  0.00    +0.000 OA
ATOM      3  C   UNL     1       3.222   3.733  20.490  0.00  0.00    +0.000 C 
ATOM      4  C   UNL     1       2.129   4.242  19.529  0.00  0.00    +0.000 C 
ATOM      5  C   UNL     1       2.138   5.784  19.500  0.00  0.00    +0.000 C 
ATOM      6  C   UNL     1       2.572   3.650  18.175  0.00  0.00    +0.000 C 
ATOM      7  C   UNL     1       2.063   2.232  17.892  0.00  0.00    +0.000 C 
ATOM      8  F   UNL     1       2.105   4.424  17.166  0.00  0.00    +0.000 F 
ENDROOT
BRANCH   1  17
ATOM      9  C   UNL     1       7.524   7.047  17.960  0.00  0.00    +0.000 A 
ATOM     10  N   UNL     1       8.249   6.621  19.027  0.00  0.00    +0.000 NA
ATOM     11  C   UNL     1       7.762   5.582  19.741  0.00  0.00    +0.000 A 
ATOM     12  N   UNL     1       6.628   4.881  19.529  0.00  0.00    +0.000 NA
ATOM     13  C   UNL     1       5.971   5.329  18.446  0.00  0.00    +0.000 A 
ATOM     14  C   UNL     1       6.330   6.399  17.638  0.00  0.00    +0.000 A 
ATOM     15  N   UNL     1       5.386   6.606  16.659  0.00  0.00    +0.000 NA
ATOM     16  C   UNL     1       4.474   5.683  16.868  0.00  0.00    +0.000 A 
ATOM     17  N   UNL     1       4.838   4.817  17.871  0.00  0.00    +0.000 N 
BRANCH   9  18
ATOM     18  O   UNL     1       7.997   8.058  17.153  0.00  0.00    +0.000 OA
BRANCH  18  20
ATOM     19  C   UNL     1       8.885   9.914  18.339  0.00  0.00    +0.000 C 
ATOM     20  C   UNL     1       7.663   9.360  17.624  0.00  0.00    +0.000 C 
ENDBRANCH  18  20
ENDBRANCH   9  18
ENDBRANCH   1  17
BRANCH   4  21
ATOM     21  O   UNL     1       0.819   3.893  19.978  0.00  0.00    +0.000 OA
ATOM     22  H   UNL     1       0.359   4.650  20.372  0.00  0.00    +0.000 HD
ENDBRANCH   4  21
BRANCH   3  23
ATOM     23  C   UNL     1       2.832   2.523  21.355  0.00  0.00    +0.000 C 
BRANCH  23  24
ATOM     24  O   UNL     1       1.900   2.892  22.373  0.00  0.00    +0.000 OA
ATOM     25  H   UNL     1       1.061   3.139  21.948  0.00  0.00    +0.000 HD
ENDBRANCH  23  24
ENDBRANCH   3  23
TORSDOF 6
ENDMDL
MODEL 3
REMARK VINA RESULT:      -7.0      3.533      5.230
REMARK  Name = 
REMARK  9 active torsions:
REMARK  status: ('A' for Active; 'I' for Inactive)
REMARK    1  A    between atoms: C_1  and  C_2
REMARK    2  A    between atoms: C_2  and  O_3
REMARK    3  A    between atoms: O_3  and  C_4
REMARK    4  A    between atoms: N_12  and  C_13
REMARK    5  A    between atoms: C_15  and  C_16
REMARK    6  A    between atoms: C_16  and  O_17
REMARK    7  A    between atoms: C_18  and  C_19
REMARK    8  A    between atoms: C_18  and  O_20
REMARK    9  A    between atoms: C_21  and  C_22
REMARK                            x       y       z     vdW  Elec       q    Type
REMARK                         _______ _______ _______ _____ _____    ______ ____
ROOT
ATOM      1  C   UNL     1       3.339   5.274  18.917  0.00  0.00    +0.000 C 
ATOM      2  O   UNL     1       3.996   4.477  19.937  0.00  0.00    +0.000 OA
ATOM      3  C   UNL     1       3.375   3.168  20.016  0.00  0.00    +0.000 C 
ATOM      4  C   UNL     1       2.235   3.127  18.978  0.00  0.00    +0.000 C 
ATOM      5  C   UNL     1       0.890   3.425  19.671  0.00  0.00    +0.000 C 
ATOM      6  C   UNL     1       2.630   4.257  18.004  0.00  0.00    +0.000 C 
ATOM      7  C   UNL     1       3.578   3.836  16.876  0.00  0.00    +0.000 C 
ATOM      8  F   UNL     1       1.520   4.744  17.399  0.00  0.00    +0.000 F 
ENDROOT
BRANCH   1  17
ATOM      9  C   UNL     1       0.844   9.342  19.737  0.00  0.00    +0.000 A 
ATOM     10  N   UNL     1       1.221   9.969  18.592  0.00  0.00    +0.000 NA
ATOM     11  C   UNL     1       2.106   9.334  17.793  0.00  0.00    +0.000 A 
ATOM     12  N   UNL     1       2.676   8.124  17.972  0.00  0.00    +0.000 NA
ATOM     13  C   UNL     1       2.243   7.542  19.103  0.00  0.00    +0.000 A 
ATOM     14  C   UNL     1       1.366   8.081  20.034  0.00  0.00    +0.000 A 
ATOM     15  N   UNL     1       1.201   7.226  21.098  0.00  0.00    +0.000 NA
ATOM     16  C   UNL     1       1.961   6.190  20.820  0.00  0.00    +0.000 A 
ATOM     17  N   UNL     1       2.527   6.286  19.572  0.00  0.00    +0.000 N 
BRANCH   9  18
ATOM     18  O   UNL     1      -0.103   9.906  20.562  0.00  0.00    +0.000 OA
BRANCH  18  20
ATOM     19  C   UNL     1      -0.296  10.009  22.927  0.00  0.00    +0.000 C 
ATOM     20  C   UNL     1       0.453  10.535  21.713  0.00  0.00    +0.000 C 
ENDBRANCH  18  20
ENDBRANCH   9  18
ENDBRANCH   1  17
BRANCH   4  21
ATOM     21  O   UNL     1       2.074   1.826  18.411  0.00  0.00    +0.000 OA
ATOM     22  H   UNL     1       1.334   1.347  18.814  0.00  0.00    +0.000 HD
ENDBRANCH   4  21
BRANCH   3  23
ATOM     23  C   UNL     1       4.460   2.089  19.849  0.00  0.00    +0.000 C 
BRANCH  23  24
ATOM     24  O   UNL     1       5.060   1.760  21.104  0.00  0.00    +0.000 OA
ATOM     25  H   UNL     1       4.557   2.200  21.810  0.00  0.00    +0.000 HD
ENDBRANCH  23  24
ENDBRANCH   3  23
TORSDOF 6
ENDMDL
MODEL 4
REMARK VINA RESULT:      -6.8      1.737      3.220
REMARK  Name = 
REMARK  9 active torsions:
REMARK  status: ('A' for Active; 'I' for Inactive)
REMARK    1  A    between atoms: C_1  and  C_2
REMARK    2  A    between atoms: C_2  and  O_3
REMARK    3  A    between atoms: O_3  and  C_4
REMARK    4  A    between atoms: N_12  and  C_13
REMARK    5  A    between atoms: C_15  and  C_16
REMARK    6  A    between atoms: C_16  and  O_17
REMARK    7  A    between atoms: C_18  and  C_19
REMARK    8  A    between atoms: C_18  and  O_20
REMARK    9  A    between atoms: C_21  and  C_22
REMARK                            x       y       z     vdW  Elec       q    Type
REMARK                         _______ _______ _______ _____ _____    ______ ____
ROOT
ATOM      1  C   UNL     1       4.017   4.142  19.669  0.00  0.00    +0.000 C 
ATOM      2  O   UNL     1       3.507   5.487  19.860  0.00  0.00    +0.000 OA
ATOM      3  C   UNL     1       2.063   5.492  19.717  0.00  0.00    +0.000 C 
ATOM      4  C   UNL     1       1.618   4.049  19.406  0.00  0.00    +0.000 C 
ATOM      5  C   UNL     1       1.421   3.882  17.886  0.00  0.00    +0.000 C 
ATOM      6  C   UNL     1       2.812   3.215  19.915  0.00  0.00    +0.000 C 
ATOM      7  C   UNL     1       2.751   2.839  21.400  0.00  0.00    +0.000 C 
ATOM      8  F   UNL     1       2.872   2.045  19.234  0.00  0.00    +0.000 F 
ENDROOT
BRANCH   1  17
ATOM      9  C   UNL     1       6.991   5.106  15.972  0.00  0.00    +0.000 A 
ATOM     10  N   UNL     1       7.500   6.251  16.497  0.00  0.00    +0.000 NA
ATOM     11  C   UNL     1       6.989   6.682  17.672  0.00  0.00    +0.000 A 
ATOM     12  N   UNL     1       6.024   6.111  18.424  0.00  0.00    +0.000 NA
ATOM     13  C   UNL     1       5.582   4.970  17.868  0.00  0.00    +0.000 A 
ATOM     14  C   UNL     1       5.986   4.421  16.658  0.00  0.00    +0.000 A 
ATOM     15  N   UNL     1       5.272   3.280  16.380  0.00  0.00    +0.000 NA
ATOM     16  C   UNL     1       4.452   3.138  17.397  0.00  0.00    +0.000 A 
ATOM     17  N   UNL     1       4.677   4.075  18.376  0.00  0.00    +0.000 N 
BRANCH   9  18
ATOM     18  O   UNL     1       7.513   4.579  14.811  0.00  0.00    +0.000 OA
BRANCH  18  20
ATOM     19  C   UNL     1       6.286   3.677  12.989  0.00  0.00    +0.000 C 
ATOM     20  C   UNL     1       6.787   4.954  13.645  0.00  0.00    +0.000 C 
ENDBRANCH  18  20
ENDBRANCH   9  18
ENDBRANCH   1  17
BRANCH   4  21
ATOM     21  O   UNL     1       0.344   3.748  19.974  0.00  0.00    +0.000 OA
ATOM     22  H   UNL     1      -0.368   3.816  19.319  0.00  0.00    +0.000 HD
ENDBRANCH   4  21
BRANCH   3  23
ATOM     23  C   UNL     1       1.439   6.120  20.975  0.00  0.00    +0.000 C 
BRANCH  23  24
ATOM     24  O   UNL     1       1.830   7.487  21.121  0.00  0.00    +0.000 OA
ATOM     25  H   UNL     1       1.149   7.948  21.639  0.00  0.00    +0.000 HD
ENDBRANCH  23  24
ENDBRANCH   3  23
TORSDOF 6
ENDMDL
MODEL 5
REMARK VINA RESULT:      -6.6      3.681      4.806
REMARK  Name = 
REMARK  9 active torsions:
REMARK  status: ('A' for Active; 'I' for Inactive)
REMARK    1  A    between atoms: C_1  and  C_2
REMARK    2  A    between atoms: C_2  and  O_3
REMARK    3  A    between atoms: O_3  and  C_4
REMARK    4  A    between atoms: N_12  and  C_13
REMARK    5  A    between atoms: C_15  and  C_16
REMARK    6  A    between atoms: C_16  and  O_17
REMARK    7  A    between atoms: C_18  and  C_19
REMARK    8  A    between atoms: C_18  and  O_20
REMARK    9  A    between atoms: C_21  and  C_22
REMARK                            x       y       z     vdW  Elec       q    Type
REMARK                         _______ _______ _______ _____ _____    ______ ____
ROOT
ATOM      1  C   UNL     1       3.333   5.102  19.841  0.00  0.00    +0.000 C 
ATOM      2  O   UNL     1       2.268   4.795  20.778  0.00  0.00    +0.000 OA
ATOM      3  C   UNL     1       1.466   3.697  20.270  0.00  0.00    +0.000 C 
ATOM      4  C   UNL     1       2.055   3.277  18.909  0.00  0.00    +0.000 C 
ATOM      5  C   UNL     1       1.252   3.935  17.769  0.00  0.00    +0.000 C 
ATOM      6  C   UNL     1       3.492   3.834  18.981  0.00  0.00    +0.000 C 
ATOM      7  C   UNL     1       4.516   2.899  19.634  0.00  0.00    +0.000 C 
ATOM      8  F   UNL     1       3.950   4.075  17.729  0.00  0.00    +0.000 F 
ENDROOT
BRANCH   1  17
ATOM      9  C   UNL     1       1.610   9.541  18.962  0.00  0.00    +0.000 A 
ATOM     10  N   UNL     1       0.903   9.647  20.118  0.00  0.00    +0.000 NA
ATOM     11  C   UNL     1       0.882   8.574  20.940  0.00  0.00    +0.000 A 
ATOM     12  N   UNL     1       1.492   7.382  20.774  0.00  0.00    +0.000 NA
ATOM     13  C   UNL     1       2.198   7.348  19.631  0.00  0.00    +0.000 A 
ATOM     14  C   UNL     1       2.288   8.354  18.677  0.00  0.00    +0.000 A 
ATOM     15  N   UNL     1       3.047   7.942  17.607  0.00  0.00    +0.000 NA
ATOM     16  C   UNL     1       3.411   6.714  17.904  0.00  0.00    +0.000 A 
ATOM     17  N   UNL     1       3.013   6.349  19.167  0.00  0.00    +0.000 N 
BRANCH   9  18
ATOM     18  O   UNL     1       1.724  10.619  18.113  0.00  0.00    +0.000 OA
BRANCH  18  20
ATOM     19  C   UNL     1       2.476  12.866  18.255  0.00  0.00    +0.000 C 
ATOM     20  C   UNL     1       1.441  11.865  18.741  0.00  0.00    +0.000 C 
ENDBRANCH  18  20
ENDBRANCH   9  18
ENDBRANCH   1  17
BRANCH   4  21
ATOM     21  O   UNL     1       1.928   1.873  18.682  0.00  0.00    +0.000 OA
ATOM     22  H   UNL     1       1.152   1.504  19.130  0.00  0.00    +0.000 HD
ENDBRANCH   4  21
BRANCH   3  23
ATOM     23  C   UNL     1       1.405   2.589  21.335  0.00  0.00    +0.000 C 
BRANCH  23  24
ATOM     24  O   UNL     1       2.461   2.726  22.288  0.00  0.00    +0.000 OA
ATOM     25  H   UNL     1       2.080   3.034  23.127  0.00  0.00    +0.000 HD
ENDBRANCH  23  24
ENDBRANCH   3  23
TORSDOF 6
ENDMDL
MODEL 6
REMARK VINA RESULT:      -6.6      3.893      5.543
REMARK  Name = 
REMARK  9 active torsions:
REMARK  status: ('A' for Active; 'I' for Inactive)
REMARK    1  A    between atoms: C_1  and  C_2
REMARK    2  A    between atoms: C_2  and  O_3
REMARK    3  A    between atoms: O_3  and  C_4
REMARK    4  A    between atoms: N_12  and  C_13
REMARK    5  A    between atoms: C_15  and  C_16
REMARK    6  A    between atoms: C_16  and  O_17
REMARK    7  A    between atoms: C_18  and  C_19
REMARK    8  A    between atoms: C_18  and  O_20
REMARK    9  A    between atoms: C_21  and  C_22
REMARK                            x       y       z     vdW  Elec       q    Type
REMARK                         _______ _______ _______ _____ _____    ______ ____
ROOT
ATOM      1  C   UNL     1       3.646   5.858  19.386  0.00  0.00    +0.000 C 
ATOM      2  O   UNL     1       2.913   5.251  20.481  0.00  0.00    +0.000 OA
ATOM      3  C   UNL     1       2.289   4.019  20.036  0.00  0.00    +0.000 C 
ATOM      4  C   UNL     1       2.642   3.828  18.547  0.00  0.00    +0.000 C 
ATOM      5  C   UNL     1       1.478   4.329  17.668  0.00  0.00    +0.000 C 
ATOM      6  C   UNL     1       3.894   4.714  18.384  0.00  0.00    +0.000 C 
ATOM      7  C   UNL     1       5.222   4.025  18.715  0.00  0.00    +0.000 C 
ATOM      8  F   UNL     1       3.996   5.125  17.097  0.00  0.00    +0.000 F 
ENDROOT
BRANCH   1  17
ATOM      9  C   UNL     1       0.771   9.753  19.331  0.00  0.00    +0.000 A 
ATOM     10  N   UNL     1       0.302   9.598  20.596  0.00  0.00    +0.000 NA
ATOM     11  C   UNL     1       0.702   8.504  21.282  0.00  0.00    +0.000 A 
ATOM     12  N   UNL     1       1.534   7.522  20.878  0.00  0.00    +0.000 NA
ATOM     13  C   UNL     1       1.987   7.746  19.633  0.00  0.00    +0.000 A 
ATOM     14  C   UNL     1       1.643   8.802  18.799  0.00  0.00    +0.000 A 
ATOM     15  N   UNL     1       2.253   8.671  17.573  0.00  0.00    +0.000 NA
ATOM     16  C   UNL     1       2.951   7.561  17.660  0.00  0.00    +0.000 A 
ATOM     17  N   UNL     1       2.910   7.022  18.924  0.00  0.00    +0.000 N 
BRANCH   9  18
ATOM     18  O   UNL     1       0.454  10.879  18.602  0.00  0.00    +0.000 OA
BRANCH  18  20
ATOM     19  C   UNL     1      -1.536  10.147  17.533  0.00  0.00    +0.000 C 
ATOM     20  C   UNL     1      -0.946  11.129  18.531  0.00  0.00    +0.000 C 
ENDBRANCH  18  20
ENDBRANCH   9  18
ENDBRANCH   1  17
BRANCH   4  21
ATOM     21  O   UNL     1       2.790   2.449  18.206  0.00  0.00    +0.000 OA
ATOM     22  H   UNL     1       3.003   1.907  18.980  0.00  0.00    +0.000 HD
ENDBRANCH   4  21
BRANCH   3  23
ATOM     23  C   UNL     1       2.720   2.875  20.970  0.00  0.00    +0.000 C 
BRANCH  23  24
ATOM     24  O   UNL     1       1.887   2.812  22.130  0.00  0.00    +0.000 OA
ATOM     25  H   UNL     1       2.321   3.304  22.847  0.00  0.00    +0.000 HD
ENDBRANCH  23  24
ENDBRANCH   3  23
TORSDOF 6
ENDMDL
MODEL 7
REMARK VINA RESULT:      -6.3      1.969      2.910
REMARK  Name = 
REMARK  9 active torsions:
REMARK  status: ('A' for Active; 'I' for Inactive)
REMARK    1  A    between atoms: C_1  and  C_2
REMARK    2  A    between atoms: C_2  and  O_3
REMARK    3  A    between atoms: O_3  and  C_4
REMARK    4  A    between atoms: N_12  and  C_13
REMARK    5  A    between atoms: C_15  and  C_16
REMARK    6  A    between atoms: C_16  and  O_17
REMARK    7  A    between atoms: C_18  and  C_19
REMARK    8  A    between atoms: C_18  and  O_20
REMARK    9  A    between atoms: C_21  and  C_22
REMARK                            x       y       z     vdW  Elec       q    Type
REMARK                         _______ _______ _______ _____ _____    ______ ____
ROOT
ATOM      1  C   UNL     1       3.534   4.529  19.620  0.00  0.00    +0.000 C 
ATOM      2  O   UNL     1       2.142   4.736  19.265  0.00  0.00    +0.000 OA
ATOM      3  C   UNL     1       1.697   3.678  18.376  0.00  0.00    +0.000 C 
ATOM      4  C   UNL     1       2.891   2.732  18.140  0.00  0.00    +0.000 C 
ATOM      5  C   UNL     1       3.581   3.088  16.807  0.00  0.00    +0.000 C 
ATOM      6  C   UNL     1       3.803   3.038  19.346  0.00  0.00    +0.000 C 
ATOM      7  C   UNL     1       3.499   2.224  20.609  0.00  0.00    +0.000 C 
ATOM      8  F   UNL     1       5.090   2.762  19.024  0.00  0.00    +0.000 F 
ENDROOT
BRANCH   1  17
ATOM      9  C   UNL     1       7.352   7.026  17.994  0.00  0.00    +0.000 A 
ATOM     10  N   UNL     1       8.265   6.424  18.801  0.00  0.00    +0.000 NA
ATOM     11  C   UNL     1       7.809   5.524  19.701  0.00  0.00    +0.000 A 
ATOM     12  N   UNL     1       6.538   5.120  19.908  0.00  0.00    +0.000 NA
ATOM     13  C   UNL     1       5.688   5.726  19.063  0.00  0.00    +0.000 A 
ATOM     14  C   UNL     1       6.002   6.688  18.113  0.00  0.00    +0.000 A 
ATOM     15  N   UNL     1       4.867   7.129  17.474  0.00  0.00    +0.000 NA
ATOM     16  C   UNL     1       3.885   6.450  18.024  0.00  0.00    +0.000 A 
ATOM     17  N   UNL     1       4.343   5.509  18.914  0.00  0.00    +0.000 N 
BRANCH   9  18
ATOM     18  O   UNL     1       7.758   7.903  17.013  0.00  0.00    +0.000 OA
BRANCH  18  20
ATOM     19  C   UNL     1       8.736   9.603  18.351  0.00  0.00    +0.000 C 
ATOM     20  C   UNL     1       7.612   9.270  17.383  0.00  0.00    +0.000 C 
ENDBRANCH  18  20
ENDBRANCH   9  18
ENDBRANCH   1  17
BRANCH   4  21
ATOM     21  O   UNL     1       2.475   1.375  17.984  0.00  0.00    +0.000 OA
ATOM     22  H   UNL     1       1.629   1.205  18.426  0.00  0.00    +0.000 HD
ENDBRANCH   4  21
BRANCH   3  23
ATOM     23  C   UNL     1       0.440   3.021  18.972  0.00  0.00    +0.000 C 
BRANCH  23  24
ATOM     24  O   UNL     1       0.331   3.286  20.372  0.00  0.00    +0.000 OA
ATOM     25  H   UNL     1      -0.611   3.365  20.598  0.00  0.00    +0.000 HD
ENDBRANCH  23  24
ENDBRANCH   3  23
TORSDOF 6
ENDMDL
MODEL 8
REMARK VINA RESULT:      -6.2      1.836      3.089
REMARK  Name = 
REMARK  9 active torsions:
REMARK  status: ('A' for Active; 'I' for Inactive)
REMARK    1  A    between atoms: C_1  and  C_2
REMARK    2  A    between atoms: C_2  and  O_3
REMARK    3  A    between atoms: O_3  and  C_4
REMARK    4  A    between atoms: N_12  and  C_13
REMARK    5  A    between atoms: C_15  and  C_16
REMARK    6  A    between atoms: C_16  and  O_17
REMARK    7  A    between atoms: C_18  and  C_19
REMARK    8  A    between atoms: C_18  and  O_20
REMARK    9  A    between atoms: C_21  and  C_22
REMARK                            x       y       z     vdW  Elec       q    Type
REMARK                         _______ _______ _______ _____ _____    ______ ____
ROOT
ATOM      1  C   UNL     1       2.879   4.735  18.294  0.00  0.00    +0.000 C 
ATOM      2  O   UNL     1       1.889   3.703  18.047  0.00  0.00    +0.000 OA
ATOM      3  C   UNL     1       1.970   2.685  19.077  0.00  0.00    +0.000 C 
ATOM      4  C   UNL     1       3.098   3.090  20.048  0.00  0.00    +0.000 C 
ATOM      5  C   UNL     1       4.393   2.335  19.685  0.00  0.00    +0.000 C 
ATOM      6  C   UNL     1       3.236   4.604  19.787  0.00  0.00    +0.000 C 
ATOM      7  C   UNL     1       2.299   5.490  20.615  0.00  0.00    +0.000 C 
ATOM      8  F   UNL     1       4.494   5.004  20.087  0.00  0.00    +0.000 F 
ENDROOT
BRANCH   1  17
ATOM      9  C   UNL     1       6.974   5.490  15.822  0.00  0.00    +0.000 A 
ATOM     10  N   UNL     1       7.283   6.669  16.421  0.00  0.00    +0.000 NA
ATOM     11  C   UNL     1       6.399   7.168  17.314  0.00  0.00    +0.000 A 
ATOM     12  N   UNL     1       5.224   6.638  17.713  0.00  0.00    +0.000 NA
ATOM     13  C   UNL     1       4.988   5.461  17.109  0.00  0.00    +0.000 A 
ATOM     14  C   UNL     1       5.782   4.841  16.154  0.00  0.00    +0.000 A 
ATOM     15  N   UNL     1       5.194   3.679  15.713  0.00  0.00    +0.000 NA
ATOM     16  C   UNL     1       4.068   3.594  16.385  0.00  0.00    +0.000 A 
ATOM     17  N   UNL     1       3.950   4.593  17.321  0.00  0.00    +0.000 N 
BRANCH   9  18
ATOM     18  O   UNL     1       7.861   4.895  14.953  0.00  0.00    +0.000 OA
BRANCH  18  20
ATOM     19  C   UNL     1       8.317   5.687  12.761  0.00  0.00    +0.000 C 
ATOM     20  C   UNL     1       7.386   4.839  13.611  0.00  0.00    +0.000 C 
ENDBRANCH  18  20
ENDBRANCH   9  18
ENDBRANCH   1  17
BRANCH   4  21
ATOM     21  O   UNL     1       2.812   2.699  21.391  0.00  0.00    +0.000 OA
ATOM     22  H   UNL     1       2.923   1.745  21.521  0.00  0.00    +0.000 HD
ENDBRANCH   4  21
BRANCH   3  23
ATOM     23  C   UNL     1       0.581   2.506  19.714  0.00  0.00    +0.000 C 
BRANCH  23  24
ATOM     24  O   UNL     1       0.150   3.704  20.362  0.00  0.00    +0.000 OA
ATOM     25  H   UNL     1       0.537   3.729  21.253  0.00  0.00    +0.000 HD
ENDBRANCH  23  24
ENDBRANCH   3  23
TORSDOF 6
ENDMDL
MODEL 9
REMARK VINA RESULT:      -6.2      1.561      2.304
REMARK  Name = 
REMARK  9 active torsions:
REMARK  status: ('A' for Active; 'I' for Inactive)
REMARK    1  A    between atoms: C_1  and  C_2
REMARK    2  A    between atoms: C_2  and  O_3
REMARK    3  A    between atoms: O_3  and  C_4
REMARK    4  A    between atoms: N_12  and  C_13
REMARK    5  A    between atoms: C_15  and  C_16
REMARK    6  A    between atoms: C_16  and  O_17
REMARK    7  A    between atoms: C_18  and  C_19
REMARK    8  A    between atoms: C_18  and  O_20
REMARK    9  A    between atoms: C_21  and  C_22
REMARK                            x       y       z     vdW  Elec       q    Type
REMARK                         _______ _______ _______ _____ _____    ______ ____
ROOT
ATOM      1  C   UNL     1       4.204   3.616  18.853  0.00  0.00    +0.000 C 
ATOM      2  O   UNL     1       3.569   3.886  20.129  0.00  0.00    +0.000 OA
ATOM      3  C   UNL     1       2.126   3.874  19.975  0.00  0.00    +0.000 C 
ATOM      4  C   UNL     1       1.816   3.583  18.493  0.00  0.00    +0.000 C 
ATOM      5  C   UNL     1       1.537   4.906  17.751  0.00  0.00    +0.000 C 
ATOM      6  C   UNL     1       3.122   2.925  18.002  0.00  0.00    +0.000 C 
ATOM      7  C   UNL     1       3.200   1.409  18.211  0.00  0.00    +0.000 C 
ATOM      8  F   UNL     1       3.260   3.128  16.669  0.00  0.00    +0.000 F 
ENDROOT
BRANCH   1  17
ATOM      9  C   UNL     1       7.323   7.222  18.006  0.00  0.00    +0.000 A 
ATOM     10  N   UNL     1       8.265   6.802  18.891  0.00  0.00    +0.000 NA
ATOM     11  C   UNL     1       7.977   5.716  19.643  0.00  0.00    +0.000 A 
ATOM     12  N   UNL     1       6.858   4.962  19.628  0.00  0.00    +0.000 NA
ATOM     13  C   UNL     1       5.980   5.407  18.714  0.00  0.00    +0.000 A 
ATOM     14  C   UNL     1       6.121   6.520  17.897  0.00  0.00    +0.000 A 
ATOM     15  N   UNL     1       4.994   6.707  17.132  0.00  0.00    +0.000 NA
ATOM     16  C   UNL     1       4.185   5.729  17.476  0.00  0.00    +0.000 A 
ATOM     17  N   UNL     1       4.780   4.853  18.351  0.00  0.00    +0.000 N 
BRANCH   9  18
ATOM     18  O   UNL     1       7.580   8.282  17.165  0.00  0.00    +0.000 OA
BRANCH  18  20
ATOM     19  C   UNL     1       7.952  10.523  17.857  0.00  0.00    +0.000 C 
ATOM     20  C   UNL     1       8.591   9.158  17.654  0.00  0.00    +0.000 C 
ENDBRANCH  18  20
ENDBRANCH   9  18
ENDBRANCH   1  17
BRANCH   4  21
ATOM     21  O   UNL     1       0.620   2.818  18.337  0.00  0.00    +0.000 OA
ATOM     22  H   UNL     1       0.653   1.992  18.843  0.00  0.00    +0.000 HD
ENDBRANCH   4  21
BRANCH   3  23
ATOM     23  C   UNL     1       1.524   2.881  20.984  0.00  0.00    +0.000 C 
BRANCH  23  24
ATOM     24  O   UNL     1       2.119   3.029  22.275  0.00  0.00    +0.000 OA
ATOM     25  H   UNL     1       1.768   3.837  22.685  0.00  0.00    +0.000 HD
ENDBRANCH  23  24
ENDBRANCH   3  23
TORSDOF 6
ENDMDL
