MODEL 1
REMARK VINA RESULT:      -7.9      0.000      0.000
REMARK  Name = 
REMARK  9 active torsions:
REMARK  status: ('A' for Active; 'I' for Inactive)
REMARK    1  A    between atoms: C_1  and  C_2
REMARK    2  A    between atoms: C_5  and  O_6
REMARK    3  A    between atoms: C_7  and  C_8
REMARK    4  A    between atoms: C_7  and  C_9
REMARK    5  A    between atoms: C_14  and  C_15
REMARK    6  A    between atoms: C_15  and  O_17
REMARK    7  A    between atoms: C_19  and  C_20
REMARK    8  A    between atoms: C_23  and  C_24
REMARK    9  A    between atoms: C_24  and  O_26
REMARK                            x       y       z     vdW  Elec       q    Type
REMARK                         _______ _______ _______ _____ _____    ______ ____
ROOT
ATOM      1  C   UNL     1       5.041   2.340  20.530  0.00  0.00    +0.000 C 
ATOM      2  C   UNL     1       3.804   3.207  20.261  0.00  0.00    +0.000 C 
ATOM      3  C   UNL     1       2.523   2.370  20.437  0.00  0.00    +0.000 C 
ATOM      4  C   UNL     1       1.245   3.201  20.305  0.00  0.00    +0.000 C 
ATOM      5  C   UNL     1       1.206   4.080  19.050  0.00  0.00    +0.000 C 
ATOM      6  C   UNL     1       2.511   4.904  18.831  0.00  0.00    +0.000 C 
ATOM      7  C   UNL     1       2.578   5.995  19.941  0.00  0.00    +0.000 C 
ATOM      8  C   UNL     1       2.408   5.695  17.504  0.00  0.00    +0.000 C 
ATOM      9  C   UNL     1       3.795   3.950  18.879  0.00  0.00    +0.000 C 
ATOM     10  C   UNL     1       3.881   2.923  17.717  0.00  0.00    +0.000 C 
ATOM     11  C   UNL     1       4.792   3.630  16.798  0.00  0.00    +0.000 A 
ATOM     12  C   UNL     1       4.981   3.373  15.452  0.00  0.00    +0.000 A 
ATOM     13  C   UNL     1       5.847   4.197  14.742  0.00  0.00    +0.000 A 
ATOM     14  C   UNL     1       6.525   5.242  15.412  0.00  0.00    +0.000 A 
ATOM     15  C   UNL     1       6.340   5.507  16.799  0.00  0.00    +0.000 A 
ATOM     16  C   UNL     1       5.436   4.666  17.460  0.00  0.00    +0.000 A 
ATOM     17  O   UNL     1       5.009   4.778  18.770  0.00  0.00    +0.000 OA
ENDROOT
BRANCH  15  18
ATOM     18  C   UNL     1       7.049   6.636  17.458  0.00  0.00    +0.000 A 
ATOM     19  C   UNL     1       6.919   7.956  16.983  0.00  0.00    +0.000 A 
ATOM     20  C   UNL     1       7.628   9.019  17.554  0.00  0.00    +0.000 A 
ATOM     21  C   UNL     1       8.482   8.797  18.636  0.00  0.00    +0.000 A 
ATOM     22  C   UNL     1       8.589   7.508  19.164  0.00  0.00    +0.000 A 
ATOM     23  C   UNL     1       7.892   6.445  18.569  0.00  0.00    +0.000 A 
BRANCH  21  24
ATOM     24  C   UNL     1       9.213   9.966  19.193  0.00  0.00    +0.000 C 
ATOM     25  O   UNL     1       9.762  10.795  18.488  0.00  0.00    +0.000 OA
BRANCH  24  26
ATOM     26  O   UNL     1       9.269   9.998  20.540  0.00  0.00    +0.000 OA
ATOM     27  H   UNL     1       9.944   9.427  20.947  0.00  0.00    +0.000 HD
ENDBRANCH  24  26
ENDBRANCH  21  24
ENDBRANCH  15  18
BRANCH   5  28
ATOM     28  O   UNL     1       0.895   3.288  17.904  0.00  0.00    +0.000 OA
ATOM     29  H   UNL     1       1.217   2.381  18.030  0.00  0.00    +0.000 HD
ENDBRANCH   5  28
BRANCH  13  30
ATOM     30  C   UNL     1       5.928   3.968  13.274  0.00  0.00    +0.000 C 
ATOM     31  O   UNL     1       5.027   3.452  12.632  0.00  0.00    +0.000 OA
BRANCH  30  32
ATOM     32  O   UNL     1       7.095   4.346  12.703  0.00  0.00    +0.000 OA
ATOM     33  H   UNL     1       7.455   5.195  13.013  0.00  0.00    +0.000 HD
ENDBRANCH  30  32
ENDBRANCH  13  30
TORSDOF 6
ENDMDL
MODEL 2
REMARK VINA RESULT:      -7.2      3.300      6.685
REMARK  Name = 
REMARK  9 active torsions:
REMARK  status: ('A' for Active; 'I' for Inactive)
REMARK    1  A    between atoms: C_1  and  C_2
REMARK    2  A    between atoms: C_5  and  O_6
REMARK    3  A    between atoms: C_7  and  C_8
REMARK    4  A    between atoms: C_7  and  C_9
REMARK    5  A    between atoms: C_14  and  C_15
REMARK    6  A    between atoms: C_15  and  O_17
REMARK    7  A    between atoms: C_19  and  C_20
REMARK    8  A    between atoms: C_23  and  C_24
REMARK    9  A    between atoms: C_24  and  O_26
REMARK                            x       y       z     vdW  Elec       q    Type
REMARK                         _______ _______ _______ _____ _____    ______ ____
ROOT
ATOM      1  C   UNL     1       4.358   5.031  14.626  0.00  0.00    +0.000 C 
ATOM      2  C   UNL     1       5.567   5.404  15.495  0.00  0.00    +0.000 C 
ATOM      3  C   UNL     1       6.787   4.552  15.098  0.00  0.00    +0.000 C 
ATOM      4  C   UNL     1       8.063   4.955  15.839  0.00  0.00    +0.000 C 
ATOM      5  C   UNL     1       7.887   5.060  17.358  0.00  0.00    +0.000 C 
ATOM      6  C   UNL     1       6.633   5.883  17.782  0.00  0.00    +0.000 C 
ATOM      7  C   UNL     1       6.899   7.375  17.423  0.00  0.00    +0.000 C 
ATOM      8  C   UNL     1       6.498   5.865  19.324  0.00  0.00    +0.000 C 
ATOM      9  C   UNL     1       5.324   5.334  17.044  0.00  0.00    +0.000 C 
ATOM     10  C   UNL     1       4.903   3.898  17.458  0.00  0.00    +0.000 C 
ATOM     11  C   UNL     1       3.866   4.199  18.463  0.00  0.00    +0.000 A 
ATOM     12  C   UNL     1       3.363   3.338  19.422  0.00  0.00    +0.000 A 
ATOM     13  C   UNL     1       2.426   3.834  20.322  0.00  0.00    +0.000 A 
ATOM     14  C   UNL     1       1.996   5.178  20.214  0.00  0.00    +0.000 A 
ATOM     15  C   UNL     1       2.506   6.066  19.223  0.00  0.00    +0.000 A 
ATOM     16  C   UNL     1       3.467   5.524  18.362  0.00  0.00    +0.000 A 
ATOM     17  O   UNL     1       4.183   6.200  17.392  0.00  0.00    +0.000 OA
ENDROOT
BRANCH  15  18
ATOM     18  C   UNL     1       2.050   7.480  19.165  0.00  0.00    +0.000 A 
ATOM     19  C   UNL     1       1.494   8.115  20.293  0.00  0.00    +0.000 A 
ATOM     20  C   UNL     1       1.004   9.425  20.236  0.00  0.00    +0.000 A 
ATOM     21  C   UNL     1       1.070  10.152  19.046  0.00  0.00    +0.000 A 
ATOM     22  C   UNL     1       1.665   9.568  17.926  0.00  0.00    +0.000 A 
ATOM     23  C   UNL     1       2.132   8.246  17.986  0.00  0.00    +0.000 A 
BRANCH  21  24
ATOM     24  C   UNL     1       0.525  11.536  19.048  0.00  0.00    +0.000 C 
ATOM     25  O   UNL     1       0.621  12.278  20.010  0.00  0.00    +0.000 OA
BRANCH  24  26
ATOM     26  O   UNL     1      -0.133  11.877  17.922  0.00  0.00    +0.000 OA
ATOM     27  H   UNL     1       0.266  12.598  17.403  0.00  0.00    +0.000 HD
ENDBRANCH  24  26
ENDBRANCH  21  24
ENDBRANCH  15  18
BRANCH   5  28
ATOM     28  O   UNL     1       7.874   3.758  17.943  0.00  0.00    +0.000 OA
ATOM     29  H   UNL     1       8.676   3.272  17.689  0.00  0.00    +0.000 HD
ENDBRANCH   5  28
BRANCH  13  30
ATOM     30  C   UNL     1       2.003   2.918  21.415  0.00  0.00    +0.000 C 
ATOM     31  O   UNL     1       2.795   2.360  22.157  0.00  0.00    +0.000 OA
BRANCH  30  32
ATOM     32  O   UNL     1       0.668   2.718  21.504  0.00  0.00    +0.000 OA
ATOM     33  H   UNL     1       0.372   2.220  22.285  0.00  0.00    +0.000 HD
ENDBRANCH  30  32
ENDBRANCH  13  30
TORSDOF 6
ENDMDL
MODEL 3
REMARK VINA RESULT:      -7.1      7.191      9.899
REMARK  Name = 
REMARK  9 active torsions:
REMARK  status: ('A' for Active; 'I' for Inactive)
REMARK    1  A    between atoms: C_1  and  C_2
REMARK    2  A    between atoms: C_5  and  O_6
REMARK    3  A    between atoms: C_7  and  C_8
REMARK    4  A    between atoms: C_7  and  C_9
REMARK    5  A    between atoms: C_14  and  C_15
REMARK    6  A    between atoms: C_15  and  O_17
REMARK    7  A    between atoms: C_19  and  C_20
REMARK    8  A    between atoms: C_23  and  C_24
REMARK    9  A    between atoms: C_24  and  O_26
REMARK                            x       y       z     vdW  Elec       q    Type
REMARK                         _______ _______ _______ _____ _____    ______ ____
ROOT
ATOM      1  C   UNL     1      -1.683  11.865  23.245  0.00  0.00    +0.000 C 
ATOM      2  C   UNL     1      -0.808  12.929  22.570  0.00  0.00    +0.000 C 
ATOM      3  C   UNL     1      -1.248  14.336  23.016  0.00  0.00    +0.000 C 
ATOM      4  C   UNL     1      -0.341  15.444  22.478  0.00  0.00    +0.000 C 
ATOM      5  C   UNL     1      -0.090  15.357  20.968  0.00  0.00    +0.000 C 
ATOM      6  C   UNL     1       0.316  13.930  20.489  0.00  0.00    +0.000 C 
ATOM      7  C   UNL     1       1.746  13.633  21.033  0.00  0.00    +0.000 C 
ATOM      8  C   UNL     1       0.470  13.925  18.948  0.00  0.00    +0.000 C 
ATOM      9  C   UNL     1      -0.738  12.842  21.004  0.00  0.00    +0.000 C 
ATOM     10  C   UNL     1      -2.159  12.979  20.394  0.00  0.00    +0.000 C 
ATOM     11  C   UNL     1      -2.085  11.980  19.311  0.00  0.00    +0.000 A 
ATOM     12  C   UNL     1      -2.921  11.880  18.213  0.00  0.00    +0.000 A 
ATOM     13  C   UNL     1      -2.647  10.899  17.267  0.00  0.00    +0.000 A 
ATOM     14  C   UNL     1      -1.555  10.022  17.465  0.00  0.00    +0.000 A 
ATOM     15  C   UNL     1      -0.695  10.116  18.597  0.00  0.00    +0.000 A 
ATOM     16  C   UNL     1      -0.999  11.139  19.504  0.00  0.00    +0.000 A 
ATOM     17  O   UNL     1      -0.265  11.500  20.618  0.00  0.00    +0.000 OA
ENDROOT
BRANCH  15  18
ATOM     18  C   UNL     1       0.460   9.193  18.751  0.00  0.00    +0.000 A 
ATOM     19  C   UNL     1       1.300   8.886  17.662  0.00  0.00    +0.000 A 
ATOM     20  C   UNL     1       2.354   7.972  17.777  0.00  0.00    +0.000 A 
ATOM     21  C   UNL     1       2.615   7.346  18.997  0.00  0.00    +0.000 A 
ATOM     22  C   UNL     1       1.835   7.672  20.108  0.00  0.00    +0.000 A 
ATOM     23  C   UNL     1       0.765   8.572  19.977  0.00  0.00    +0.000 A 
BRANCH  21  24
ATOM     24  C   UNL     1       3.744   6.380  19.052  0.00  0.00    +0.000 C 
ATOM     25  O   UNL     1       4.625   6.350  18.210  0.00  0.00    +0.000 OA
BRANCH  24  26
ATOM     26  O   UNL     1       3.678   5.503  20.075  0.00  0.00    +0.000 OA
ATOM     27  H   UNL     1       3.783   5.886  20.964  0.00  0.00    +0.000 HD
ENDBRANCH  24  26
ENDBRANCH  21  24
ENDBRANCH  15  18
BRANCH   5  28
ATOM     28  O   UNL     1      -1.225  15.841  20.251  0.00  0.00    +0.000 OA
ATOM     29  H   UNL     1      -1.860  16.241  20.867  0.00  0.00    +0.000 HD
ENDBRANCH   5  28
BRANCH  13  30
ATOM     30  C   UNL     1      -3.490  10.904  16.041  0.00  0.00    +0.000 C 
ATOM     31  O   UNL     1      -3.033  10.740  14.921  0.00  0.00    +0.000 OA
BRANCH  30  32
ATOM     32  O   UNL     1      -4.805  11.139  16.255  0.00  0.00    +0.000 OA
ATOM     33  H   UNL     1      -5.294  11.497  15.495  0.00  0.00    +0.000 HD
ENDBRANCH  30  32
ENDBRANCH  13  30
TORSDOF 6
ENDMDL
MODEL 4
REMARK VINA RESULT:      -7.0      3.238      6.605
REMARK  Name = 
REMARK  9 active torsions:
REMARK  status: ('A' for Active; 'I' for Inactive)
REMARK    1  A    between atoms: C_1  and  C_2
REMARK    2  A    between atoms: C_5  and  O_6
REMARK    3  A    between atoms: C_7  and  C_8
REMARK    4  A    between atoms: C_7  and  C_9
REMARK    5  A    between atoms: C_14  and  C_15
REMARK    6  A    between atoms: C_15  and  O_17
REMARK    7  A    between atoms: C_19  and  C_20
REMARK    8  A    between atoms: C_23  and  C_24
REMARK    9  A    between atoms: C_24  and  O_26
REMARK                            x       y       z     vdW  Elec       q    Type
REMARK                         _______ _______ _______ _____ _____    ______ ____
ROOT
ATOM      1  C   UNL     1       4.268   4.844  14.700  0.00  0.00    +0.000 C 
ATOM      2  C   UNL     1       5.487   5.280  15.523  0.00  0.00    +0.000 C 
ATOM      3  C   UNL     1       6.725   4.462  15.110  0.00  0.00    +0.000 C 
ATOM      4  C   UNL     1       8.006   4.929  15.803  0.00  0.00    +0.000 C 
ATOM      5  C   UNL     1       7.871   5.064  17.324  0.00  0.00    +0.000 C 
ATOM      6  C   UNL     1       6.601   5.853  17.765  0.00  0.00    +0.000 C 
ATOM      7  C   UNL     1       6.803   7.345  17.363  0.00  0.00    +0.000 C 
ATOM      8  C   UNL     1       6.511   5.869  19.311  0.00  0.00    +0.000 C 
ATOM      9  C   UNL     1       5.292   5.241  17.080  0.00  0.00    +0.000 C 
ATOM     10  C   UNL     1       4.935   3.801  17.540  0.00  0.00    +0.000 C 
ATOM     11  C   UNL     1       3.917   4.090  18.568  0.00  0.00    +0.000 A 
ATOM     12  C   UNL     1       3.473   3.237  19.562  0.00  0.00    +0.000 A 
ATOM     13  C   UNL     1       2.545   3.722  20.477  0.00  0.00    +0.000 A 
ATOM     14  C   UNL     1       2.064   5.046  20.350  0.00  0.00    +0.000 A 
ATOM     15  C   UNL     1       2.513   5.928  19.324  0.00  0.00    +0.000 A 
ATOM     16  C   UNL     1       3.468   5.398  18.447  0.00  0.00    +0.000 A 
ATOM     17  O   UNL     1       4.131   6.075  17.440  0.00  0.00    +0.000 OA
ENDROOT
BRANCH  15  18
ATOM     18  C   UNL     1       2.005   7.322  19.245  0.00  0.00    +0.000 A 
ATOM     19  C   UNL     1       2.035   8.043  18.035  0.00  0.00    +0.000 A 
ATOM     20  C   UNL     1       1.618   9.377  17.960  0.00  0.00    +0.000 A 
ATOM     21  C   UNL     1       1.138  10.032  19.095  0.00  0.00    +0.000 A 
ATOM     22  C   UNL     1       1.045   9.326  20.297  0.00  0.00    +0.000 A 
ATOM     23  C   UNL     1       1.488   7.996  20.368  0.00  0.00    +0.000 A 
BRANCH  21  24
ATOM     24  C   UNL     1       0.718  11.451  18.951  0.00  0.00    +0.000 C 
ATOM     25  O   UNL     1       1.179  12.345  19.638  0.00  0.00    +0.000 OA
BRANCH  24  26
ATOM     26  O   UNL     1      -0.257  11.654  18.042  0.00  0.00    +0.000 OA
ATOM     27  H   UNL     1       0.038  11.986  17.176  0.00  0.00    +0.000 HD
ENDBRANCH  24  26
ENDBRANCH  21  24
ENDBRANCH  15  18
BRANCH   5  28
ATOM     28  O   UNL     1       7.922   3.777  17.939  0.00  0.00    +0.000 OA
ATOM     29  H   UNL     1       7.459   3.799  18.793  0.00  0.00    +0.000 HD
ENDBRANCH   5  28
BRANCH  13  30
ATOM     30  C   UNL     1       2.187   2.819  21.603  0.00  0.00    +0.000 C 
ATOM     31  O   UNL     1       1.070   2.781  22.095  0.00  0.00    +0.000 OA
BRANCH  30  32
ATOM     32  O   UNL     1       3.205   2.060  22.070  0.00  0.00    +0.000 OA
ATOM     33  H   UNL     1       3.476   2.242  22.985  0.00  0.00    +0.000 HD
ENDBRANCH  30  32
ENDBRANCH  13  30
TORSDOF 6
ENDMDL
MODEL 5
REMARK VINA RESULT:      -6.9      9.126     12.657
REMARK  Name = 
REMARK  9 active torsions:
REMARK  status: ('A' for Active; 'I' for Inactive)
REMARK    1  A    between atoms: C_1  and  C_2
REMARK    2  A    between atoms: C_5  and  O_6
REMARK    3  A    between atoms: C_7  and  C_8
REMARK    4  A    between atoms: C_7  and  C_9
REMARK    5  A    between atoms: C_14  and  C_15
REMARK    6  A    between atoms: C_15  and  O_17
REMARK    7  A    between atoms: C_19  and  C_20
REMARK    8  A    between atoms: C_23  and  C_24
REMARK    9  A    between atoms: C_24  and  O_26
REMARK                            x       y       z     vdW  Elec       q    Type
REMARK                         _______ _______ _______ _____ _____    ______ ____
ROOT
ATOM      1  C   UNL     1       0.733   9.146  22.283  0.00  0.00    +0.000 C 
ATOM      2  C   UNL     1       0.330   9.463  20.836  0.00  0.00    +0.000 C 
ATOM      3  C   UNL     1       1.434   9.002  19.866  0.00  0.00    +0.000 C 
ATOM      4  C   UNL     1       1.046   9.174  18.397  0.00  0.00    +0.000 C 
ATOM      5  C   UNL     1       0.511  10.570  18.059  0.00  0.00    +0.000 C 
ATOM      6  C   UNL     1      -0.578  11.073  19.054  0.00  0.00    +0.000 C 
ATOM      7  C   UNL     1      -1.860  10.216  18.832  0.00  0.00    +0.000 C 
ATOM      8  C   UNL     1      -0.997  12.516  18.678  0.00  0.00    +0.000 C 
ATOM      9  C   UNL     1      -0.058  10.958  20.563  0.00  0.00    +0.000 C 
ATOM     10  C   UNL     1       1.131  11.894  20.910  0.00  0.00    +0.000 C 
ATOM     11  C   UNL     1       0.416  13.019  21.541  0.00  0.00    +0.000 A 
ATOM     12  C   UNL     1       0.898  14.298  21.753  0.00  0.00    +0.000 A 
ATOM     13  C   UNL     1       0.040  15.239  22.312  0.00  0.00    +0.000 A 
ATOM     14  C   UNL     1      -1.274  14.859  22.674  0.00  0.00    +0.000 A 
ATOM     15  C   UNL     1      -1.774  13.541  22.464  0.00  0.00    +0.000 A 
ATOM     16  C   UNL     1      -0.879  12.642  21.871  0.00  0.00    +0.000 A 
ATOM     17  O   UNL     1      -1.150  11.346  21.474  0.00  0.00    +0.000 OA
ENDROOT
BRANCH  15  18
ATOM     18  C   UNL     1      -3.172  13.193  22.830  0.00  0.00    +0.000 A 
ATOM     19  C   UNL     1      -4.205  13.220  21.872  0.00  0.00    +0.000 A 
ATOM     20  C   UNL     1      -5.536  12.954  22.215  0.00  0.00    +0.000 A 
ATOM     21  C   UNL     1      -5.876  12.634  23.530  0.00  0.00    +0.000 A 
ATOM     22  C   UNL     1      -4.865  12.545  24.490  0.00  0.00    +0.000 A 
ATOM     23  C   UNL     1      -3.537  12.836  24.142  0.00  0.00    +0.000 A 
BRANCH  21  24
ATOM     24  C   UNL     1      -7.308  12.369  23.831  0.00  0.00    +0.000 C 
ATOM     25  O   UNL     1      -7.894  11.382  23.423  0.00  0.00    +0.000 OA
BRANCH  24  26
ATOM     26  O   UNL     1      -7.917  13.341  24.541  0.00  0.00    +0.000 OA
ATOM     27  H   UNL     1      -7.780  14.248  24.215  0.00  0.00    +0.000 HD
ENDBRANCH  24  26
ENDBRANCH  21  24
ENDBRANCH  15  18
BRANCH   5  28
ATOM     28  O   UNL     1       1.589  11.499  17.957  0.00  0.00    +0.000 OA
ATOM     29  H   UNL     1       1.579  12.104  18.717  0.00  0.00    +0.000 HD
ENDBRANCH   5  28
BRANCH  13  30
ATOM     30  C   UNL     1       0.553  16.632  22.408  0.00  0.00    +0.000 C 
ATOM     31  O   UNL     1       0.899  17.141  23.463  0.00  0.00    +0.000 OA
BRANCH  30  32
ATOM     32  O   UNL     1       0.575  17.311  21.238  0.00  0.00    +0.000 OA
ATOM     33  H   UNL     1       1.460  17.493  20.879  0.00  0.00    +0.000 HD
ENDBRANCH  30  32
ENDBRANCH  13  30
TORSDOF 6
ENDMDL
MODEL 6
REMARK VINA RESULT:      -6.8      9.199     12.527
REMARK  Name = 
REMARK  9 active torsions:
REMARK  status: ('A' for Active; 'I' for Inactive)
REMARK    1  A    between atoms: C_1  and  C_2
REMARK    2  A    between atoms: C_5  and  O_6
REMARK    3  A    between atoms: C_7  and  C_8
REMARK    4  A    between atoms: C_7  and  C_9
REMARK    5  A    between atoms: C_14  and  C_15
REMARK    6  A    between atoms: C_15  and  O_17
REMARK    7  A    between atoms: C_19  and  C_20
REMARK    8  A    between atoms: C_23  and  C_24
REMARK    9  A    between atoms: C_24  and  O_26
REMARK                            x       y       z     vdW  Elec       q    Type
REMARK                         _______ _______ _______ _____ _____    ______ ____
ROOT
ATOM      1  C   UNL     1      -1.419  16.381  20.006  0.00  0.00    +0.000 C 
ATOM      2  C   UNL     1      -2.737  15.964  20.674  0.00  0.00    +0.000 C 
ATOM      3  C   UNL     1      -3.060  16.912  21.844  0.00  0.00    +0.000 C 
ATOM      4  C   UNL     1      -4.423  16.632  22.479  0.00  0.00    +0.000 C 
ATOM      5  C   UNL     1      -4.646  15.159  22.837  0.00  0.00    +0.000 C 
ATOM      6  C   UNL     1      -4.284  14.179  21.680  0.00  0.00    +0.000 C 
ATOM      7  C   UNL     1      -5.344  14.362  20.552  0.00  0.00    +0.000 C 
ATOM      8  C   UNL     1      -4.467  12.718  22.161  0.00  0.00    +0.000 C 
ATOM      9  C   UNL     1      -2.807  14.467  21.139  0.00  0.00    +0.000 C 
ATOM     10  C   UNL     1      -1.675  14.169  22.159  0.00  0.00    +0.000 C 
ATOM     11  C   UNL     1      -1.267  12.820  21.724  0.00  0.00    +0.000 A 
ATOM     12  C   UNL     1      -0.534  11.897  22.449  0.00  0.00    +0.000 A 
ATOM     13  C   UNL     1      -0.303  10.650  21.880  0.00  0.00    +0.000 A 
ATOM     14  C   UNL     1      -0.788  10.373  20.580  0.00  0.00    +0.000 A 
ATOM     15  C   UNL     1      -1.536  11.322  19.826  0.00  0.00    +0.000 A 
ATOM     16  C   UNL     1      -1.766  12.551  20.457  0.00  0.00    +0.000 A 
ATOM     17  O   UNL     1      -2.543  13.591  19.983  0.00  0.00    +0.000 OA
ENDROOT
BRANCH  15  18
ATOM     18  C   UNL     1      -2.055  10.979  18.475  0.00  0.00    +0.000 A 
ATOM     19  C   UNL     1      -1.393  10.044  17.655  0.00  0.00    +0.000 A 
ATOM     20  C   UNL     1      -1.835   9.758  16.358  0.00  0.00    +0.000 A 
ATOM     21  C   UNL     1      -2.969  10.388  15.843  0.00  0.00    +0.000 A 
ATOM     22  C   UNL     1      -3.678  11.277  16.653  0.00  0.00    +0.000 A 
ATOM     23  C   UNL     1      -3.214  11.576  17.944  0.00  0.00    +0.000 A 
BRANCH  21  24
ATOM     24  C   UNL     1      -3.383  10.046  14.456  0.00  0.00    +0.000 C 
ATOM     25  O   UNL     1      -2.582   9.906  13.548  0.00  0.00    +0.000 OA
BRANCH  24  26
ATOM     26  O   UNL     1      -4.717   9.964  14.276  0.00  0.00    +0.000 OA
ATOM     27  H   UNL     1      -5.057  10.374  13.461  0.00  0.00    +0.000 HD
ENDBRANCH  24  26
ENDBRANCH  21  24
ENDBRANCH  15  18
BRANCH   5  28
ATOM     28  O   UNL     1      -3.941  14.830  24.033  0.00  0.00    +0.000 OA
ATOM     29  H   UNL     1      -4.225  13.961  24.358  0.00  0.00    +0.000 HD
ENDBRANCH   5  28
BRANCH  13  30
ATOM     30  C   UNL     1       0.378   9.643  22.739  0.00  0.00    +0.000 C 
ATOM     31  O   UNL     1       0.337   9.675  23.958  0.00  0.00    +0.000 OA
BRANCH  30  32
ATOM     32  O   UNL     1       1.078   8.702  22.065  0.00  0.00    +0.000 OA
ATOM     33  H   UNL     1       2.029   8.666  22.266  0.00  0.00    +0.000 HD
ENDBRANCH  30  32
ENDBRANCH  13  30
TORSDOF 6
ENDMDL
MODEL 7
REMARK VINA RESULT:      -6.8      9.172     12.727
REMARK  Name = 
REMARK  9 active torsions:
REMARK  status: ('A' for Active; 'I' for Inactive)
REMARK    1  A    between atoms: C_1  and  C_2
REMARK    2  A    between atoms: C_5  and  O_6
REMARK    3  A    between atoms: C_7  and  C_8
REMARK    4  A    between atoms: C_7  and  C_9
REMARK    5  A    between atoms: C_14  and  C_15
REMARK    6  A    between atoms: C_15  and  O_17
REMARK    7  A    between atoms: C_19  and  C_20
REMARK    8  A    between atoms: C_23  and  C_24
REMARK    9  A    between atoms: C_24  and  O_26
REMARK                            x       y       z     vdW  Elec       q    Type
REMARK                         _______ _______ _______ _____ _____    ______ ____
ROOT
ATOM      1  C   UNL     1       0.596   9.221  22.279  0.00  0.00    +0.000 C 
ATOM      2  C   UNL     1       0.232   9.550  20.826  0.00  0.00    +0.000 C 
ATOM      3  C   UNL     1       1.338   9.052  19.877  0.00  0.00    +0.000 C 
ATOM      4  C   UNL     1       0.986   9.236  18.400  0.00  0.00    +0.000 C 
ATOM      5  C   UNL     1       0.505  10.649  18.052  0.00  0.00    +0.000 C 
ATOM      6  C   UNL     1      -0.586  11.190  19.026  0.00  0.00    +0.000 C 
ATOM      7  C   UNL     1      -1.892  10.376  18.779  0.00  0.00    +0.000 C 
ATOM      8  C   UNL     1      -0.949  12.645  18.642  0.00  0.00    +0.000 C 
ATOM      9  C   UNL     1      -0.101  11.058  20.545  0.00  0.00    +0.000 C 
ATOM     10  C   UNL     1       1.113  11.953  20.915  0.00  0.00    +0.000 C 
ATOM     11  C   UNL     1       0.423  13.102  21.532  0.00  0.00    +0.000 A 
ATOM     12  C   UNL     1       0.944  14.364  21.754  0.00  0.00    +0.000 A 
ATOM     13  C   UNL     1       0.108  15.333  22.297  0.00  0.00    +0.000 A 
ATOM     14  C   UNL     1      -1.225  14.999  22.632  0.00  0.00    +0.000 A 
ATOM     15  C   UNL     1      -1.765  13.698  22.413  0.00  0.00    +0.000 A 
ATOM     16  C   UNL     1      -0.889  12.769  21.837  0.00  0.00    +0.000 A 
ATOM     17  O   UNL     1      -1.196  11.483  21.434  0.00  0.00    +0.000 OA
ENDROOT
BRANCH  15  18
ATOM     18  C   UNL     1      -3.181  13.397  22.751  0.00  0.00    +0.000 A 
ATOM     19  C   UNL     1      -3.564  13.075  24.068  0.00  0.00    +0.000 A 
ATOM     20  C   UNL     1      -4.882  12.729  24.388  0.00  0.00    +0.000 A 
ATOM     21  C   UNL     1      -5.868  12.710  23.401  0.00  0.00    +0.000 A 
ATOM     22  C   UNL     1      -5.529  13.079  22.097  0.00  0.00    +0.000 A 
ATOM     23  C   UNL     1      -4.200  13.402  21.780  0.00  0.00    +0.000 A 
BRANCH  21  24
ATOM     24  C   UNL     1      -7.247  12.327  23.804  0.00  0.00    +0.000 C 
ATOM     25  O   UNL     1      -7.746  11.258  23.501  0.00  0.00    +0.000 OA
BRANCH  24  26
ATOM     26  O   UNL     1      -7.916  13.283  24.479  0.00  0.00    +0.000 OA
ATOM     27  H   UNL     1      -7.998  13.142  25.439  0.00  0.00    +0.000 HD
ENDBRANCH  24  26
ENDBRANCH  21  24
ENDBRANCH  15  18
BRANCH   5  28
ATOM     28  O   UNL     1       1.615  11.542  17.972  0.00  0.00    +0.000 OA
ATOM     29  H   UNL     1       1.995  11.519  17.079  0.00  0.00    +0.000 HD
ENDBRANCH   5  28
BRANCH  13  30
ATOM     30  C   UNL     1       0.665  16.709  22.403  0.00  0.00    +0.000 C 
ATOM     31  O   UNL     1       1.407  17.191  21.562  0.00  0.00    +0.000 OA
BRANCH  30  32
ATOM     32  O   UNL     1       0.314  17.379  23.524  0.00  0.00    +0.000 OA
ATOM     33  H   UNL     1       0.790  17.120  24.331  0.00  0.00    +0.000 HD
ENDBRANCH  30  32
ENDBRANCH  13  30
TORSDOF 6
ENDMDL
MODEL 8
REMARK VINA RESULT:      -6.7      7.371     10.196
REMARK  Name = 
REMARK  9 active torsions:
REMARK  status: ('A' for Active; 'I' for Inactive)
REMARK    1  A    between atoms: C_1  and  C_2
REMARK    2  A    between atoms: C_5  and  O_6
REMARK    3  A    between atoms: C_7  and  C_8
REMARK    4  A    between atoms: C_7  and  C_9
REMARK    5  A    between atoms: C_14  and  C_15
REMARK    6  A    between atoms: C_15  and  O_17
REMARK    7  A    between atoms: C_19  and  C_20
REMARK    8  A    between atoms: C_23  and  C_24
REMARK    9  A    between atoms: C_24  and  O_26
REMARK                            x       y       z     vdW  Elec       q    Type
REMARK                         _______ _______ _______ _____ _____    ______ ____
ROOT
ATOM      1  C   UNL     1      -3.858  12.102  18.868  0.00  0.00    +0.000 C 
ATOM      2  C   UNL     1      -3.449  12.387  20.320  0.00  0.00    +0.000 C 
ATOM      3  C   UNL     1      -4.348  13.485  20.917  0.00  0.00    +0.000 C 
ATOM      4  C   UNL     1      -4.078  13.734  22.402  0.00  0.00    +0.000 C 
ATOM      5  C   UNL     1      -2.596  13.943  22.733  0.00  0.00    +0.000 C 
ATOM      6  C   UNL     1      -1.663  12.866  22.102  0.00  0.00    +0.000 C 
ATOM      7  C   UNL     1      -1.931  11.516  22.833  0.00  0.00    +0.000 C 
ATOM      8  C   UNL     1      -0.187  13.204  22.425  0.00  0.00    +0.000 C 
ATOM      9  C   UNL     1      -1.933  12.737  20.531  0.00  0.00    +0.000 C 
ATOM     10  C   UNL     1      -1.553  13.995  19.704  0.00  0.00    +0.000 C 
ATOM     11  C   UNL     1      -0.216  13.606  19.219  0.00  0.00    +0.000 A 
ATOM     12  C   UNL     1       0.762  14.443  18.712  0.00  0.00    +0.000 A 
ATOM     13  C   UNL     1       1.987  13.886  18.362  0.00  0.00    +0.000 A 
ATOM     14  C   UNL     1       2.186  12.492  18.502  0.00  0.00    +0.000 A 
ATOM     15  C   UNL     1       1.180  11.624  19.016  0.00  0.00    +0.000 A 
ATOM     16  C   UNL     1      -0.023  12.241  19.380  0.00  0.00    +0.000 A 
ATOM     17  O   UNL     1      -1.107  11.641  19.993  0.00  0.00    +0.000 OA
ENDROOT
BRANCH  15  18
ATOM     18  C   UNL     1       1.442  10.169  19.176  0.00  0.00    +0.000 A 
ATOM     19  C   UNL     1       1.226   9.520  20.408  0.00  0.00    +0.000 A 
ATOM     20  C   UNL     1       1.526   8.165  20.590  0.00  0.00    +0.000 A 
ATOM     21  C   UNL     1       2.040   7.407  19.536  0.00  0.00    +0.000 A 
ATOM     22  C   UNL     1       2.213   8.010  18.288  0.00  0.00    +0.000 A 
ATOM     23  C   UNL     1       1.931   9.375  18.121  0.00  0.00    +0.000 A 
BRANCH  21  24
ATOM     24  C   UNL     1       2.345   5.976  19.796  0.00  0.00    +0.000 C 
ATOM     25  O   UNL     1       2.532   5.171  18.900  0.00  0.00    +0.000 OA
BRANCH  24  26
ATOM     26  O   UNL     1       2.339   5.632  21.100  0.00  0.00    +0.000 OA
ATOM     27  H   UNL     1       1.571   5.940  21.612  0.00  0.00    +0.000 HD
ENDBRANCH  24  26
ENDBRANCH  21  24
ENDBRANCH  15  18
BRANCH   5  28
ATOM     28  O   UNL     1      -2.190  15.260  22.364  0.00  0.00    +0.000 OA
ATOM     29  H   UNL     1      -1.861  15.737  23.144  0.00  0.00    +0.000 HD
ENDBRANCH   5  28
BRANCH  13  30
ATOM     30  C   UNL     1       3.053  14.834  17.941  0.00  0.00    +0.000 C 
ATOM     31  O   UNL     1       2.851  16.024  17.764  0.00  0.00    +0.000 OA
BRANCH  30  32
ATOM     32  O   UNL     1       4.266  14.270  17.735  0.00  0.00    +0.000 OA
ATOM     33  H   UNL     1       4.792  14.107  18.536  0.00  0.00    +0.000 HD
ENDBRANCH  30  32
ENDBRANCH  13  30
TORSDOF 6
ENDMDL
MODEL 9
REMARK VINA RESULT:      -6.7      9.065     11.329
REMARK  Name = 
REMARK  9 active torsions:
REMARK  status: ('A' for Active; 'I' for Inactive)
REMARK    1  A    between atoms: C_1  and  C_2
REMARK    2  A    between atoms: C_5  and  O_6
REMARK    3  A    between atoms: C_7  and  C_8
REMARK    4  A    between atoms: C_7  and  C_9
REMARK    5  A    between atoms: C_14  and  C_15
REMARK    6  A    between atoms: C_15  and  O_17
REMARK    7  A    between atoms: C_19  and  C_20
REMARK    8  A    between atoms: C_23  and  C_24
REMARK    9  A    between atoms: C_24  and  O_26
REMARK                            x       y       z     vdW  Elec       q    Type
REMARK                         _______ _______ _______ _____ _____    ______ ____
ROOT
ATOM      1  C   UNL     1      -1.650  15.281  24.928  0.00  0.00    +0.000 C 
ATOM      2  C   UNL     1      -2.750  15.103  23.873  0.00  0.00    +0.000 C 
ATOM      3  C   UNL     1      -4.113  14.898  24.560  0.00  0.00    +0.000 C 
ATOM      4  C   UNL     1      -5.277  14.837  23.569  0.00  0.00    +0.000 C 
ATOM      5  C   UNL     1      -5.049  13.860  22.410  0.00  0.00    +0.000 C 
ATOM      6  C   UNL     1      -3.657  14.021  21.728  0.00  0.00    +0.000 C 
ATOM      7  C   UNL     1      -3.656  15.377  20.961  0.00  0.00    +0.000 C 
ATOM      8  C   UNL     1      -3.491  12.944  20.628  0.00  0.00    +0.000 C 
ATOM      9  C   UNL     1      -2.487  13.971  22.818  0.00  0.00    +0.000 C 
ATOM     10  C   UNL     1      -2.324  12.601  23.529  0.00  0.00    +0.000 C 
ATOM     11  C   UNL     1      -1.226  12.014  22.737  0.00  0.00    +0.000 A 
ATOM     12  C   UNL     1      -0.864  10.680  22.676  0.00  0.00    +0.000 A 
ATOM     13  C   UNL     1       0.168  10.319  21.818  0.00  0.00    +0.000 A 
ATOM     14  C   UNL     1       0.832  11.315  21.064  0.00  0.00    +0.000 A 
ATOM     15  C   UNL     1       0.469  12.691  21.128  0.00  0.00    +0.000 A 
ATOM     16  C   UNL     1      -0.596  12.996  21.986  0.00  0.00    +0.000 A 
ATOM     17  O   UNL     1      -1.200  14.229  22.147  0.00  0.00    +0.000 OA
ENDROOT
BRANCH  15  18
ATOM     18  C   UNL     1       1.172  13.701  20.295  0.00  0.00    +0.000 A 
ATOM     19  C   UNL     1       2.572  13.849  20.354  0.00  0.00    +0.000 A 
ATOM     20  C   UNL     1       3.241  14.838  19.622  0.00  0.00    +0.000 A 
ATOM     21  C   UNL     1       2.529  15.703  18.789  0.00  0.00    +0.000 A 
ATOM     22  C   UNL     1       1.147  15.544  18.668  0.00  0.00    +0.000 A 
ATOM     23  C   UNL     1       0.482  14.566  19.424  0.00  0.00    +0.000 A 
BRANCH  21  24
ATOM     24  C   UNL     1       3.297  16.736  18.044  0.00  0.00    +0.000 C 
ATOM     25  O   UNL     1       2.913  17.204  16.987  0.00  0.00    +0.000 OA
BRANCH  24  26
ATOM     26  O   UNL     1       4.478  17.065  18.605  0.00  0.00    +0.000 OA
ATOM     27  H   UNL     1       5.197  17.272  17.982  0.00  0.00    +0.000 HD
ENDBRANCH  24  26
ENDBRANCH  21  24
ENDBRANCH  15  18
BRANCH   5  28
ATOM     28  O   UNL     1      -5.259  12.518  22.849  0.00  0.00    +0.000 OA
ATOM     29  H   UNL     1      -5.956  12.495  23.525  0.00  0.00    +0.000 HD
ENDBRANCH   5  28
BRANCH  13  30
ATOM     30  C   UNL     1       0.444   8.863  21.686  0.00  0.00    +0.000 C 
ATOM     31  O   UNL     1      -0.431   8.038  21.478  0.00  0.00    +0.000 OA
BRANCH  30  32
ATOM     32  O   UNL     1       1.741   8.513  21.848  0.00  0.00    +0.000 OA
ATOM     33  H   UNL     1       2.152   8.072  21.085  0.00  0.00    +0.000 HD
ENDBRANCH  30  32
ENDBRANCH  13  30
TORSDOF 6
ENDMDL
