MODEL 1
REMARK VINA RESULT:      -7.8      0.000      0.000
REMARK  Name = 
REMARK  10 active torsions:
REMARK  status: ('A' for Active; 'I' for Inactive)
REMARK    1  A    between atoms: C_1  and  O_2
REMARK    2  A    between atoms: O_2  and  C_3
REMARK    3  A    between atoms: C_5  and  C_6
REMARK    4  A    between atoms: C_6  and  C_7
REMARK    5  A    between atoms: C_13  and  O_14
REMARK    6  A    between atoms: C_15  and  O_16
REMARK    7  A    between atoms: C_21  and  O_22
REMARK    8  A    between atoms: O_22  and  C_23
REMARK    9  A    between atoms: C_24  and  O_25
REMARK   10  A    between atoms: O_25  and  C_26
REMARK                            x       y       z     vdW  Elec       q    Type
REMARK                         _______ _______ _______ _____ _____    ______ ____
ROOT
ATOM      1  C   UNL     1       2.686   7.033  18.520  0.00  0.00    +0.000 C 
ATOM      2  N   UNL     1       4.111   7.084  18.122  0.00  0.00    +0.000 NA
ATOM      3  C   UNL     1       4.290   6.321  16.896  0.00  0.00    +0.000 C 
ATOM      4  C   UNL     1       4.165   4.860  17.204  0.00  0.00    +0.000 C 
ATOM      5  C   UNL     1       2.832   4.557  17.852  0.00  0.00    +0.000 A 
ATOM      6  C   UNL     1       2.294   3.285  17.676  0.00  0.00    +0.000 A 
ATOM      7  C   UNL     1       1.512   2.769  18.682  0.00  0.00    +0.000 A 
ATOM      8  C   UNL     1       1.357   3.508  19.860  0.00  0.00    +0.000 A 
ATOM      9  C   UNL     1       1.730   4.894  19.921  0.00  0.00    +0.000 A 
ATOM     10  F   UNL     1       1.560   5.556  21.071  0.00  0.00    +0.000 F 
ATOM     11  C   UNL     1       2.370   5.506  18.842  0.00  0.00    +0.000 A 
ATOM     12  H   UNL     1       4.662   6.693  18.887  0.00  0.00    +0.000 HD
ENDROOT
BRANCH   7  13
ATOM     13  O   UNL     1       0.988   1.514  18.600  0.00  0.00    +0.000 OA
ATOM     14  H   UNL     1       0.172   1.572  18.071  0.00  0.00    +0.000 HD
ENDBRANCH   7  13
BRANCH   8  15
ATOM     15  O   UNL     1       0.857   2.822  20.946  0.00  0.00    +0.000 OA
ATOM     16  H   UNL     1       0.970   1.866  20.703  0.00  0.00    +0.000 HD
ENDBRANCH   8  15
BRANCH   1  17
ATOM     17  C   UNL     1       2.145   8.522  17.969  0.00  0.00    +0.000 C 
BRANCH  17  20
ATOM     18  C   UNL     1      -0.980  10.906  18.631  0.00  0.00    +0.000 A 
ATOM     19  C   UNL     1       0.004  10.123  17.934  0.00  0.00    +0.000 A 
ATOM     20  C   UNL     1       1.083   9.501  18.585  0.00  0.00    +0.000 A 
ATOM     21  C   UNL     1       1.120   9.714  19.989  0.00  0.00    +0.000 A 
ATOM     22  C   UNL     1       0.172  10.511  20.700  0.00  0.00    +0.000 A 
ATOM     23  C   UNL     1      -0.880  11.134  20.033  0.00  0.00    +0.000 A 
BRANCH  18  25
ATOM     24  C   UNL     1      -2.450  10.791  16.772  0.00  0.00    +0.000 C 
ATOM     25  O   UNL     1      -2.052  11.464  17.964  0.00  0.00    +0.000 OA
ENDBRANCH  18  25
BRANCH  22  26
ATOM     26  O   UNL     1       0.438  10.550  22.061  0.00  0.00    +0.000 OA
ATOM     27  C   UNL     1      -0.121   9.561  22.921  0.00  0.00    +0.000 C 
ENDBRANCH  22  26
BRANCH  23  28
ATOM     28  O   UNL     1      -1.704  11.917  20.793  0.00  0.00    +0.000 OA
ATOM     29  C   UNL     1      -1.578  13.307  20.979  0.00  0.00    +0.000 C 
ENDBRANCH  23  28
ENDBRANCH  17  20
ENDBRANCH   1  17
TORSDOF 7
ENDMDL
MODEL 2
REMARK VINA RESULT:      -7.6      1.462      2.418
REMARK  Name = 
REMARK  10 active torsions:
REMARK  status: ('A' for Active; 'I' for Inactive)
REMARK    1  A    between atoms: C_1  and  O_2
REMARK    2  A    between atoms: O_2  and  C_3
REMARK    3  A    between atoms: C_5  and  C_6
REMARK    4  A    between atoms: C_6  and  C_7
REMARK    5  A    between atoms: C_13  and  O_14
REMARK    6  A    between atoms: C_15  and  O_16
REMARK    7  A    between atoms: C_21  and  O_22
REMARK    8  A    between atoms: O_22  and  C_23
REMARK    9  A    between atoms: C_24  and  O_25
REMARK   10  A    between atoms: O_25  and  C_26
REMARK                            x       y       z     vdW  Elec       q    Type
REMARK                         _______ _______ _______ _____ _____    ______ ____
ROOT
ATOM      1  C   UNL     1       2.886   7.092  18.264  0.00  0.00    +0.000 C 
ATOM      2  N   UNL     1       4.333   7.039  17.955  0.00  0.00    +0.000 NA
ATOM      3  C   UNL     1       4.541   6.183  16.797  0.00  0.00    +0.000 C 
ATOM      4  C   UNL     1       4.314   4.756  17.193  0.00  0.00    +0.000 C 
ATOM      5  C   UNL     1       2.929   4.570  17.773  0.00  0.00    +0.000 A 
ATOM      6  C   UNL     1       2.331   3.319  17.648  0.00  0.00    +0.000 A 
ATOM      7  C   UNL     1       1.461   2.918  18.634  0.00  0.00    +0.000 A 
ATOM      8  C   UNL     1       1.278   3.745  19.748  0.00  0.00    +0.000 A 
ATOM      9  C   UNL     1       1.726   5.110  19.740  0.00  0.00    +0.000 A 
ATOM     10  F   UNL     1       1.525   5.859  20.830  0.00  0.00    +0.000 F 
ATOM     11  C   UNL     1       2.464   5.610  18.666  0.00  0.00    +0.000 A 
ATOM     12  H   UNL     1       4.814   6.674  18.778  0.00  0.00    +0.000 HD
ENDROOT
BRANCH   7  13
ATOM     13  O   UNL     1       0.871   1.690  18.603  0.00  0.00    +0.000 OA
ATOM     14  H   UNL     1       0.158   1.725  17.940  0.00  0.00    +0.000 HD
ENDBRANCH   7  13
BRANCH   8  15
ATOM     15  O   UNL     1       0.675   3.164  20.844  0.00  0.00    +0.000 OA
ATOM     16  H   UNL     1      -0.173   2.792  20.486  0.00  0.00    +0.000 HD
ENDBRANCH   8  15
BRANCH   1  17
ATOM     17  C   UNL     1       2.466   8.565  17.582  0.00  0.00    +0.000 C 
BRANCH  17  20
ATOM     18  C   UNL     1       0.742  11.902  18.918  0.00  0.00    +0.000 A 
ATOM     19  C   UNL     1       1.756  10.932  18.604  0.00  0.00    +0.000 A 
ATOM     20  C   UNL     1       1.459   9.660  18.085  0.00  0.00    +0.000 A 
ATOM     21  C   UNL     1       0.072   9.414  17.899  0.00  0.00    +0.000 A 
ATOM     22  C   UNL     1      -0.955  10.348  18.231  0.00  0.00    +0.000 A 
ATOM     23  C   UNL     1      -0.640  11.597  18.762  0.00  0.00    +0.000 A 
BRANCH  18  25
ATOM     24  C   UNL     1       1.434  13.225  20.761  0.00  0.00    +0.000 C 
ATOM     25  O   UNL     1       1.075  13.158  19.383  0.00  0.00    +0.000 OA
ENDBRANCH  18  25
BRANCH  22  26
ATOM     26  O   UNL     1      -2.221   9.857  17.948  0.00  0.00    +0.000 OA
ATOM     27  C   UNL     1      -2.753   9.984  16.632  0.00  0.00    +0.000 C 
ENDBRANCH  22  26
BRANCH  23  28
ATOM     28  O   UNL     1      -1.696  12.401  19.094  0.00  0.00    +0.000 OA
ATOM     29  C   UNL     1      -2.295  12.488  20.365  0.00  0.00    +0.000 C 
ENDBRANCH  23  28
ENDBRANCH  17  20
ENDBRANCH   1  17
TORSDOF 7
ENDMDL
MODEL 3
REMARK VINA RESULT:      -7.6      0.385      2.476
REMARK  Name = 
REMARK  10 active torsions:
REMARK  status: ('A' for Active; 'I' for Inactive)
REMARK    1  A    between atoms: C_1  and  O_2
REMARK    2  A    between atoms: O_2  and  C_3
REMARK    3  A    between atoms: C_5  and  C_6
REMARK    4  A    between atoms: C_6  and  C_7
REMARK    5  A    between atoms: C_13  and  O_14
REMARK    6  A    between atoms: C_15  and  O_16
REMARK    7  A    between atoms: C_21  and  O_22
REMARK    8  A    between atoms: O_22  and  C_23
REMARK    9  A    between atoms: C_24  and  O_25
REMARK   10  A    between atoms: O_25  and  C_26
REMARK                            x       y       z     vdW  Elec       q    Type
REMARK                         _______ _______ _______ _____ _____    ______ ____
ROOT
ATOM      1  C   UNL     1       2.603   7.054  18.670  0.00  0.00    +0.000 C 
ATOM      2  N   UNL     1       4.013   7.155  18.230  0.00  0.00    +0.000 NA
ATOM      3  C   UNL     1       4.165   6.462  16.960  0.00  0.00    +0.000 C 
ATOM      4  C   UNL     1       4.077   4.984  17.193  0.00  0.00    +0.000 C 
ATOM      5  C   UNL     1       2.771   4.620  17.866  0.00  0.00    +0.000 A 
ATOM      6  C   UNL     1       2.251   3.349  17.639  0.00  0.00    +0.000 A 
ATOM      7  C   UNL     1       1.512   2.765  18.640  0.00  0.00    +0.000 A 
ATOM      8  C   UNL     1       1.383   3.438  19.861  0.00  0.00    +0.000 A 
ATOM      9  C   UNL     1       1.733   4.825  19.984  0.00  0.00    +0.000 A 
ATOM     10  F   UNL     1       1.589   5.422  21.173  0.00  0.00    +0.000 F 
ATOM     11  C   UNL     1       2.325   5.507  18.920  0.00  0.00    +0.000 A 
ATOM     12  H   UNL     1       4.597   6.735  18.954  0.00  0.00    +0.000 HD
ENDROOT
BRANCH   7  13
ATOM     13  O   UNL     1       1.008   1.506  18.508  0.00  0.00    +0.000 OA
ATOM     14  H   UNL     1       1.300   0.992  19.282  0.00  0.00    +0.000 HD
ENDBRANCH   7  13
BRANCH   8  15
ATOM     15  O   UNL     1       0.932   2.685  20.924  0.00  0.00    +0.000 OA
ATOM     16  H   UNL     1       1.687   2.074  21.128  0.00  0.00    +0.000 HD
ENDBRANCH   8  15
BRANCH   1  17
ATOM     17  C   UNL     1       2.018   8.559  18.218  0.00  0.00    +0.000 C 
BRANCH  17  20
ATOM     18  C   UNL     1      -0.005  10.844  20.783  0.00  0.00    +0.000 A 
ATOM     19  C   UNL     1       0.939   9.886  20.273  0.00  0.00    +0.000 A 
ATOM     20  C   UNL     1       0.969   9.489  18.925  0.00  0.00    +0.000 A 
ATOM     21  C   UNL     1      -0.013  10.113  18.111  0.00  0.00    +0.000 A 
ATOM     22  C   UNL     1      -0.980  11.044  18.597  0.00  0.00    +0.000 A 
ATOM     23  C   UNL     1      -1.004  11.411  19.941  0.00  0.00    +0.000 A 
BRANCH  18  25
ATOM     24  C   UNL     1      -0.711  10.425  23.008  0.00  0.00    +0.000 C 
ATOM     25  O   UNL     1       0.025  11.244  22.103  0.00  0.00    +0.000 OA
ENDBRANCH  18  25
BRANCH  22  26
ATOM     26  O   UNL     1      -1.818  11.503  17.592  0.00  0.00    +0.000 OA
ATOM     27  C   UNL     1      -2.360  10.584  16.647  0.00  0.00    +0.000 C 
ENDBRANCH  22  26
BRANCH  23  28
ATOM     28  O   UNL     1      -1.999  12.269  20.320  0.00  0.00    +0.000 OA
ATOM     29  C   UNL     1      -1.884  13.669  20.421  0.00  0.00    +0.000 C 
ENDBRANCH  23  28
ENDBRANCH  17  20
ENDBRANCH   1  17
TORSDOF 7
ENDMDL
MODEL 4
REMARK VINA RESULT:      -7.5      1.376      1.587
REMARK  Name = 
REMARK  10 active torsions:
REMARK  status: ('A' for Active; 'I' for Inactive)
REMARK    1  A    between atoms: C_1  and  O_2
REMARK    2  A    between atoms: O_2  and  C_3
REMARK    3  A    between atoms: C_5  and  C_6
REMARK    4  A    between atoms: C_6  and  C_7
REMARK    5  A    between atoms: C_13  and  O_14
REMARK    6  A    between atoms: C_15  and  O_16
REMARK    7  A    between atoms: C_21  and  O_22
REMARK    8  A    between atoms: O_22  and  C_23
REMARK    9  A    between atoms: C_24  and  O_25
REMARK   10  A    between atoms: O_25  and  C_26
REMARK                            x       y       z     vdW  Elec       q    Type
REMARK                         _______ _______ _______ _____ _____    ______ ____
ROOT
ATOM      1  C   UNL     1       2.994   6.810  18.397  0.00  0.00    +0.000 C 
ATOM      2  N   UNL     1       4.415   6.706  17.997  0.00  0.00    +0.000 NA
ATOM      3  C   UNL     1       4.512   5.902  16.788  0.00  0.00    +0.000 C 
ATOM      4  C   UNL     1       4.240   4.469  17.128  0.00  0.00    +0.000 C 
ATOM      5  C   UNL     1       2.884   4.317  17.784  0.00  0.00    +0.000 A 
ATOM      6  C   UNL     1       2.219   3.103  17.636  0.00  0.00    +0.000 A 
ATOM      7  C   UNL     1       1.391   2.692  18.654  0.00  0.00    +0.000 A 
ATOM      8  C   UNL     1       1.316   3.470  19.816  0.00  0.00    +0.000 A 
ATOM      9  C   UNL     1       1.828   4.811  19.846  0.00  0.00    +0.000 A 
ATOM     10  F   UNL     1       1.730   5.512  20.980  0.00  0.00    +0.000 F 
ATOM     11  C   UNL     1       2.524   5.331  18.753  0.00  0.00    +0.000 A 
ATOM     12  H   UNL     1       4.926   6.278  18.770  0.00  0.00    +0.000 HD
ENDROOT
BRANCH   7  13
ATOM     13  O   UNL     1       0.741   1.496  18.600  0.00  0.00    +0.000 OA
ATOM     14  H   UNL     1      -0.020   1.550  19.205  0.00  0.00    +0.000 HD
ENDBRANCH   7  13
BRANCH   8  15
ATOM     15  O   UNL     1       0.752   2.862  20.917  0.00  0.00    +0.000 OA
ATOM     16  H   UNL     1      -0.194   2.711  20.655  0.00  0.00    +0.000 HD
ENDBRANCH   8  15
BRANCH   1  17
ATOM     17  C   UNL     1       2.606   8.333  17.814  0.00  0.00    +0.000 C 
BRANCH  17  20
ATOM     18  C   UNL     1       1.009  11.858  18.774  0.00  0.00    +0.000 A 
ATOM     19  C   UNL     1       1.821  10.872  18.112  0.00  0.00    +0.000 A 
ATOM     20  C   UNL     1       1.871   9.528  18.520  0.00  0.00    +0.000 A 
ATOM     21  C   UNL     1       1.055   9.227  19.643  0.00  0.00    +0.000 A 
ATOM     22  C   UNL     1       0.264  10.193  20.336  0.00  0.00    +0.000 A 
ATOM     23  C   UNL     1       0.242  11.525  19.926  0.00  0.00    +0.000 A 
BRANCH  18  25
ATOM     24  C   UNL     1       2.159  13.903  18.430  0.00  0.00    +0.000 C 
ATOM     25  O   UNL     1       0.950  13.158  18.316  0.00  0.00    +0.000 OA
ENDBRANCH  18  25
BRANCH  22  26
ATOM     26  O   UNL     1      -0.437   9.634  21.394  0.00  0.00    +0.000 OA
ATOM     27  C   UNL     1       0.207   9.445  22.651  0.00  0.00    +0.000 C 
ENDBRANCH  22  26
BRANCH  23  28
ATOM     28  O   UNL     1      -0.505  12.383  20.685  0.00  0.00    +0.000 OA
ATOM     29  C   UNL     1      -0.030  13.157  21.761  0.00  0.00    +0.000 C 
ENDBRANCH  23  28
ENDBRANCH  17  20
ENDBRANCH   1  17
TORSDOF 7
ENDMDL
MODEL 5
REMARK VINA RESULT:      -7.5      1.417      1.702
REMARK  Name = 
REMARK  10 active torsions:
REMARK  status: ('A' for Active; 'I' for Inactive)
REMARK    1  A    between atoms: C_1  and  O_2
REMARK    2  A    between atoms: O_2  and  C_3
REMARK    3  A    between atoms: C_5  and  C_6
REMARK    4  A    between atoms: C_6  and  C_7
REMARK    5  A    between atoms: C_13  and  O_14
REMARK    6  A    between atoms: C_15  and  O_16
REMARK    7  A    between atoms: C_21  and  O_22
REMARK    8  A    between atoms: O_22  and  C_23
REMARK    9  A    between atoms: C_24  and  O_25
REMARK   10  A    between atoms: O_25  and  C_26
REMARK                            x       y       z     vdW  Elec       q    Type
REMARK                         _______ _______ _______ _____ _____    ______ ____
ROOT
ATOM      1  C   UNL     1       2.984   6.947  18.236  0.00  0.00    +0.000 C 
ATOM      2  N   UNL     1       4.430   6.845  17.935  0.00  0.00    +0.000 NA
ATOM      3  C   UNL     1       4.616   5.978  16.783  0.00  0.00    +0.000 C 
ATOM      4  C   UNL     1       4.340   4.561  17.184  0.00  0.00    +0.000 C 
ATOM      5  C   UNL     1       2.946   4.423  17.758  0.00  0.00    +0.000 A 
ATOM      6  C   UNL     1       2.308   3.192  17.635  0.00  0.00    +0.000 A 
ATOM      7  C   UNL     1       1.421   2.824  18.619  0.00  0.00    +0.000 A 
ATOM      8  C   UNL     1       1.259   3.663  19.728  0.00  0.00    +0.000 A 
ATOM      9  C   UNL     1       1.751   5.012  19.716  0.00  0.00    +0.000 A 
ATOM     10  F   UNL     1       1.570   5.773  20.801  0.00  0.00    +0.000 F 
ATOM     11  C   UNL     1       2.511   5.482  18.643  0.00  0.00    +0.000 A 
ATOM     12  H   UNL     1       4.894   6.469  18.763  0.00  0.00    +0.000 HD
ENDROOT
BRANCH   7  13
ATOM     13  O   UNL     1       0.791   1.616  18.590  0.00  0.00    +0.000 OA
ATOM     14  H   UNL     1       1.475   0.928  18.673  0.00  0.00    +0.000 HD
ENDBRANCH   7  13
BRANCH   8  15
ATOM     15  O   UNL     1       0.631   3.107  20.822  0.00  0.00    +0.000 OA
ATOM     16  H   UNL     1      -0.333   3.278  20.663  0.00  0.00    +0.000 HD
ENDBRANCH   8  15
BRANCH   1  17
ATOM     17  C   UNL     1       2.616   8.430  17.545  0.00  0.00    +0.000 C 
BRANCH  17  20
ATOM     18  C   UNL     1      -0.836  10.264  18.327  0.00  0.00    +0.000 A 
ATOM     19  C   UNL     1       0.100   9.284  17.846  0.00  0.00    +0.000 A 
ATOM     20  C   UNL     1       1.493   9.464  17.911  0.00  0.00    +0.000 A 
ATOM     21  C   UNL     1       1.896  10.697  18.489  0.00  0.00    +0.000 A 
ATOM     22  C   UNL     1       0.988  11.699  18.947  0.00  0.00    +0.000 A 
ATOM     23  C   UNL     1      -0.390  11.509  18.857  0.00  0.00    +0.000 A 
BRANCH  18  25
ATOM     24  C   UNL     1      -2.764   9.936  16.986  0.00  0.00    +0.000 C 
ATOM     25  O   UNL     1      -2.195  10.033  18.289  0.00  0.00    +0.000 OA
ENDBRANCH  18  25
BRANCH  22  26
ATOM     26  O   UNL     1       1.645  12.803  19.470  0.00  0.00    +0.000 OA
ATOM     27  C   UNL     1       2.597  13.504  18.673  0.00  0.00    +0.000 C 
ENDBRANCH  22  26
BRANCH  23  28
ATOM     28  O   UNL     1      -1.176  12.547  19.275  0.00  0.00    +0.000 OA
ATOM     29  C   UNL     1      -1.877  12.609  20.494  0.00  0.00    +0.000 C 
ENDBRANCH  23  28
ENDBRANCH  17  20
ENDBRANCH   1  17
TORSDOF 7
ENDMDL
MODEL 6
REMARK VINA RESULT:      -7.5      1.640      2.504
REMARK  Name = 
REMARK  10 active torsions:
REMARK  status: ('A' for Active; 'I' for Inactive)
REMARK    1  A    between atoms: C_1  and  O_2
REMARK    2  A    between atoms: O_2  and  C_3
REMARK    3  A    between atoms: C_5  and  C_6
REMARK    4  A    between atoms: C_6  and  C_7
REMARK    5  A    between atoms: C_13  and  O_14
REMARK    6  A    between atoms: C_15  and  O_16
REMARK    7  A    between atoms: C_21  and  O_22
REMARK    8  A    between atoms: O_22  and  C_23
REMARK    9  A    between atoms: C_24  and  O_25
REMARK   10  A    between atoms: O_25  and  C_26
REMARK                            x       y       z     vdW  Elec       q    Type
REMARK                         _______ _______ _______ _____ _____    ______ ____
ROOT
ATOM      1  C   UNL     1       2.869   6.950  18.360  0.00  0.00    +0.000 C 
ATOM      2  N   UNL     1       4.301   6.911  17.984  0.00  0.00    +0.000 NA
ATOM      3  C   UNL     1       4.455   6.106  16.782  0.00  0.00    +0.000 C 
ATOM      4  C   UNL     1       4.243   4.663  17.126  0.00  0.00    +0.000 C 
ATOM      5  C   UNL     1       2.885   4.452  17.760  0.00  0.00    +0.000 A 
ATOM      6  C   UNL     1       2.280   3.208  17.609  0.00  0.00    +0.000 A 
ATOM      7  C   UNL     1       1.456   2.764  18.616  0.00  0.00    +0.000 A 
ATOM      8  C   UNL     1       1.325   3.543  19.772  0.00  0.00    +0.000 A 
ATOM      9  C   UNL     1       1.774   4.906  19.802  0.00  0.00    +0.000 A 
ATOM     10  F   UNL     1       1.625   5.608  20.931  0.00  0.00    +0.000 F 
ATOM     11  C   UNL     1       2.463   5.452  18.717  0.00  0.00    +0.000 A 
ATOM     12  H   UNL     1       4.818   6.510  18.767  0.00  0.00    +0.000 HD
ENDROOT
BRANCH   7  13
ATOM     13  O   UNL     1       0.863   1.539  18.559  0.00  0.00    +0.000 OA
ATOM     14  H   UNL     1       0.149   1.590  17.898  0.00  0.00    +0.000 HD
ENDBRANCH   7  13
BRANCH   8  15
ATOM     15  O   UNL     1       0.771   2.915  20.867  0.00  0.00    +0.000 OA
ATOM     16  H   UNL     1       0.736   1.958  20.608  0.00  0.00    +0.000 HD
ENDBRANCH   8  15
BRANCH   1  17
ATOM     17  C   UNL     1       2.422   8.451  17.762  0.00  0.00    +0.000 C 
BRANCH  17  20
ATOM     18  C   UNL     1       0.252  10.742  20.198  0.00  0.00    +0.000 A 
ATOM     19  C   UNL     1       0.781   9.572  19.551  0.00  0.00    +0.000 A 
ATOM     20  C   UNL     1       1.675   9.638  18.469  0.00  0.00    +0.000 A 
ATOM     21  C   UNL     1       2.009  10.959  18.066  0.00  0.00    +0.000 A 
ATOM     22  C   UNL     1       1.474  12.136  18.671  0.00  0.00    +0.000 A 
ATOM     23  C   UNL     1       0.575  12.049  19.732  0.00  0.00    +0.000 A 
BRANCH  18  25
ATOM     24  C   UNL     1      -0.042   9.968  22.420  0.00  0.00    +0.000 C 
ATOM     25  O   UNL     1      -0.588  10.639  21.287  0.00  0.00    +0.000 OA
ENDBRANCH  18  25
BRANCH  22  26
ATOM     26  O   UNL     1       1.967  13.294  18.089  0.00  0.00    +0.000 OA
ATOM     27  C   UNL     1       3.214  13.831  18.522  0.00  0.00    +0.000 C 
ENDBRANCH  22  26
BRANCH  23  28
ATOM     28  O   UNL     1       0.081  13.231  20.210  0.00  0.00    +0.000 OA
ATOM     29  C   UNL     1       0.572  13.938  21.324  0.00  0.00    +0.000 C 
ENDBRANCH  23  28
ENDBRANCH  17  20
ENDBRANCH   1  17
TORSDOF 7
ENDMDL
MODEL 7
REMARK VINA RESULT:      -7.3      2.894      8.092
REMARK  Name = 
REMARK  10 active torsions:
REMARK  status: ('A' for Active; 'I' for Inactive)
REMARK    1  A    between atoms: C_1  and  O_2
REMARK    2  A    between atoms: O_2  and  C_3
REMARK    3  A    between atoms: C_5  and  C_6
REMARK    4  A    between atoms: C_6  and  C_7
REMARK    5  A    between atoms: C_13  and  O_14
REMARK    6  A    between atoms: C_15  and  O_16
REMARK    7  A    between atoms: C_21  and  O_22
REMARK    8  A    between atoms: O_22  and  C_23
REMARK    9  A    between atoms: C_24  and  O_25
REMARK   10  A    between atoms: O_25  and  C_26
REMARK                            x       y       z     vdW  Elec       q    Type
REMARK                         _______ _______ _______ _____ _____    ______ ____
ROOT
ATOM      1  C   UNL     1       0.885   9.633  18.117  0.00  0.00    +0.000 C 
ATOM      2  N   UNL     1       1.930  10.586  17.680  0.00  0.00    +0.000 NA
ATOM      3  C   UNL     1       2.041  11.653  18.663  0.00  0.00    +0.000 C 
ATOM      4  C   UNL     1       0.835  12.537  18.567  0.00  0.00    +0.000 C 
ATOM      5  C   UNL     1      -0.436  11.740  18.761  0.00  0.00    +0.000 A 
ATOM      6  C   UNL     1      -1.547  12.398  19.282  0.00  0.00    +0.000 A 
ATOM      7  C   UNL     1      -2.793  11.969  18.892  0.00  0.00    +0.000 A 
ATOM      8  C   UNL     1      -2.886  10.949  17.938  0.00  0.00    +0.000 A 
ATOM      9  C   UNL     1      -1.745  10.147  17.595  0.00  0.00    +0.000 A 
ATOM     10  F   UNL     1      -1.887   9.184  16.677  0.00  0.00    +0.000 F 
ATOM     11  C   UNL     1      -0.485  10.445  18.117  0.00  0.00    +0.000 A 
ATOM     12  H   UNL     1       1.658  10.950  16.766  0.00  0.00    +0.000 HD
ENDROOT
BRANCH   7  13
ATOM     13  O   UNL     1      -3.926  12.591  19.325  0.00  0.00    +0.000 OA
ATOM     14  H   UNL     1      -3.748  13.548  19.334  0.00  0.00    +0.000 HD
ENDBRANCH   7  13
BRANCH   8  15
ATOM     15  O   UNL     1      -4.118  10.787  17.339  0.00  0.00    +0.000 OA
ATOM     16  H   UNL     1      -3.973  10.066  16.674  0.00  0.00    +0.000 HD
ENDBRANCH   8  15
BRANCH   1  17
ATOM     17  C   UNL     1       1.823   8.408  18.773  0.00  0.00    +0.000 C 
BRANCH  17  20
ATOM     18  C   UNL     1       4.916   6.635  16.989  0.00  0.00    +0.000 A 
ATOM     19  C   UNL     1       4.052   7.667  17.495  0.00  0.00    +0.000 A 
ATOM     20  C   UNL     1       2.799   7.397  18.071  0.00  0.00    +0.000 A 
ATOM     21  C   UNL     1       2.458   6.019  18.109  0.00  0.00    +0.000 A 
ATOM     22  C   UNL     1       3.283   4.978  17.586  0.00  0.00    +0.000 A 
ATOM     23  C   UNL     1       4.515   5.269  17.003  0.00  0.00    +0.000 A 
BRANCH  18  25
ATOM     24  C   UNL     1       7.227   6.957  17.417  0.00  0.00    +0.000 C 
ATOM     25  O   UNL     1       6.159   6.934  16.472  0.00  0.00    +0.000 OA
ENDBRANCH  18  25
BRANCH  22  26
ATOM     26  O   UNL     1       2.715   3.724  17.753  0.00  0.00    +0.000 OA
ATOM     27  C   UNL     1       1.677   3.538  18.712  0.00  0.00    +0.000 C 
ENDBRANCH  22  26
BRANCH  23  28
ATOM     28  O   UNL     1       5.209   4.209  16.486  0.00  0.00    +0.000 OA
ATOM     29  C   UNL     1       5.571   4.043  15.136  0.00  0.00    +0.000 C 
ENDBRANCH  23  28
ENDBRANCH  17  20
ENDBRANCH   1  17
TORSDOF 7
ENDMDL
MODEL 8
REMARK VINA RESULT:      -7.2      3.062      4.377
REMARK  Name = 
REMARK  10 active torsions:
REMARK  status: ('A' for Active; 'I' for Inactive)
REMARK    1  A    between atoms: C_1  and  O_2
REMARK    2  A    between atoms: O_2  and  C_3
REMARK    3  A    between atoms: C_5  and  C_6
REMARK    4  A    between atoms: C_6  and  C_7
REMARK    5  A    between atoms: C_13  and  O_14
REMARK    6  A    between atoms: C_15  and  O_16
REMARK    7  A    between atoms: C_21  and  O_22
REMARK    8  A    between atoms: O_22  and  C_23
REMARK    9  A    between atoms: C_24  and  O_25
REMARK   10  A    between atoms: O_25  and  C_26
REMARK                            x       y       z     vdW  Elec       q    Type
REMARK                         _______ _______ _______ _____ _____    ______ ____
ROOT
ATOM      1  C   UNL     1       2.929   6.230  18.628  0.00  0.00    +0.000 C 
ATOM      2  N   UNL     1       1.889   5.425  17.948  0.00  0.00    +0.000 NA
ATOM      3  C   UNL     1       2.122   4.016  18.221  0.00  0.00    +0.000 C 
ATOM      4  C   UNL     1       3.331   3.561  17.461  0.00  0.00    +0.000 C 
ATOM      5  C   UNL     1       4.540   4.399  17.817  0.00  0.00    +0.000 A 
ATOM      6  C   UNL     1       5.797   3.813  17.705  0.00  0.00    +0.000 A 
ATOM      7  C   UNL     1       6.861   4.622  17.386  0.00  0.00    +0.000 A 
ATOM      8  C   UNL     1       6.621   5.974  17.115  0.00  0.00    +0.000 A 
ATOM      9  C   UNL     1       5.369   6.588  17.455  0.00  0.00    +0.000 A 
ATOM     10  F   UNL     1       5.190   7.884  17.176  0.00  0.00    +0.000 F 
ATOM     11  C   UNL     1       4.314   5.822  17.956  0.00  0.00    +0.000 A 
ATOM     12  H   UNL     1       1.945   5.624  16.948  0.00  0.00    +0.000 HD
ENDROOT
BRANCH   7  13
ATOM     13  O   UNL     1       8.114   4.113  17.217  0.00  0.00    +0.000 OA
ATOM     14  H   UNL     1       8.589   4.218  18.061  0.00  0.00    +0.000 HD
ENDBRANCH   7  13
BRANCH   8  15
ATOM     15  O   UNL     1       7.640   6.657  16.484  0.00  0.00    +0.000 OA
ATOM     16  H   UNL     1       7.360   7.608  16.529  0.00  0.00    +0.000 HD
ENDBRANCH   8  15
BRANCH   1  17
ATOM     17  C   UNL     1       2.096   6.751  19.986  0.00  0.00    +0.000 C 
BRANCH  17  20
ATOM     18  C   UNL     1       0.632   9.994  21.783  0.00  0.00    +0.000 A 
ATOM     19  C   UNL     1       1.047   8.634  21.568  0.00  0.00    +0.000 A 
ATOM     20  C   UNL     1       1.497   8.163  20.323  0.00  0.00    +0.000 A 
ATOM     21  C   UNL     1       1.503   9.143  19.295  0.00  0.00    +0.000 A 
ATOM     22  C   UNL     1       1.068  10.491  19.474  0.00  0.00    +0.000 A 
ATOM     23  C   UNL     1       0.609  10.934  20.713  0.00  0.00    +0.000 A 
BRANCH  18  25
ATOM     24  C   UNL     1      -1.168  10.506  23.240  0.00  0.00    +0.000 C 
ATOM     25  O   UNL     1       0.240  10.432  23.031  0.00  0.00    +0.000 OA
ENDBRANCH  18  25
BRANCH  22  26
ATOM     26  O   UNL     1       1.181  11.238  18.311  0.00  0.00    +0.000 OA
ATOM     27  C   UNL     1       2.360  12.000  18.070  0.00  0.00    +0.000 C 
ENDBRANCH  22  26
BRANCH  23  28
ATOM     28  O   UNL     1       0.166  12.227  20.772  0.00  0.00    +0.000 OA
ATOM     29  C   UNL     1       0.918  13.335  21.206  0.00  0.00    +0.000 C 
ENDBRANCH  23  28
ENDBRANCH  17  20
ENDBRANCH   1  17
TORSDOF 7
ENDMDL
MODEL 9
REMARK VINA RESULT:      -7.2      2.876      4.338
REMARK  Name = 
REMARK  10 active torsions:
REMARK  status: ('A' for Active; 'I' for Inactive)
REMARK    1  A    between atoms: C_1  and  O_2
REMARK    2  A    between atoms: O_2  and  C_3
REMARK    3  A    between atoms: C_5  and  C_6
REMARK    4  A    between atoms: C_6  and  C_7
REMARK    5  A    between atoms: C_13  and  O_14
REMARK    6  A    between atoms: C_15  and  O_16
REMARK    7  A    between atoms: C_21  and  O_22
REMARK    8  A    between atoms: O_22  and  C_23
REMARK    9  A    between atoms: C_24  and  O_25
REMARK   10  A    between atoms: O_25  and  C_26
REMARK                            x       y       z     vdW  Elec       q    Type
REMARK                         _______ _______ _______ _____ _____    ______ ____
ROOT
ATOM      1  C   UNL     1       3.304   7.263  17.609  0.00  0.00    +0.000 C 
ATOM      2  N   UNL     1       2.212   6.520  18.278  0.00  0.00    +0.000 NA
ATOM      3  C   UNL     1       2.642   6.143  19.616  0.00  0.00    +0.000 C 
ATOM      4  C   UNL     1       3.665   5.053  19.514  0.00  0.00    +0.000 C 
ATOM      5  C   UNL     1       4.837   5.489  18.661  0.00  0.00    +0.000 A 
ATOM      6  C   UNL     1       6.079   4.915  18.914  0.00  0.00    +0.000 A 
ATOM      7  C   UNL     1       6.948   4.763  17.859  0.00  0.00    +0.000 A 
ATOM      8  C   UNL     1       6.517   5.119  16.576  0.00  0.00    +0.000 A 
ATOM      9  C   UNL     1       5.333   5.908  16.383  0.00  0.00    +0.000 A 
ATOM     10  F   UNL     1       4.965   6.223  15.136  0.00  0.00    +0.000 F 
ATOM     11  C   UNL     1       4.514   6.238  17.465  0.00  0.00    +0.000 A 
ATOM     12  H   UNL     1       2.001   5.698  17.711  0.00  0.00    +0.000 HD
ENDROOT
BRANCH   7  13
ATOM     13  O   UNL     1       8.163   4.170  18.021  0.00  0.00    +0.000 OA
ATOM     14  H   UNL     1       8.032   3.208  17.943  0.00  0.00    +0.000 HD
ENDBRANCH   7  13
BRANCH   8  15
ATOM     15  O   UNL     1       7.277   4.646  15.527  0.00  0.00    +0.000 OA
ATOM     16  H   UNL     1       7.541   5.463  15.030  0.00  0.00    +0.000 HD
ENDBRANCH   8  15
BRANCH   1  17
ATOM     17  C   UNL     1       2.783   8.844  17.805  0.00  0.00    +0.000 C 
BRANCH  17  20
ATOM     18  C   UNL     1       0.460  10.320  20.690  0.00  0.00    +0.000 A 
ATOM     19  C   UNL     1       1.568   9.675  20.038  0.00  0.00    +0.000 A 
ATOM     20  C   UNL     1       1.595   9.418  18.656  0.00  0.00    +0.000 A 
ATOM     21  C   UNL     1       0.433   9.846  17.960  0.00  0.00    +0.000 A 
ATOM     22  C   UNL     1      -0.693  10.461  18.587  0.00  0.00    +0.000 A 
ATOM     23  C   UNL     1      -0.706  10.691  19.962  0.00  0.00    +0.000 A 
BRANCH  18  25
ATOM     24  C   UNL     1       0.115   9.521  22.896  0.00  0.00    +0.000 C 
ATOM     25  O   UNL     1       0.489  10.598  22.040  0.00  0.00    +0.000 OA
ENDBRANCH  18  25
BRANCH  22  26
ATOM     26  O   UNL     1      -1.689  10.782  17.678  0.00  0.00    +0.000 OA
ATOM     27  C   UNL     1      -2.743   9.857  17.424  0.00  0.00    +0.000 C 
ENDBRANCH  22  26
BRANCH  23  28
ATOM     28  O   UNL     1      -1.850  11.238  20.476  0.00  0.00    +0.000 OA
ATOM     29  C   UNL     1      -2.103  12.613  20.638  0.00  0.00    +0.000 C 
ENDBRANCH  23  28
ENDBRANCH  17  20
ENDBRANCH   1  17
TORSDOF 7
ENDMDL
