MODEL 1
REMARK VINA RESULT:      -7.6      0.000      0.000
REMARK  Name = 
REMARK  7 active torsions:
REMARK  status: ('A' for Active; 'I' for Inactive)
REMARK    1  A    between atoms: C_1  and  C_2
REMARK    2  A    between atoms: C_2  and  C_3
REMARK    3  A    between atoms: C_2  and  N_21
REMARK    4  A    between atoms: N_13  and  N_14
REMARK    5  A    between atoms: N_17  and  C_18
REMARK    6  A    between atoms: N_21  and  C_22
REMARK    7  A    between atoms: N_25  and  C_26
REMARK                            x       y       z     vdW  Elec       q    Type
REMARK                         _______ _______ _______ _____ _____    ______ ____
ROOT
ATOM      1  C   UNL     1       0.347  11.991  20.849  0.00  0.00    +0.000 A 
ATOM      2  N   UNL     1       1.541  12.351  21.217  0.00  0.00    +0.000 NA
ATOM      3  C   UNL     1       2.130  13.475  20.641  0.00  0.00    +0.000 A 
ATOM      4  C   UNL     1       3.417  13.830  21.049  0.00  0.00    +0.000 A 
ATOM      5  C   UNL     1       4.040  14.967  20.529  0.00  0.00    +0.000 A 
ATOM      6  C   UNL     1       3.377  15.754  19.589  0.00  0.00    +0.000 A 
ATOM      7  C   UNL     1       2.098  15.397  19.161  0.00  0.00    +0.000 A 
ATOM      8  C   UNL     1       1.482  14.255  19.689  0.00  0.00    +0.000 A 
ATOM      9  C   UNL     1       0.140  13.824  19.251  0.00  0.00    +0.000 A 
ATOM     10  O   UNL     1      -0.436  14.483  18.382  0.00  0.00    +0.000 OA
ATOM     11  N   UNL     1      -0.370  12.667  19.868  0.00  0.00    +0.000 N 
ENDROOT
BRANCH  11  12
ATOM     12  N   UNL     1      -1.613  12.239  19.373  0.00  0.00    +0.000 N 
ATOM     13  C   UNL     1      -1.665  11.181  18.380  0.00  0.00    +0.000 C 
ATOM     14  C   UNL     1      -2.858  11.414  17.443  0.00  0.00    +0.000 C 
ATOM     15  N   UNL     1      -4.128  11.463  18.189  0.00  0.00    +0.000 NA
ATOM     16  C   UNL     1      -5.225  11.759  17.269  0.00  0.00    +0.000 C 
ATOM     17  C   UNL     1      -4.065  12.474  19.273  0.00  0.00    +0.000 C 
ATOM     18  C   UNL     1      -2.814  12.355  20.185  0.00  0.00    +0.000 C 
ENDBRANCH  11  12
BRANCH   1  20
ATOM     19  C   UNL     1      -0.949  11.080  22.831  0.00  0.00    +0.000 C 
ATOM     20  C   UNL     1      -0.240  10.729  21.517  0.00  0.00    +0.000 C 
BRANCH  20  21
ATOM     21  N   UNL     1       0.724   9.622  21.727  0.00  0.00    +0.000 N 
ATOM     22  C   UNL     1       1.287   9.392  23.052  0.00  0.00    +0.000 C 
ATOM     23  C   UNL     1       0.948   8.790  20.629  0.00  0.00    +0.000 C 
ATOM     24  O   UNL     1       0.364   8.985  19.563  0.00  0.00    +0.000 OA
ATOM     25  N   UNL     1       1.861   7.778  20.833  0.00  0.00    +0.000 N 
ATOM     26  H   UNL     1       2.047   7.518  21.786  0.00  0.00    +0.000 HD
BRANCH  25  27
ATOM     27  C   UNL     1       2.303   6.867  19.848  0.00  0.00    +0.000 A 
ATOM     28  C   UNL     1       3.011   7.254  18.705  0.00  0.00    +0.000 A 
ATOM     29  C   UNL     1       3.332   6.320  17.719  0.00  0.00    +0.000 A 
ATOM     30  C   UNL     1       2.962   4.994  17.888  0.00  0.00    +0.000 A 
ATOM     31  F   UNL     1       3.236   4.103  16.927  0.00  0.00    +0.000 F 
ATOM     32  C   UNL     1       2.313   4.578  19.044  0.00  0.00    +0.000 A 
ATOM     33  C   UNL     1       1.993   5.513  20.032  0.00  0.00    +0.000 A 
ENDBRANCH  25  27
ENDBRANCH  20  21
ENDBRANCH   1  20
TORSDOF 4
ENDMDL
MODEL 2
REMARK VINA RESULT:      -7.3      0.535      1.321
REMARK  Name = 
REMARK  7 active torsions:
REMARK  status: ('A' for Active; 'I' for Inactive)
REMARK    1  A    between atoms: C_1  and  C_2
REMARK    2  A    between atoms: C_2  and  C_3
REMARK    3  A    between atoms: C_2  and  N_21
REMARK    4  A    between atoms: N_13  and  N_14
REMARK    5  A    between atoms: N_17  and  C_18
REMARK    6  A    between atoms: N_21  and  C_22
REMARK    7  A    between atoms: N_25  and  C_26
REMARK                            x       y       z     vdW  Elec       q    Type
REMARK                         _______ _______ _______ _____ _____    ______ ____
ROOT
ATOM      1  C   UNL     1       0.361  12.156  20.825  0.00  0.00    +0.000 A 
ATOM      2  N   UNL     1       1.562  12.437  21.238  0.00  0.00    +0.000 NA
ATOM      3  C   UNL     1       2.209  13.571  20.749  0.00  0.00    +0.000 A 
ATOM      4  C   UNL     1       3.502  13.841  21.202  0.00  0.00    +0.000 A 
ATOM      5  C   UNL     1       4.183  14.982  20.772  0.00  0.00    +0.000 A 
ATOM      6  C   UNL     1       3.573  15.859  19.877  0.00  0.00    +0.000 A 
ATOM      7  C   UNL     1       2.288  15.588  19.404  0.00  0.00    +0.000 A 
ATOM      8  C   UNL     1       1.614  14.441  19.843  0.00  0.00    +0.000 A 
ATOM      9  C   UNL     1       0.264  14.100  19.353  0.00  0.00    +0.000 A 
ATOM     10  O   UNL     1      -0.267  14.840  18.522  0.00  0.00    +0.000 OA
ATOM     11  N   UNL     1      -0.306  12.928  19.881  0.00  0.00    +0.000 N 
ENDROOT
BRANCH  11  12
ATOM     12  N   UNL     1      -1.557  12.588  19.337  0.00  0.00    +0.000 N 
ATOM     13  C   UNL     1      -2.753  13.256  19.815  0.00  0.00    +0.000 C 
ATOM     14  C   UNL     1      -3.941  12.287  19.756  0.00  0.00    +0.000 C 
ATOM     15  N   UNL     1      -4.161  11.786  18.387  0.00  0.00    +0.000 NA
ATOM     16  C   UNL     1      -5.252  10.813  18.391  0.00  0.00    +0.000 C 
ATOM     17  C   UNL     1      -2.921  11.182  17.841  0.00  0.00    +0.000 C 
ATOM     18  C   UNL     1      -1.660  12.077  17.980  0.00  0.00    +0.000 C 
ENDBRANCH  11  12
BRANCH   1  20
ATOM     19  C   UNL     1      -1.059  11.182  22.688  0.00  0.00    +0.000 C 
ATOM     20  C   UNL     1      -0.292  10.878  21.395  0.00  0.00    +0.000 C 
BRANCH  20  21
ATOM     21  N   UNL     1       0.631   9.735  21.596  0.00  0.00    +0.000 N 
ATOM     22  C   UNL     1       1.088   9.399  22.939  0.00  0.00    +0.000 C 
ATOM     23  C   UNL     1       0.920   8.977  20.460  0.00  0.00    +0.000 C 
ATOM     24  O   UNL     1       0.423   9.262  19.371  0.00  0.00    +0.000 OA
ATOM     25  N   UNL     1       1.796   7.931  20.657  0.00  0.00    +0.000 N 
ATOM     26  H   UNL     1       1.903   7.600  21.600  0.00  0.00    +0.000 HD
BRANCH  25  27
ATOM     27  C   UNL     1       2.292   7.080  19.645  0.00  0.00    +0.000 A 
ATOM     28  C   UNL     1       2.200   5.685  19.699  0.00  0.00    +0.000 A 
ATOM     29  C   UNL     1       2.799   4.896  18.715  0.00  0.00    +0.000 A 
ATOM     30  C   UNL     1       3.471   5.505  17.666  0.00  0.00    +0.000 A 
ATOM     31  F   UNL     1       4.078   4.750  16.742  0.00  0.00    +0.000 F 
ATOM     32  C   UNL     1       3.520   6.889  17.562  0.00  0.00    +0.000 A 
ATOM     33  C   UNL     1       2.920   7.680  18.545  0.00  0.00    +0.000 A 
ENDBRANCH  25  27
ENDBRANCH  20  21
ENDBRANCH   1  20
TORSDOF 4
ENDMDL
MODEL 3
REMARK VINA RESULT:      -7.2      2.166      4.857
REMARK  Name = 
REMARK  7 active torsions:
REMARK  status: ('A' for Active; 'I' for Inactive)
REMARK    1  A    between atoms: C_1  and  C_2
REMARK    2  A    between atoms: C_2  and  C_3
REMARK    3  A    between atoms: C_2  and  N_21
REMARK    4  A    between atoms: N_13  and  N_14
REMARK    5  A    between atoms: N_17  and  C_18
REMARK    6  A    between atoms: N_21  and  C_22
REMARK    7  A    between atoms: N_25  and  C_26
REMARK                            x       y       z     vdW  Elec       q    Type
REMARK                         _______ _______ _______ _____ _____    ______ ____
ROOT
ATOM      1  C   UNL     1      -0.455  11.060  19.005  0.00  0.00    +0.000 A 
ATOM      2  N   UNL     1      -0.754  10.423  17.911  0.00  0.00    +0.000 NA
ATOM      3  C   UNL     1      -2.025  10.568  17.357  0.00  0.00    +0.000 A 
ATOM      4  C   UNL     1      -2.321   9.863  16.188  0.00  0.00    +0.000 A 
ATOM      5  C   UNL     1      -3.567   9.997  15.572  0.00  0.00    +0.000 A 
ATOM      6  C   UNL     1      -4.530  10.837  16.129  0.00  0.00    +0.000 A 
ATOM      7  C   UNL     1      -4.250  11.531  17.307  0.00  0.00    +0.000 A 
ATOM      8  C   UNL     1      -2.997  11.389  17.917  0.00  0.00    +0.000 A 
ATOM      9  C   UNL     1      -2.664  12.084  19.175  0.00  0.00    +0.000 A 
ATOM     10  O   UNL     1      -3.524  12.790  19.706  0.00  0.00    +0.000 OA
ATOM     11  N   UNL     1      -1.367  11.866  19.676  0.00  0.00    +0.000 N 
ENDROOT
BRANCH  11  12
ATOM     12  N   UNL     1      -1.107  12.476  20.915  0.00  0.00    +0.000 N 
ATOM     13  C   UNL     1      -1.332  11.735  22.142  0.00  0.00    +0.000 C 
ATOM     14  C   UNL     1      -1.775  12.699  23.251  0.00  0.00    +0.000 C 
ATOM     15  N   UNL     1      -0.772  13.755  23.480  0.00  0.00    +0.000 NA
ATOM     16  C   UNL     1      -1.267  14.690  24.489  0.00  0.00    +0.000 C 
ATOM     17  C   UNL     1      -0.455  14.466  22.217  0.00  0.00    +0.000 C 
ATOM     18  C   UNL     1      -0.111  13.530  21.027  0.00  0.00    +0.000 C 
ENDBRANCH  11  12
BRANCH   1  20
ATOM     19  C   UNL     1       2.030  11.396  18.616  0.00  0.00    +0.000 C 
ATOM     20  C   UNL     1       0.965  10.844  19.572  0.00  0.00    +0.000 C 
BRANCH  20  21
ATOM     21  N   UNL     1       1.285   9.448  19.955  0.00  0.00    +0.000 N 
ATOM     22  C   UNL     1       0.942   8.964  21.287  0.00  0.00    +0.000 C 
ATOM     23  C   UNL     1       1.813   8.643  18.944  0.00  0.00    +0.000 C 
ATOM     24  O   UNL     1       1.990   9.092  17.811  0.00  0.00    +0.000 OA
ATOM     25  N   UNL     1       2.125   7.354  19.319  0.00  0.00    +0.000 N 
ATOM     26  H   UNL     1       1.678   7.001  20.147  0.00  0.00    +0.000 HD
BRANCH  25  27
ATOM     27  C   UNL     1       2.741   6.390  18.491  0.00  0.00    +0.000 A 
ATOM     28  C   UNL     1       2.151   5.162  18.171  0.00  0.00    +0.000 A 
ATOM     29  C   UNL     1       2.852   4.209  17.430  0.00  0.00    +0.000 A 
ATOM     30  C   UNL     1       4.135   4.495  16.991  0.00  0.00    +0.000 A 
ATOM     31  F   UNL     1       4.824   3.569  16.312  0.00  0.00    +0.000 F 
ATOM     32  C   UNL     1       4.715   5.732  17.245  0.00  0.00    +0.000 A 
ATOM     33  C   UNL     1       4.014   6.686  17.986  0.00  0.00    +0.000 A 
ENDBRANCH  25  27
ENDBRANCH  20  21
ENDBRANCH   1  20
TORSDOF 4
ENDMDL
MODEL 4
REMARK VINA RESULT:      -7.0      2.102      4.587
REMARK  Name = 
REMARK  7 active torsions:
REMARK  status: ('A' for Active; 'I' for Inactive)
REMARK    1  A    between atoms: C_1  and  C_2
REMARK    2  A    between atoms: C_2  and  C_3
REMARK    3  A    between atoms: C_2  and  N_21
REMARK    4  A    between atoms: N_13  and  N_14
REMARK    5  A    between atoms: N_17  and  C_18
REMARK    6  A    between atoms: N_21  and  C_22
REMARK    7  A    between atoms: N_25  and  C_26
REMARK                            x       y       z     vdW  Elec       q    Type
REMARK                         _______ _______ _______ _____ _____    ______ ____
ROOT
ATOM      1  C   UNL     1      -0.973  11.366  20.035  0.00  0.00    +0.000 A 
ATOM      2  N   UNL     1      -0.989  10.685  18.928  0.00  0.00    +0.000 NA
ATOM      3  C   UNL     1      -2.102  10.757  18.092  0.00  0.00    +0.000 A 
ATOM      4  C   UNL     1      -2.095  10.005  16.915  0.00  0.00    +0.000 A 
ATOM      5  C   UNL     1      -3.169  10.067  16.025  0.00  0.00    +0.000 A 
ATOM      6  C   UNL     1      -4.264  10.880  16.312  0.00  0.00    +0.000 A 
ATOM      7  C   UNL     1      -4.288  11.621  17.495  0.00  0.00    +0.000 A 
ATOM      8  C   UNL     1      -3.205  11.552  18.381  0.00  0.00    +0.000 A 
ATOM      9  C   UNL     1      -3.196  12.298  19.654  0.00  0.00    +0.000 A 
ATOM     10  O   UNL     1      -4.180  12.982  19.945  0.00  0.00    +0.000 OA
ATOM     11  N   UNL     1      -2.043  12.151  20.447  0.00  0.00    +0.000 N 
ENDROOT
BRANCH  11  12
ATOM     12  N   UNL     1      -2.098  12.810  21.687  0.00  0.00    +0.000 N 
ATOM     13  C   UNL     1      -2.460  12.067  22.880  0.00  0.00    +0.000 C 
ATOM     14  C   UNL     1      -3.218  12.986  23.848  0.00  0.00    +0.000 C 
ATOM     15  N   UNL     1      -2.410  14.162  24.218  0.00  0.00    +0.000 NA
ATOM     16  C   UNL     1      -3.196  15.044  25.079  0.00  0.00    +0.000 C 
ATOM     17  C   UNL     1      -1.947  14.886  23.008  0.00  0.00    +0.000 C 
ATOM     18  C   UNL     1      -1.275  13.981  21.941  0.00  0.00    +0.000 C 
ENDBRANCH  11  12
BRANCH   1  20
ATOM     19  C   UNL     1       1.520  11.804  20.217  0.00  0.00    +0.000 C 
ATOM     20  C   UNL     1       0.284  11.230  20.921  0.00  0.00    +0.000 C 
BRANCH  20  21
ATOM     21  N   UNL     1       0.560   9.859  21.416  0.00  0.00    +0.000 N 
ATOM     22  C   UNL     1       0.158   9.481  22.766  0.00  0.00    +0.000 C 
ATOM     23  C   UNL     1       1.108   8.973  20.488  0.00  0.00    +0.000 C 
ATOM     24  O   UNL     1       1.335   9.333  19.333  0.00  0.00    +0.000 OA
ATOM     25  N   UNL     1       1.378   7.709  20.968  0.00  0.00    +0.000 N 
ATOM     26  H   UNL     1       0.893   7.426  21.801  0.00  0.00    +0.000 HD
BRANCH  25  27
ATOM     27  C   UNL     1       2.002   6.675  20.236  0.00  0.00    +0.000 A 
ATOM     28  C   UNL     1       2.812   6.904  19.119  0.00  0.00    +0.000 A 
ATOM     29  C   UNL     1       3.319   5.835  18.378  0.00  0.00    +0.000 A 
ATOM     30  C   UNL     1       3.032   4.536  18.769  0.00  0.00    +0.000 A 
ATOM     31  F   UNL     1       3.485   3.509  18.039  0.00  0.00    +0.000 F 
ATOM     32  C   UNL     1       2.281   4.287  19.911  0.00  0.00    +0.000 A 
ATOM     33  C   UNL     1       1.775   5.357  20.654  0.00  0.00    +0.000 A 
ENDBRANCH  25  27
ENDBRANCH  20  21
ENDBRANCH   1  20
TORSDOF 4
ENDMDL
MODEL 5
REMARK VINA RESULT:      -7.0      2.180      4.802
REMARK  Name = 
REMARK  7 active torsions:
REMARK  status: ('A' for Active; 'I' for Inactive)
REMARK    1  A    between atoms: C_1  and  C_2
REMARK    2  A    between atoms: C_2  and  C_3
REMARK    3  A    between atoms: C_2  and  N_21
REMARK    4  A    between atoms: N_13  and  N_14
REMARK    5  A    between atoms: N_17  and  C_18
REMARK    6  A    between atoms: N_21  and  C_22
REMARK    7  A    between atoms: N_25  and  C_26
REMARK                            x       y       z     vdW  Elec       q    Type
REMARK                         _______ _______ _______ _____ _____    ______ ____
ROOT
ATOM      1  C   UNL     1      -0.389  10.992  19.286  0.00  0.00    +0.000 A 
ATOM      2  N   UNL     1      -0.651  10.337  18.193  0.00  0.00    +0.000 NA
ATOM      3  C   UNL     1      -1.889  10.500  17.573  0.00  0.00    +0.000 A 
ATOM      4  C   UNL     1      -2.145   9.775  16.408  0.00  0.00    +0.000 A 
ATOM      5  C   UNL     1      -3.355   9.926  15.727  0.00  0.00    +0.000 A 
ATOM      6  C   UNL     1      -4.321  10.803  16.215  0.00  0.00    +0.000 A 
ATOM      7  C   UNL     1      -4.082  11.518  17.390  0.00  0.00    +0.000 A 
ATOM      8  C   UNL     1      -2.865  11.359  18.065  0.00  0.00    +0.000 A 
ATOM      9  C   UNL     1      -2.576  12.076  19.322  0.00  0.00    +0.000 A 
ATOM     10  O   UNL     1      -3.442  12.816  19.793  0.00  0.00    +0.000 OA
ATOM     11  N   UNL     1      -1.312  11.836  19.892  0.00  0.00    +0.000 N 
ENDROOT
BRANCH  11  12
ATOM     12  N   UNL     1      -1.098  12.470  21.128  0.00  0.00    +0.000 N 
ATOM     13  C   UNL     1      -1.612  11.867  22.344  0.00  0.00    +0.000 C 
ATOM     14  C   UNL     1      -1.998  12.968  23.340  0.00  0.00    +0.000 C 
ATOM     15  N   UNL     1      -0.848  13.833  23.659  0.00  0.00    +0.000 NA
ATOM     16  C   UNL     1      -1.277  14.909  24.552  0.00  0.00    +0.000 C 
ATOM     17  C   UNL     1      -0.245  14.387  22.422  0.00  0.00    +0.000 C 
ATOM     18  C   UNL     1       0.060  13.327  21.330  0.00  0.00    +0.000 C 
ENDBRANCH  11  12
BRANCH   1  20
ATOM     19  C   UNL     1       2.109  10.819  18.876  0.00  0.00    +0.000 C 
ATOM     20  C   UNL     1       0.994  10.754  19.928  0.00  0.00    +0.000 C 
BRANCH  20  21
ATOM     21  N   UNL     1       1.111   9.513  20.732  0.00  0.00    +0.000 N 
ATOM     22  C   UNL     1       0.737   9.524  22.141  0.00  0.00    +0.000 C 
ATOM     23  C   UNL     1       1.483   8.364  20.032  0.00  0.00    +0.000 C 
ATOM     24  O   UNL     1       1.692   8.408  18.820  0.00  0.00    +0.000 OA
ATOM     25  N   UNL     1       1.607   7.223  20.795  0.00  0.00    +0.000 N 
ATOM     26  H   UNL     1       1.135   7.216  21.682  0.00  0.00    +0.000 HD
BRANCH  25  27
ATOM     27  C   UNL     1       2.046   5.968  20.320  0.00  0.00    +0.000 A 
ATOM     28  C   UNL     1       1.316   4.786  20.485  0.00  0.00    +0.000 A 
ATOM     29  C   UNL     1       1.849   3.560  20.082  0.00  0.00    +0.000 A 
ATOM     30  C   UNL     1       3.104   3.522  19.493  0.00  0.00    +0.000 A 
ATOM     31  F   UNL     1       3.634   2.344  19.140  0.00  0.00    +0.000 F 
ATOM     32  C   UNL     1       3.818   4.691  19.264  0.00  0.00    +0.000 A 
ATOM     33  C   UNL     1       3.284   5.918  19.666  0.00  0.00    +0.000 A 
ENDBRANCH  25  27
ENDBRANCH  20  21
ENDBRANCH   1  20
TORSDOF 4
ENDMDL
MODEL 6
REMARK VINA RESULT:      -6.8      2.088      4.789
REMARK  Name = 
REMARK  7 active torsions:
REMARK  status: ('A' for Active; 'I' for Inactive)
REMARK    1  A    between atoms: C_1  and  C_2
REMARK    2  A    between atoms: C_2  and  C_3
REMARK    3  A    between atoms: C_2  and  N_21
REMARK    4  A    between atoms: N_13  and  N_14
REMARK    5  A    between atoms: N_17  and  C_18
REMARK    6  A    between atoms: N_21  and  C_22
REMARK    7  A    between atoms: N_25  and  C_26
REMARK                            x       y       z     vdW  Elec       q    Type
REMARK                         _______ _______ _______ _____ _____    ______ ____
ROOT
ATOM      1  C   UNL     1      -0.543  12.191  20.724  0.00  0.00    +0.000 A 
ATOM      2  N   UNL     1      -1.548  11.805  21.452  0.00  0.00    +0.000 NA
ATOM      3  C   UNL     1      -2.012  12.629  22.476  0.00  0.00    +0.000 A 
ATOM      4  C   UNL     1      -3.086  12.182  23.249  0.00  0.00    +0.000 A 
ATOM      5  C   UNL     1      -3.613  12.982  24.266  0.00  0.00    +0.000 A 
ATOM      6  C   UNL     1      -3.060  14.236  24.519  0.00  0.00    +0.000 A 
ATOM      7  C   UNL     1      -1.975  14.684  23.764  0.00  0.00    +0.000 A 
ATOM      8  C   UNL     1      -1.454  13.873  22.747  0.00  0.00    +0.000 A 
ATOM      9  C   UNL     1      -0.293  14.293  21.939  0.00  0.00    +0.000 A 
ATOM     10  O   UNL     1       0.237  15.378  22.187  0.00  0.00    +0.000 OA
ATOM     11  N   UNL     1       0.123  13.392  20.942  0.00  0.00    +0.000 N 
ENDROOT
BRANCH  11  12
ATOM     12  N   UNL     1       1.277  13.784  20.243  0.00  0.00    +0.000 N 
ATOM     13  C   UNL     1       2.576  13.294  20.669  0.00  0.00    +0.000 C 
ATOM     14  C   UNL     1       3.644  14.360  20.388  0.00  0.00    +0.000 C 
ATOM     15  N   UNL     1       3.688  14.716  18.958  0.00  0.00    +0.000 NA
ATOM     16  C   UNL     1       4.665  15.783  18.749  0.00  0.00    +0.000 C 
ATOM     17  C   UNL     1       2.347  15.129  18.476  0.00  0.00    +0.000 C 
ATOM     18  C   UNL     1       1.206  14.140  18.835  0.00  0.00    +0.000 C 
ENDBRANCH  11  12
BRANCH   1  20
ATOM     19  C   UNL     1      -1.252  10.743  18.765  0.00  0.00    +0.000 C 
ATOM     20  C   UNL     1      -0.071  11.225  19.616  0.00  0.00    +0.000 C 
BRANCH  20  21
ATOM     21  N   UNL     1       0.734  10.072  20.087  0.00  0.00    +0.000 N 
ATOM     22  C   UNL     1       0.910   9.846  21.517  0.00  0.00    +0.000 C 
ATOM     23  C   UNL     1       1.191   9.200  19.097  0.00  0.00    +0.000 C 
ATOM     24  O   UNL     1       0.924   9.400  17.912  0.00  0.00    +0.000 OA
ATOM     25  N   UNL     1       1.955   8.145  19.548  0.00  0.00    +0.000 N 
ATOM     26  H   UNL     1       1.864   7.900  20.518  0.00  0.00    +0.000 HD
BRANCH  25  27
ATOM     27  C   UNL     1       2.586   7.186  18.726  0.00  0.00    +0.000 A 
ATOM     28  C   UNL     1       2.270   5.823  18.752  0.00  0.00    +0.000 A 
ATOM     29  C   UNL     1       3.000   4.910  17.989  0.00  0.00    +0.000 A 
ATOM     30  C   UNL     1       4.031   5.365  17.181  0.00  0.00    +0.000 A 
ATOM     31  F   UNL     1       4.756   4.488  16.476  0.00  0.00    +0.000 F 
ATOM     32  C   UNL     1       4.320   6.722  17.094  0.00  0.00    +0.000 A 
ATOM     33  C   UNL     1       3.589   7.636  17.857  0.00  0.00    +0.000 A 
ENDBRANCH  25  27
ENDBRANCH  20  21
ENDBRANCH   1  20
TORSDOF 4
ENDMDL
MODEL 7
REMARK VINA RESULT:      -6.7      2.211      4.961
REMARK  Name = 
REMARK  7 active torsions:
REMARK  status: ('A' for Active; 'I' for Inactive)
REMARK    1  A    between atoms: C_1  and  C_2
REMARK    2  A    between atoms: C_2  and  C_3
REMARK    3  A    between atoms: C_2  and  N_21
REMARK    4  A    between atoms: N_13  and  N_14
REMARK    5  A    between atoms: N_17  and  C_18
REMARK    6  A    between atoms: N_21  and  C_22
REMARK    7  A    between atoms: N_25  and  C_26
REMARK                            x       y       z     vdW  Elec       q    Type
REMARK                         _______ _______ _______ _____ _____    ______ ____
ROOT
ATOM      1  C   UNL     1      -0.535  11.125  19.009  0.00  0.00    +0.000 A 
ATOM      2  N   UNL     1      -0.835  10.485  17.917  0.00  0.00    +0.000 NA
ATOM      3  C   UNL     1      -2.105  10.631  17.362  0.00  0.00    +0.000 A 
ATOM      4  C   UNL     1      -2.402   9.922  16.196  0.00  0.00    +0.000 A 
ATOM      5  C   UNL     1      -3.648  10.058  15.578  0.00  0.00    +0.000 A 
ATOM      6  C   UNL     1      -4.608  10.902  16.131  0.00  0.00    +0.000 A 
ATOM      7  C   UNL     1      -4.328  11.600  17.307  0.00  0.00    +0.000 A 
ATOM      8  C   UNL     1      -3.075  11.457  17.918  0.00  0.00    +0.000 A 
ATOM      9  C   UNL     1      -2.741  12.156  19.174  0.00  0.00    +0.000 A 
ATOM     10  O   UNL     1      -3.600  12.866  19.701  0.00  0.00    +0.000 OA
ATOM     11  N   UNL     1      -1.446  11.936  19.677  0.00  0.00    +0.000 N 
ENDROOT
BRANCH  11  12
ATOM     12  N   UNL     1      -1.185  12.551  20.913  0.00  0.00    +0.000 N 
ATOM     13  C   UNL     1      -1.091  11.740  22.113  0.00  0.00    +0.000 C 
ATOM     14  C   UNL     1      -1.604  12.542  23.316  0.00  0.00    +0.000 C 
ATOM     15  N   UNL     1      -0.844  13.792  23.496  0.00  0.00    +0.000 NA
ATOM     16  C   UNL     1      -1.413  14.556  24.605  0.00  0.00    +0.000 C 
ATOM     17  C   UNL     1      -0.847  14.595  22.249  0.00  0.00    +0.000 C 
ATOM     18  C   UNL     1      -0.445  13.801  20.977  0.00  0.00    +0.000 C 
ENDBRANCH  11  12
BRANCH   1  20
ATOM     19  C   UNL     1       1.704  12.203  19.522  0.00  0.00    +0.000 C 
ATOM     20  C   UNL     1       0.884  10.908  19.578  0.00  0.00    +0.000 C 
BRANCH  20  21
ATOM     21  N   UNL     1       1.642   9.788  18.971  0.00  0.00    +0.000 N 
ATOM     22  C   UNL     1       2.527  10.039  17.840  0.00  0.00    +0.000 C 
ATOM     23  C   UNL     1       1.527   8.554  19.612  0.00  0.00    +0.000 C 
ATOM     24  O   UNL     1       0.834   8.433  20.623  0.00  0.00    +0.000 OA
ATOM     25  N   UNL     1       2.219   7.517  19.025  0.00  0.00    +0.000 N 
ATOM     26  H   UNL     1       2.974   7.766  18.409  0.00  0.00    +0.000 HD
BRANCH  25  27
ATOM     27  C   UNL     1       2.189   6.171  19.451  0.00  0.00    +0.000 A 
ATOM     28  C   UNL     1       2.165   5.791  20.797  0.00  0.00    +0.000 A 
ATOM     29  C   UNL     1       2.237   4.443  21.156  0.00  0.00    +0.000 A 
ATOM     30  C   UNL     1       2.312   3.476  20.165  0.00  0.00    +0.000 A 
ATOM     31  F   UNL     1       2.420   2.186  20.506  0.00  0.00    +0.000 F 
ATOM     32  C   UNL     1       2.275   3.830  18.822  0.00  0.00    +0.000 A 
ATOM     33  C   UNL     1       2.201   5.178  18.462  0.00  0.00    +0.000 A 
ENDBRANCH  25  27
ENDBRANCH  20  21
ENDBRANCH   1  20
TORSDOF 4
ENDMDL
MODEL 8
REMARK VINA RESULT:      -6.5      2.125      4.935
REMARK  Name = 
REMARK  7 active torsions:
REMARK  status: ('A' for Active; 'I' for Inactive)
REMARK    1  A    between atoms: C_1  and  C_2
REMARK    2  A    between atoms: C_2  and  C_3
REMARK    3  A    between atoms: C_2  and  N_21
REMARK    4  A    between atoms: N_13  and  N_14
REMARK    5  A    between atoms: N_17  and  C_18
REMARK    6  A    between atoms: N_21  and  C_22
REMARK    7  A    between atoms: N_25  and  C_26
REMARK                            x       y       z     vdW  Elec       q    Type
REMARK                         _______ _______ _______ _____ _____    ______ ____
ROOT
ATOM      1  C   UNL     1      -1.193  11.793  19.042  0.00  0.00    +0.000 A 
ATOM      2  N   UNL     1      -1.240  11.242  17.865  0.00  0.00    +0.000 NA
ATOM      3  C   UNL     1      -2.462  11.138  17.203  0.00  0.00    +0.000 A 
ATOM      4  C   UNL     1      -2.484  10.530  15.945  0.00  0.00    +0.000 A 
ATOM      5  C   UNL     1      -3.675  10.431  15.223  0.00  0.00    +0.000 A 
ATOM      6  C   UNL     1      -4.857  10.935  15.762  0.00  0.00    +0.000 A 
ATOM      7  C   UNL     1      -4.850  11.527  17.026  0.00  0.00    +0.000 A 
ATOM      8  C   UNL     1      -3.649  11.622  17.741  0.00  0.00    +0.000 A 
ATOM      9  C   UNL     1      -3.595  12.218  19.090  0.00  0.00    +0.000 A 
ATOM     10  O   UNL     1      -4.643  12.621  19.599  0.00  0.00    +0.000 OA
ATOM     11  N   UNL     1      -2.326  12.263  19.695  0.00  0.00    +0.000 N 
ENDROOT
BRANCH  11  12
ATOM     12  N   UNL     1      -2.320  12.763  21.008  0.00  0.00    +0.000 N 
ATOM     13  C   UNL     1      -1.947  11.891  22.107  0.00  0.00    +0.000 C 
ATOM     14  C   UNL     1      -2.730  12.287  23.366  0.00  0.00    +0.000 C 
ATOM     15  N   UNL     1      -2.482  13.692  23.736  0.00  0.00    +0.000 NA
ATOM     16  C   UNL     1      -3.302  14.045  24.893  0.00  0.00    +0.000 C 
ATOM     17  C   UNL     1      -2.767  14.596  22.595  0.00  0.00    +0.000 C 
ATOM     18  C   UNL     1      -2.090  14.176  21.263  0.00  0.00    +0.000 C 
ENDBRANCH  11  12
BRANCH   1  20
ATOM     19  C   UNL     1       0.726  13.301  19.739  0.00  0.00    +0.000 C 
ATOM     20  C   UNL     1       0.190  11.864  19.725  0.00  0.00    +0.000 C 
BRANCH  20  21
ATOM     21  N   UNL     1       1.210  10.935  19.179  0.00  0.00    +0.000 N 
ATOM     22  C   UNL     1       2.293  11.453  18.352  0.00  0.00    +0.000 C 
ATOM     23  C   UNL     1       1.114   9.608  19.598  0.00  0.00    +0.000 C 
ATOM     24  O   UNL     1       0.227   9.257  20.376  0.00  0.00    +0.000 OA
ATOM     25  N   UNL     1       2.055   8.752  19.067  0.00  0.00    +0.000 N 
ATOM     26  H   UNL     1       2.893   9.170  18.699  0.00  0.00    +0.000 HD
BRANCH  25  27
ATOM     27  C   UNL     1       2.105   7.358  19.284  0.00  0.00    +0.000 A 
ATOM     28  C   UNL     1       1.822   6.761  20.517  0.00  0.00    +0.000 A 
ATOM     29  C   UNL     1       1.987   5.386  20.695  0.00  0.00    +0.000 A 
ATOM     30  C   UNL     1       2.414   4.606  19.631  0.00  0.00    +0.000 A 
ATOM     31  F   UNL     1       2.609   3.294  19.809  0.00  0.00    +0.000 F 
ATOM     32  C   UNL     1       2.641   5.170  18.382  0.00  0.00    +0.000 A 
ATOM     33  C   UNL     1       2.475   6.546  18.203  0.00  0.00    +0.000 A 
ENDBRANCH  25  27
ENDBRANCH  20  21
ENDBRANCH   1  20
TORSDOF 4
ENDMDL
MODEL 9
REMARK VINA RESULT:      -6.4      2.105      4.623
REMARK  Name = 
REMARK  7 active torsions:
REMARK  status: ('A' for Active; 'I' for Inactive)
REMARK    1  A    between atoms: C_1  and  C_2
REMARK    2  A    between atoms: C_2  and  C_3
REMARK    3  A    between atoms: C_2  and  N_21
REMARK    4  A    between atoms: N_13  and  N_14
REMARK    5  A    between atoms: N_17  and  C_18
REMARK    6  A    between atoms: N_21  and  C_22
REMARK    7  A    between atoms: N_25  and  C_26
REMARK                            x       y       z     vdW  Elec       q    Type
REMARK                         _______ _______ _______ _____ _____    ______ ____
ROOT
ATOM      1  C   UNL     1      -1.302  11.475  20.038  0.00  0.00    +0.000 A 
ATOM      2  N   UNL     1      -1.189  10.739  18.972  0.00  0.00    +0.000 NA
ATOM      3  C   UNL     1      -2.206  10.749  18.018  0.00  0.00    +0.000 A 
ATOM      4  C   UNL     1      -2.062   9.939  16.889  0.00  0.00    +0.000 A 
ATOM      5  C   UNL     1      -3.034   9.937  15.887  0.00  0.00    +0.000 A 
ATOM      6  C   UNL     1      -4.163  10.744  16.012  0.00  0.00    +0.000 A 
ATOM      7  C   UNL     1      -4.325  11.542  17.146  0.00  0.00    +0.000 A 
ATOM      8  C   UNL     1      -3.344  11.537  18.146  0.00  0.00    +0.000 A 
ATOM      9  C   UNL     1      -3.482  12.346  19.372  0.00  0.00    +0.000 A 
ATOM     10  O   UNL     1      -4.501  13.025  19.519  0.00  0.00    +0.000 OA
ATOM     11  N   UNL     1      -2.421  12.260  20.291  0.00  0.00    +0.000 N 
ENDROOT
BRANCH  11  12
ATOM     12  N   UNL     1      -2.618  12.978  21.482  0.00  0.00    +0.000 N 
ATOM     13  C   UNL     1      -2.413  14.415  21.497  0.00  0.00    +0.000 C 
ATOM     14  C   UNL     1      -1.890  14.846  22.874  0.00  0.00    +0.000 C 
ATOM     15  N   UNL     1      -2.823  14.463  23.949  0.00  0.00    +0.000 NA
ATOM     16  C   UNL     1      -2.252  14.826  25.245  0.00  0.00    +0.000 C 
ATOM     17  C   UNL     1      -3.122  13.011  23.896  0.00  0.00    +0.000 C 
ATOM     18  C   UNL     1      -3.546  12.497  22.493  0.00  0.00    +0.000 C 
ENDBRANCH  11  12
BRANCH   1  20
ATOM     19  C   UNL     1       1.106  12.108  20.523  0.00  0.00    +0.000 C 
ATOM     20  C   UNL     1      -0.147  11.405  21.060  0.00  0.00    +0.000 C 
BRANCH  20  21
ATOM     21  N   UNL     1       0.188  10.043  21.541  0.00  0.00    +0.000 N 
ATOM     22  C   UNL     1      -0.239   9.617  22.868  0.00  0.00    +0.000 C 
ATOM     23  C   UNL     1       0.817   9.207  20.617  0.00  0.00    +0.000 C 
ATOM     24  O   UNL     1       1.065   9.602  19.478  0.00  0.00    +0.000 OA
ATOM     25  N   UNL     1       1.141   7.951  21.084  0.00  0.00    +0.000 N 
ATOM     26  H   UNL     1       0.644   7.625  21.894  0.00  0.00    +0.000 HD
BRANCH  25  27
ATOM     27  C   UNL     1       1.848   6.968  20.358  0.00  0.00    +0.000 A 
ATOM     28  C   UNL     1       2.648   7.259  19.247  0.00  0.00    +0.000 A 
ATOM     29  C   UNL     1       3.241   6.232  18.510  0.00  0.00    +0.000 A 
ATOM     30  C   UNL     1       3.050   4.915  18.899  0.00  0.00    +0.000 A 
ATOM     31  F   UNL     1       3.587   3.927  18.173  0.00  0.00    +0.000 F 
ATOM     32  C   UNL     1       2.311   4.609  20.035  0.00  0.00    +0.000 A 
ATOM     33  C   UNL     1       1.719   5.636  20.773  0.00  0.00    +0.000 A 
ENDBRANCH  25  27
ENDBRANCH  20  21
ENDBRANCH   1  20
TORSDOF 4
ENDMDL
