MODEL 1
REMARK VINA RESULT:      -8.7      0.000      0.000
REMARK  Name = 
REMARK  10 active torsions:
REMARK  status: ('A' for Active; 'I' for Inactive)
REMARK    1  A    between atoms: C_1  and  C_2
REMARK    2  A    between atoms: C_2  and  C_3
REMARK    3  A    between atoms: C_3  and  C_4
REMARK    4  A    between atoms: C_4  and  C_5
REMARK    5  A    between atoms: C_5  and  C_6
REMARK    6  A    between atoms: C_6  and  C_7
REMARK    7  A    between atoms: C_7  and  C_8
REMARK    8  A    between atoms: C_7  and  N_9
REMARK    9  A    between atoms: C_14  and  C_15
REMARK   10  A    between atoms: C_18  and  C_19
REMARK                            x       y       z     vdW  Elec       q    Type
REMARK                         _______ _______ _______ _____ _____    ______ ____
ROOT
ATOM      1  N   UNL     1       6.090   3.697  16.676  0.00  0.00    +0.000 N 
ATOM      2  C   UNL     1       5.093   4.156  17.501  0.00  0.00    +0.000 A 
ATOM      3  N   UNL     1       4.709   5.405  17.508  0.00  0.00    +0.000 NA
ATOM      4  C   UNL     1       3.720   5.727  18.455  0.00  0.00    +0.000 A 
ATOM      5  C   UNL     1       3.194   7.027  18.651  0.00  0.00    +0.000 A 
ATOM      6  C   UNL     1       2.263   7.057  19.687  0.00  0.00    +0.000 A 
ATOM      7  S   UNL     1       2.068   5.477  20.380  0.00  0.00    +0.000 S 
ATOM      8  C   UNL     1       3.192   4.806  19.306  0.00  0.00    +0.000 A 
ATOM      9  C   UNL     1       3.588   3.439  19.288  0.00  0.00    +0.000 A 
ATOM     10  O   UNL     1       3.167   2.538  20.011  0.00  0.00    +0.000 OA
ATOM     11  N   UNL     1       4.556   3.194  18.339  0.00  0.00    +0.000 N 
ATOM     12  H   UNL     1       6.425   2.763  16.862  0.00  0.00    +0.000 HD
ATOM     13  H   UNL     1       4.880   2.247  18.306  0.00  0.00    +0.000 HD
ENDROOT
BRANCH   6  14
ATOM     14  C   UNL     1       1.512   8.203  20.239  0.00  0.00    +0.000 A 
ATOM     15  C   UNL     1       1.057   9.251  19.423  0.00  0.00    +0.000 A 
ATOM     16  C   UNL     1       0.324  10.319  19.949  0.00  0.00    +0.000 A 
ATOM     17  C   UNL     1       0.031  10.370  21.314  0.00  0.00    +0.000 A 
ATOM     18  C   UNL     1      -0.761  11.507  21.887  0.00  0.00    +0.000 C 
ATOM     19  C   UNL     1       0.488   9.341  22.142  0.00  0.00    +0.000 A 
ATOM     20  C   UNL     1       1.221   8.270  21.610  0.00  0.00    +0.000 A 
ENDBRANCH   6  14
BRANCH   1  21
ATOM     21  C   UNL     1       7.120   4.586  16.124  0.00  0.00    +0.000 C 
ATOM     22  C   UNL     1       7.193   5.855  16.985  0.00  0.00    +0.000 C 
BRANCH  21  23
ATOM     23  C   UNL     1       6.770   4.914  14.655  0.00  0.00    +0.000 C 
BRANCH  23  24
ATOM     24  C   UNL     1       6.010   3.790  13.950  0.00  0.00    +0.000 C 
BRANCH  24  25
ATOM     25  C   UNL     1       6.497   3.552  12.520  0.00  0.00    +0.000 C 
BRANCH  25  26
ATOM     26  C   UNL     1       5.427   2.792  11.729  0.00  0.00    +0.000 C 
BRANCH  26  28
ATOM     27  C   UNL     1       3.346   3.152  10.366  0.00  0.00    +0.000 C 
ATOM     28  C   UNL     1       4.136   3.592  11.589  0.00  0.00    +0.000 C 
ENDBRANCH  26  28
ENDBRANCH  25  26
ENDBRANCH  24  25
ENDBRANCH  23  24
ENDBRANCH  21  23
ENDBRANCH   1  21
TORSDOF 7
ENDMDL
MODEL 2
REMARK VINA RESULT:      -8.7      1.655      4.172
REMARK  Name = 
REMARK  10 active torsions:
REMARK  status: ('A' for Active; 'I' for Inactive)
REMARK    1  A    between atoms: C_1  and  C_2
REMARK    2  A    between atoms: C_2  and  C_3
REMARK    3  A    between atoms: C_3  and  C_4
REMARK    4  A    between atoms: C_4  and  C_5
REMARK    5  A    between atoms: C_5  and  C_6
REMARK    6  A    between atoms: C_6  and  C_7
REMARK    7  A    between atoms: C_7  and  C_8
REMARK    8  A    between atoms: C_7  and  N_9
REMARK    9  A    between atoms: C_14  and  C_15
REMARK   10  A    between atoms: C_18  and  C_19
REMARK                            x       y       z     vdW  Elec       q    Type
REMARK                         _______ _______ _______ _____ _____    ______ ____
ROOT
ATOM      1  N   UNL     1       5.137   4.008  16.591  0.00  0.00    +0.000 N 
ATOM      2  C   UNL     1       4.244   4.499  17.511  0.00  0.00    +0.000 A 
ATOM      3  N   UNL     1       3.901   5.759  17.549  0.00  0.00    +0.000 NA
ATOM      4  C   UNL     1       3.025   6.114  18.591  0.00  0.00    +0.000 A 
ATOM      5  C   UNL     1       2.561   7.431  18.832  0.00  0.00    +0.000 A 
ATOM      6  C   UNL     1       1.742   7.492  19.957  0.00  0.00    +0.000 A 
ATOM      7  S   UNL     1       1.571   5.921  20.676  0.00  0.00    +0.000 S 
ATOM      8  C   UNL     1       2.558   5.213  19.497  0.00  0.00    +0.000 A 
ATOM      9  C   UNL     1       2.909   3.834  19.447  0.00  0.00    +0.000 A 
ATOM     10  O   UNL     1       2.536   2.948  20.214  0.00  0.00    +0.000 OA
ATOM     11  N   UNL     1       3.768   3.556  18.405  0.00  0.00    +0.000 N 
ATOM     12  H   UNL     1       5.462   3.064  16.747  0.00  0.00    +0.000 HD
ATOM     13  H   UNL     1       4.057   2.600  18.345  0.00  0.00    +0.000 HD
ENDROOT
BRANCH   6  14
ATOM     14  C   UNL     1       1.086   8.662  20.576  0.00  0.00    +0.000 A 
ATOM     15  C   UNL     1       0.641   8.642  21.906  0.00  0.00    +0.000 A 
ATOM     16  C   UNL     1       0.045   9.764  22.493  0.00  0.00    +0.000 A 
ATOM     17  C   UNL     1      -0.128  10.938  21.756  0.00  0.00    +0.000 A 
ATOM     18  C   UNL     1      -0.759  12.148  22.377  0.00  0.00    +0.000 C 
ATOM     19  C   UNL     1       0.298  10.968  20.425  0.00  0.00    +0.000 A 
ATOM     20  C   UNL     1       0.897   9.843  19.842  0.00  0.00    +0.000 A 
ENDBRANCH   6  14
BRANCH   1  21
ATOM     21  C   UNL     1       6.132   4.863  15.931  0.00  0.00    +0.000 C 
ATOM     22  C   UNL     1       6.347   4.358  14.497  0.00  0.00    +0.000 C 
BRANCH  21  23
ATOM     23  C   UNL     1       7.444   4.835  16.747  0.00  0.00    +0.000 C 
BRANCH  23  24
ATOM     24  C   UNL     1       7.426   5.781  17.949  0.00  0.00    +0.000 C 
BRANCH  24  25
ATOM     25  C   UNL     1       7.452   7.255  17.544  0.00  0.00    +0.000 C 
BRANCH  25  26
ATOM     26  C   UNL     1       8.445   8.017  18.428  0.00  0.00    +0.000 C 
BRANCH  26  28
ATOM     27  C   UNL     1       9.216  10.277  19.213  0.00  0.00    +0.000 C 
ATOM     28  C   UNL     1       8.414   9.520  18.166  0.00  0.00    +0.000 C 
ENDBRANCH  26  28
ENDBRANCH  25  26
ENDBRANCH  24  25
ENDBRANCH  23  24
ENDBRANCH  21  23
ENDBRANCH   1  21
TORSDOF 7
ENDMDL
MODEL 3
REMARK VINA RESULT:      -8.7      0.518      1.129
REMARK  Name = 
REMARK  10 active torsions:
REMARK  status: ('A' for Active; 'I' for Inactive)
REMARK    1  A    between atoms: C_1  and  C_2
REMARK    2  A    between atoms: C_2  and  C_3
REMARK    3  A    between atoms: C_3  and  C_4
REMARK    4  A    between atoms: C_4  and  C_5
REMARK    5  A    between atoms: C_5  and  C_6
REMARK    6  A    between atoms: C_6  and  C_7
REMARK    7  A    between atoms: C_7  and  C_8
REMARK    8  A    between atoms: C_7  and  N_9
REMARK    9  A    between atoms: C_14  and  C_15
REMARK   10  A    between atoms: C_18  and  C_19
REMARK                            x       y       z     vdW  Elec       q    Type
REMARK                         _______ _______ _______ _____ _____    ______ ____
ROOT
ATOM      1  N   UNL     1       5.675   3.336  16.530  0.00  0.00    +0.000 N 
ATOM      2  C   UNL     1       4.765   3.881  17.402  0.00  0.00    +0.000 A 
ATOM      3  N   UNL     1       4.416   5.139  17.352  0.00  0.00    +0.000 NA
ATOM      4  C   UNL     1       3.521   5.557  18.354  0.00  0.00    +0.000 A 
ATOM      5  C   UNL     1       3.048   6.884  18.501  0.00  0.00    +0.000 A 
ATOM      6  C   UNL     1       2.210   7.014  19.607  0.00  0.00    +0.000 A 
ATOM      7  S   UNL     1       2.036   5.493  20.425  0.00  0.00    +0.000 S 
ATOM      8  C   UNL     1       3.045   4.714  19.310  0.00  0.00    +0.000 A 
ATOM      9  C   UNL     1       3.402   3.338  19.356  0.00  0.00    +0.000 A 
ATOM     10  O   UNL     1       3.022   2.502  20.174  0.00  0.00    +0.000 OA
ATOM     11  N   UNL     1       4.279   2.997  18.348  0.00  0.00    +0.000 N 
ATOM     12  H   UNL     1       6.001   2.406  16.753  0.00  0.00    +0.000 HD
ATOM     13  H   UNL     1       4.574   2.040  18.356  0.00  0.00    +0.000 HD
ENDROOT
BRANCH   6  14
ATOM     14  C   UNL     1       1.540   8.219  20.137  0.00  0.00    +0.000 A 
ATOM     15  C   UNL     1       1.204   8.341  21.495  0.00  0.00    +0.000 A 
ATOM     16  C   UNL     1       0.593   9.496  21.993  0.00  0.00    +0.000 A 
ATOM     17  C   UNL     1       0.294  10.561  21.141  0.00  0.00    +0.000 A 
ATOM     18  C   UNL     1      -0.354  11.807  21.667  0.00  0.00    +0.000 C 
ATOM     19  C   UNL     1       0.610  10.449  19.784  0.00  0.00    +0.000 A 
ATOM     20  C   UNL     1       1.224   9.291  19.288  0.00  0.00    +0.000 A 
ENDBRANCH   6  14
BRANCH   1  21
ATOM     21  C   UNL     1       6.676   4.152  15.831  0.00  0.00    +0.000 C 
ATOM     22  C   UNL     1       7.177   5.246  16.784  0.00  0.00    +0.000 C 
BRANCH  21  23
ATOM     23  C   UNL     1       6.039   4.753  14.558  0.00  0.00    +0.000 C 
BRANCH  23  24
ATOM     24  C   UNL     1       6.014   3.779  13.379  0.00  0.00    +0.000 C 
BRANCH  24  25
ATOM     25  C   UNL     1       4.874   4.065  12.399  0.00  0.00    +0.000 C 
BRANCH  25  26
ATOM     26  C   UNL     1       4.746   2.908  11.403  0.00  0.00    +0.000 C 
BRANCH  26  28
ATOM     27  C   UNL     1       3.167   4.094   9.849  0.00  0.00    +0.000 C 
ATOM     28  C   UNL     1       3.377   2.874  10.732  0.00  0.00    +0.000 C 
ENDBRANCH  26  28
ENDBRANCH  25  26
ENDBRANCH  24  25
ENDBRANCH  23  24
ENDBRANCH  21  23
ENDBRANCH   1  21
TORSDOF 7
ENDMDL
MODEL 4
REMARK VINA RESULT:      -8.7      1.479      3.594
REMARK  Name = 
REMARK  10 active torsions:
REMARK  status: ('A' for Active; 'I' for Inactive)
REMARK    1  A    between atoms: C_1  and  C_2
REMARK    2  A    between atoms: C_2  and  C_3
REMARK    3  A    between atoms: C_3  and  C_4
REMARK    4  A    between atoms: C_4  and  C_5
REMARK    5  A    between atoms: C_5  and  C_6
REMARK    6  A    between atoms: C_6  and  C_7
REMARK    7  A    between atoms: C_7  and  C_8
REMARK    8  A    between atoms: C_7  and  N_9
REMARK    9  A    between atoms: C_14  and  C_15
REMARK   10  A    between atoms: C_18  and  C_19
REMARK                            x       y       z     vdW  Elec       q    Type
REMARK                         _______ _______ _______ _____ _____    ______ ____
ROOT
ATOM      1  N   UNL     1       5.192   3.744  16.527  0.00  0.00    +0.000 N 
ATOM      2  C   UNL     1       4.361   4.263  17.488  0.00  0.00    +0.000 A 
ATOM      3  N   UNL     1       3.952   5.504  17.463  0.00  0.00    +0.000 NA
ATOM      4  C   UNL     1       3.156   5.899  18.553  0.00  0.00    +0.000 A 
ATOM      5  C   UNL     1       2.643   7.207  18.737  0.00  0.00    +0.000 A 
ATOM      6  C   UNL     1       1.927   7.318  19.928  0.00  0.00    +0.000 A 
ATOM      7  S   UNL     1       1.912   5.804  20.777  0.00  0.00    +0.000 S 
ATOM      8  C   UNL     1       2.826   5.052  19.566  0.00  0.00    +0.000 A 
ATOM      9  C   UNL     1       3.247   3.693  19.588  0.00  0.00    +0.000 A 
ATOM     10  O   UNL     1       2.998   2.855  20.452  0.00  0.00    +0.000 OA
ATOM     11  N   UNL     1       4.022   3.374  18.493  0.00  0.00    +0.000 N 
ATOM     12  H   UNL     1       5.582   2.833  16.722  0.00  0.00    +0.000 HD
ATOM     13  H   UNL     1       4.358   2.432  18.478  0.00  0.00    +0.000 HD
ENDROOT
BRANCH   6  14
ATOM     14  C   UNL     1       1.266   8.501  20.516  0.00  0.00    +0.000 A 
ATOM     15  C   UNL     1       0.876   9.597  19.730  0.00  0.00    +0.000 A 
ATOM     16  C   UNL     1       0.227  10.702  20.291  0.00  0.00    +0.000 A 
ATOM     17  C   UNL     1      -0.045  10.741  21.660  0.00  0.00    +0.000 A 
ATOM     18  C   UNL     1      -0.747  11.917  22.270  0.00  0.00    +0.000 C 
ATOM     19  C   UNL     1       0.350   9.663  22.458  0.00  0.00    +0.000 A 
ATOM     20  C   UNL     1       0.998   8.557  21.892  0.00  0.00    +0.000 A 
ENDBRANCH   6  14
BRANCH   1  21
ATOM     21  C   UNL     1       6.072   4.591  15.712  0.00  0.00    +0.000 C 
ATOM     22  C   UNL     1       6.116   4.029  14.283  0.00  0.00    +0.000 C 
BRANCH  21  23
ATOM     23  C   UNL     1       7.477   4.625  16.353  0.00  0.00    +0.000 C 
BRANCH  23  24
ATOM     24  C   UNL     1       7.441   4.696  17.881  0.00  0.00    +0.000 C 
BRANCH  24  25
ATOM     25  C   UNL     1       7.570   6.125  18.411  0.00  0.00    +0.000 C 
BRANCH  25  26
ATOM     26  C   UNL     1       7.645   7.107  17.237  0.00  0.00    +0.000 C 
BRANCH  26  28
ATOM     27  C   UNL     1       8.561   9.189  18.309  0.00  0.00    +0.000 C 
ATOM     28  C   UNL     1       7.345   8.540  17.665  0.00  0.00    +0.000 C 
ENDBRANCH  26  28
ENDBRANCH  25  26
ENDBRANCH  24  25
ENDBRANCH  23  24
ENDBRANCH  21  23
ENDBRANCH   1  21
TORSDOF 7
ENDMDL
MODEL 5
REMARK VINA RESULT:      -8.4      0.625      1.036
REMARK  Name = 
REMARK  10 active torsions:
REMARK  status: ('A' for Active; 'I' for Inactive)
REMARK    1  A    between atoms: C_1  and  C_2
REMARK    2  A    between atoms: C_2  and  C_3
REMARK    3  A    between atoms: C_3  and  C_4
REMARK    4  A    between atoms: C_4  and  C_5
REMARK    5  A    between atoms: C_5  and  C_6
REMARK    6  A    between atoms: C_6  and  C_7
REMARK    7  A    between atoms: C_7  and  C_8
REMARK    8  A    between atoms: C_7  and  N_9
REMARK    9  A    between atoms: C_14  and  C_15
REMARK   10  A    between atoms: C_18  and  C_19
REMARK                            x       y       z     vdW  Elec       q    Type
REMARK                         _______ _______ _______ _____ _____    ______ ____
ROOT
ATOM      1  N   UNL     1       6.210   3.771  16.801  0.00  0.00    +0.000 N 
ATOM      2  C   UNL     1       5.200   4.205  17.623  0.00  0.00    +0.000 A 
ATOM      3  N   UNL     1       4.761   5.436  17.602  0.00  0.00    +0.000 NA
ATOM      4  C   UNL     1       3.766   5.738  18.549  0.00  0.00    +0.000 A 
ATOM      5  C   UNL     1       3.185   7.019  18.717  0.00  0.00    +0.000 A 
ATOM      6  C   UNL     1       2.260   7.033  19.759  0.00  0.00    +0.000 A 
ATOM      7  S   UNL     1       2.139   5.463  20.492  0.00  0.00    +0.000 S 
ATOM      8  C   UNL     1       3.284   4.816  19.426  0.00  0.00    +0.000 A 
ATOM      9  C   UNL     1       3.739   3.468  19.438  0.00  0.00    +0.000 A 
ATOM     10  O   UNL     1       3.363   2.567  20.185  0.00  0.00    +0.000 OA
ATOM     11  N   UNL     1       4.711   3.242  18.488  0.00  0.00    +0.000 N 
ATOM     12  H   UNL     1       6.588   2.856  17.007  0.00  0.00    +0.000 HD
ATOM     13  H   UNL     1       5.076   2.309  18.475  0.00  0.00    +0.000 HD
ENDROOT
BRANCH   6  14
ATOM     14  C   UNL     1       1.463   8.158  20.289  0.00  0.00    +0.000 A 
ATOM     15  C   UNL     1       1.129   9.266  19.495  0.00  0.00    +0.000 A 
ATOM     16  C   UNL     1       0.352  10.315  19.996  0.00  0.00    +0.000 A 
ATOM     17  C   UNL     1      -0.109  10.286  21.315  0.00  0.00    +0.000 A 
ATOM     18  C   UNL     1      -0.949  11.401  21.860  0.00  0.00    +0.000 C 
ATOM     19  C   UNL     1       0.227   9.195  22.122  0.00  0.00    +0.000 A 
ATOM     20  C   UNL     1       1.004   8.144  21.615  0.00  0.00    +0.000 A 
ENDBRANCH   6  14
BRANCH   1  21
ATOM     21  C   UNL     1       7.196   4.690  16.220  0.00  0.00    +0.000 C 
ATOM     22  C   UNL     1       7.341   5.909  17.141  0.00  0.00    +0.000 C 
BRANCH  21  23
ATOM     23  C   UNL     1       6.734   5.098  14.803  0.00  0.00    +0.000 C 
BRANCH  23  24
ATOM     24  C   UNL     1       5.873   4.035  14.120  0.00  0.00    +0.000 C 
BRANCH  24  25
ATOM     25  C   UNL     1       6.361   3.692  12.712  0.00  0.00    +0.000 C 
BRANCH  25  26
ATOM     26  C   UNL     1       5.345   2.776  12.020  0.00  0.00    +0.000 C 
BRANCH  26  28
ATOM     27  C   UNL     1       7.513   1.890  11.108  0.00  0.00    +0.000 C 
ATOM     28  C   UNL     1       6.019   1.644  11.253  0.00  0.00    +0.000 C 
ENDBRANCH  26  28
ENDBRANCH  25  26
ENDBRANCH  24  25
ENDBRANCH  23  24
ENDBRANCH  21  23
ENDBRANCH   1  21
TORSDOF 7
ENDMDL
MODEL 6
REMARK VINA RESULT:      -8.1      3.380      5.002
REMARK  Name = 
REMARK  10 active torsions:
REMARK  status: ('A' for Active; 'I' for Inactive)
REMARK    1  A    between atoms: C_1  and  C_2
REMARK    2  A    between atoms: C_2  and  C_3
REMARK    3  A    between atoms: C_3  and  C_4
REMARK    4  A    between atoms: C_4  and  C_5
REMARK    5  A    between atoms: C_5  and  C_6
REMARK    6  A    between atoms: C_6  and  C_7
REMARK    7  A    between atoms: C_7  and  C_8
REMARK    8  A    between atoms: C_7  and  N_9
REMARK    9  A    between atoms: C_14  and  C_15
REMARK   10  A    between atoms: C_18  and  C_19
REMARK                            x       y       z     vdW  Elec       q    Type
REMARK                         _______ _______ _______ _____ _____    ______ ____
ROOT
ATOM      1  N   UNL     1       5.076   3.291  18.951  0.00  0.00    +0.000 N 
ATOM      2  C   UNL     1       4.588   4.548  18.697  0.00  0.00    +0.000 A 
ATOM      3  N   UNL     1       3.669   5.105  19.441  0.00  0.00    +0.000 NA
ATOM      4  C   UNL     1       3.230   6.370  19.012  0.00  0.00    +0.000 A 
ATOM      5  C   UNL     1       2.218   7.126  19.654  0.00  0.00    +0.000 A 
ATOM      6  C   UNL     1       1.960   8.319  18.982  0.00  0.00    +0.000 A 
ATOM      7  S   UNL     1       2.978   8.466  17.583  0.00  0.00    +0.000 S 
ATOM      8  C   UNL     1       3.726   6.981  17.903  0.00  0.00    +0.000 A 
ATOM      9  C   UNL     1       4.744   6.392  17.101  0.00  0.00    +0.000 A 
ATOM     10  O   UNL     1       5.255   6.866  16.089  0.00  0.00    +0.000 OA
ATOM     11  N   UNL     1       5.126   5.156  17.577  0.00  0.00    +0.000 N 
ATOM     12  H   UNL     1       5.657   2.886  18.230  0.00  0.00    +0.000 HD
ATOM     13  H   UNL     1       5.827   4.695  17.031  0.00  0.00    +0.000 HD
ENDROOT
BRANCH   6  14
ATOM     14  C   UNL     1       0.967   9.370  19.286  0.00  0.00    +0.000 A 
ATOM     15  C   UNL     1       0.272  10.047  18.272  0.00  0.00    +0.000 A 
ATOM     16  C   UNL     1      -0.685  11.022  18.570  0.00  0.00    +0.000 A 
ATOM     17  C   UNL     1      -0.969  11.351  19.898  0.00  0.00    +0.000 A 
ATOM     18  C   UNL     1      -1.999  12.389  20.228  0.00  0.00    +0.000 C 
ATOM     19  C   UNL     1      -0.275  10.694  20.918  0.00  0.00    +0.000 A 
ATOM     20  C   UNL     1       0.682   9.716  20.616  0.00  0.00    +0.000 A 
ENDBRANCH   6  14
BRANCH   1  21
ATOM     21  C   UNL     1       4.314   2.293  19.712  0.00  0.00    +0.000 C 
ATOM     22  C   UNL     1       5.290   1.467  20.563  0.00  0.00    +0.000 C 
BRANCH  21  23
ATOM     23  C   UNL     1       3.523   1.402  18.728  0.00  0.00    +0.000 C 
BRANCH  23  24
ATOM     24  C   UNL     1       2.390   2.146  18.019  0.00  0.00    +0.000 C 
BRANCH  24  25
ATOM     25  C   UNL     1       1.051   2.019  18.747  0.00  0.00    +0.000 C 
BRANCH  25  26
ATOM     26  C   UNL     1       0.882   3.184  19.727  0.00  0.00    +0.000 C 
BRANCH  26  28
ATOM     27  C   UNL     1       2.160   3.577  21.855  0.00  0.00    +0.000 C 
ATOM     28  C   UNL     1       1.078   2.751  21.177  0.00  0.00    +0.000 C 
ENDBRANCH  26  28
ENDBRANCH  25  26
ENDBRANCH  24  25
ENDBRANCH  23  24
ENDBRANCH  21  23
ENDBRANCH   1  21
TORSDOF 7
ENDMDL
MODEL 7
REMARK VINA RESULT:      -8.1      1.931      4.316
REMARK  Name = 
REMARK  10 active torsions:
REMARK  status: ('A' for Active; 'I' for Inactive)
REMARK    1  A    between atoms: C_1  and  C_2
REMARK    2  A    between atoms: C_2  and  C_3
REMARK    3  A    between atoms: C_3  and  C_4
REMARK    4  A    between atoms: C_4  and  C_5
REMARK    5  A    between atoms: C_5  and  C_6
REMARK    6  A    between atoms: C_6  and  C_7
REMARK    7  A    between atoms: C_7  and  C_8
REMARK    8  A    between atoms: C_7  and  N_9
REMARK    9  A    between atoms: C_14  and  C_15
REMARK   10  A    between atoms: C_18  and  C_19
REMARK                            x       y       z     vdW  Elec       q    Type
REMARK                         _______ _______ _______ _____ _____    ______ ____
ROOT
ATOM      1  N   UNL     1       4.879   4.581  16.564  0.00  0.00    +0.000 N 
ATOM      2  C   UNL     1       4.053   5.007  17.574  0.00  0.00    +0.000 A 
ATOM      3  N   UNL     1       3.589   6.228  17.631  0.00  0.00    +0.000 NA
ATOM      4  C   UNL     1       2.807   6.524  18.762  0.00  0.00    +0.000 A 
ATOM      5  C   UNL     1       2.242   7.794  19.033  0.00  0.00    +0.000 A 
ATOM      6  C   UNL     1       1.556   7.806  20.246  0.00  0.00    +0.000 A 
ATOM      7  S   UNL     1       1.631   6.247  21.007  0.00  0.00    +0.000 S 
ATOM      8  C   UNL     1       2.543   5.607  19.732  0.00  0.00    +0.000 A 
ATOM      9  C   UNL     1       3.024   4.269  19.665  0.00  0.00    +0.000 A 
ATOM     10  O   UNL     1       2.835   3.374  20.485  0.00  0.00    +0.000 OA
ATOM     11  N   UNL     1       3.781   4.048  18.534  0.00  0.00    +0.000 N 
ATOM     12  H   UNL     1       5.314   3.679  16.697  0.00  0.00    +0.000 HD
ATOM     13  H   UNL     1       4.158   3.124  18.456  0.00  0.00    +0.000 HD
ENDROOT
BRANCH   6  14
ATOM     14  C   UNL     1       0.860   8.923  20.918  0.00  0.00    +0.000 A 
ATOM     15  C   UNL     1       0.841  10.216  20.374  0.00  0.00    +0.000 A 
ATOM     16  C   UNL     1       0.158  11.262  21.003  0.00  0.00    +0.000 A 
ATOM     17  C   UNL     1      -0.523  11.040  22.202  0.00  0.00    +0.000 A 
ATOM     18  C   UNL     1      -1.265  12.152  22.881  0.00  0.00    +0.000 C 
ATOM     19  C   UNL     1      -0.502   9.760  22.763  0.00  0.00    +0.000 A 
ATOM     20  C   UNL     1       0.182   8.714  22.129  0.00  0.00    +0.000 A 
ENDBRANCH   6  14
BRANCH   1  21
ATOM     21  C   UNL     1       5.698   5.511  15.777  0.00  0.00    +0.000 C 
ATOM     22  C   UNL     1       6.068   4.842  14.446  0.00  0.00    +0.000 C 
BRANCH  21  23
ATOM     23  C   UNL     1       6.955   5.892  16.591  0.00  0.00    +0.000 C 
BRANCH  23  24
ATOM     24  C   UNL     1       6.773   7.162  17.424  0.00  0.00    +0.000 C 
BRANCH  24  25
ATOM     25  C   UNL     1       8.096   7.865  17.730  0.00  0.00    +0.000 C 
BRANCH  25  26
ATOM     26  C   UNL     1       7.891   9.383  17.718  0.00  0.00    +0.000 C 
BRANCH  26  28
ATOM     27  C   UNL     1       9.273  10.266  19.623  0.00  0.00    +0.000 C 
ATOM     28  C   UNL     1       9.156  10.139  18.112  0.00  0.00    +0.000 C 
ENDBRANCH  26  28
ENDBRANCH  25  26
ENDBRANCH  24  25
ENDBRANCH  23  24
ENDBRANCH  21  23
ENDBRANCH   1  21
TORSDOF 7
ENDMDL
MODEL 8
REMARK VINA RESULT:      -8.0      2.135      4.219
REMARK  Name = 
REMARK  10 active torsions:
REMARK  status: ('A' for Active; 'I' for Inactive)
REMARK    1  A    between atoms: C_1  and  C_2
REMARK    2  A    between atoms: C_2  and  C_3
REMARK    3  A    between atoms: C_3  and  C_4
REMARK    4  A    between atoms: C_4  and  C_5
REMARK    5  A    between atoms: C_5  and  C_6
REMARK    6  A    between atoms: C_6  and  C_7
REMARK    7  A    between atoms: C_7  and  C_8
REMARK    8  A    between atoms: C_7  and  N_9
REMARK    9  A    between atoms: C_14  and  C_15
REMARK   10  A    between atoms: C_18  and  C_19
REMARK                            x       y       z     vdW  Elec       q    Type
REMARK                         _______ _______ _______ _____ _____    ______ ____
ROOT
ATOM      1  N   UNL     1       4.964   4.181  17.636  0.00  0.00    +0.000 N 
ATOM      2  C   UNL     1       4.056   4.974  18.292  0.00  0.00    +0.000 A 
ATOM      3  N   UNL     1       3.704   6.150  17.846  0.00  0.00    +0.000 NA
ATOM      4  C   UNL     1       2.811   6.864  18.667  0.00  0.00    +0.000 A 
ATOM      5  C   UNL     1       2.335   8.168  18.386  0.00  0.00    +0.000 A 
ATOM      6  C   UNL     1       1.501   8.642  19.396  0.00  0.00    +0.000 A 
ATOM      7  S   UNL     1       1.333   7.460  20.656  0.00  0.00    +0.000 S 
ATOM      8  C   UNL     1       2.340   6.368  19.843  0.00  0.00    +0.000 A 
ATOM      9  C   UNL     1       2.701   5.078  20.323  0.00  0.00    +0.000 A 
ATOM     10  O   UNL     1       2.325   4.546  21.366  0.00  0.00    +0.000 OA
ATOM     11  N   UNL     1       3.575   4.436  19.473  0.00  0.00    +0.000 N 
ATOM     12  H   UNL     1       5.294   3.370  18.141  0.00  0.00    +0.000 HD
ATOM     13  H   UNL     1       3.872   3.532  19.783  0.00  0.00    +0.000 HD
ENDROOT
BRANCH   6  14
ATOM     14  C   UNL     1       0.829   9.952  19.518  0.00  0.00    +0.000 A 
ATOM     15  C   UNL     1       1.218  11.058  18.746  0.00  0.00    +0.000 A 
ATOM     16  C   UNL     1       0.559  12.287  18.849  0.00  0.00    +0.000 A 
ATOM     17  C   UNL     1      -0.508  12.445  19.737  0.00  0.00    +0.000 A 
ATOM     18  C   UNL     1      -1.225  13.756  19.849  0.00  0.00    +0.000 C 
ATOM     19  C   UNL     1      -0.898  11.356  20.522  0.00  0.00    +0.000 A 
ATOM     20  C   UNL     1      -0.237  10.125  20.415  0.00  0.00    +0.000 A 
ENDBRANCH   6  14
BRANCH   1  21
ATOM     21  C   UNL     1       5.961   4.733  16.710  0.00  0.00    +0.000 C 
ATOM     22  C   UNL     1       5.788   4.064  15.339  0.00  0.00    +0.000 C 
BRANCH  21  23
ATOM     23  C   UNL     1       7.374   4.493  17.286  0.00  0.00    +0.000 C 
BRANCH  23  24
ATOM     24  C   UNL     1       7.777   5.522  18.343  0.00  0.00    +0.000 C 
BRANCH  24  25
ATOM     25  C   UNL     1       7.114   6.884  18.128  0.00  0.00    +0.000 C 
BRANCH  25  26
ATOM     26  C   UNL     1       8.068   7.810  17.369  0.00  0.00    +0.000 C 
BRANCH  26  28
ATOM     27  C   UNL     1       8.970   9.584  18.905  0.00  0.00    +0.000 C 
ATOM     28  C   UNL     1       7.948   9.261  17.825  0.00  0.00    +0.000 C 
ENDBRANCH  26  28
ENDBRANCH  25  26
ENDBRANCH  24  25
ENDBRANCH  23  24
ENDBRANCH  21  23
ENDBRANCH   1  21
TORSDOF 7
ENDMDL
MODEL 9
REMARK VINA RESULT:      -7.9      3.270      5.689
REMARK  Name = 
REMARK  10 active torsions:
REMARK  status: ('A' for Active; 'I' for Inactive)
REMARK    1  A    between atoms: C_1  and  C_2
REMARK    2  A    between atoms: C_2  and  C_3
REMARK    3  A    between atoms: C_3  and  C_4
REMARK    4  A    between atoms: C_4  and  C_5
REMARK    5  A    between atoms: C_5  and  C_6
REMARK    6  A    between atoms: C_6  and  C_7
REMARK    7  A    between atoms: C_7  and  C_8
REMARK    8  A    between atoms: C_7  and  N_9
REMARK    9  A    between atoms: C_14  and  C_15
REMARK   10  A    between atoms: C_18  and  C_19
REMARK                            x       y       z     vdW  Elec       q    Type
REMARK                         _______ _______ _______ _____ _____    ______ ____
ROOT
ATOM      1  N   UNL     1       2.247   5.416  19.859  0.00  0.00    +0.000 N 
ATOM      2  C   UNL     1       1.911   6.746  19.909  0.00  0.00    +0.000 A 
ATOM      3  N   UNL     1       1.316   7.279  20.942  0.00  0.00    +0.000 NA
ATOM      4  C   UNL     1       0.983   8.639  20.811  0.00  0.00    +0.000 A 
ATOM      5  C   UNL     1       0.303   9.395  21.798  0.00  0.00    +0.000 A 
ATOM      6  C   UNL     1       0.068  10.702  21.377  0.00  0.00    +0.000 A 
ATOM      7  S   UNL     1       0.697  10.952  19.778  0.00  0.00    +0.000 S 
ATOM      8  C   UNL     1       1.262   9.359  19.691  0.00  0.00    +0.000 A 
ATOM      9  C   UNL     1       1.931   8.791  18.571  0.00  0.00    +0.000 A 
ATOM     10  O   UNL     1       2.229   9.359  17.522  0.00  0.00    +0.000 OA
ATOM     11  N   UNL     1       2.227   7.459  18.766  0.00  0.00    +0.000 N 
ATOM     12  H   UNL     1       2.550   5.068  18.960  0.00  0.00    +0.000 HD
ATOM     13  H   UNL     1       2.681   7.013  17.992  0.00  0.00    +0.000 HD
ENDROOT
BRANCH   6  14
ATOM     14  C   UNL     1      -0.636  11.799  22.074  0.00  0.00    +0.000 A 
ATOM     15  C   UNL     1      -1.789  11.568  22.839  0.00  0.00    +0.000 A 
ATOM     16  C   UNL     1      -2.434  12.608  23.517  0.00  0.00    +0.000 A 
ATOM     17  C   UNL     1      -1.943  13.913  23.441  0.00  0.00    +0.000 A 
ATOM     18  C   UNL     1      -2.622  15.033  24.170  0.00  0.00    +0.000 C 
ATOM     19  C   UNL     1      -0.802  14.160  22.671  0.00  0.00    +0.000 A 
ATOM     20  C   UNL     1      -0.157  13.116  21.995  0.00  0.00    +0.000 A 
ENDBRANCH   6  14
BRANCH   1  21
ATOM     21  C   UNL     1       1.564   4.405  20.675  0.00  0.00    +0.000 C 
ATOM     22  C   UNL     1       2.596   3.718  21.581  0.00  0.00    +0.000 C 
BRANCH  21  23
ATOM     23  C   UNL     1       0.863   3.392  19.743  0.00  0.00    +0.000 C 
BRANCH  23  24
ATOM     24  C   UNL     1       1.768   2.233  19.322  0.00  0.00    +0.000 C 
BRANCH  24  25
ATOM     25  C   UNL     1       2.256   2.356  17.877  0.00  0.00    +0.000 C 
BRANCH  25  26
ATOM     26  C   UNL     1       3.746   2.713  17.862  0.00  0.00    +0.000 C 
BRANCH  26  28
ATOM     27  C   UNL     1       5.171   3.866  16.143  0.00  0.00    +0.000 C 
ATOM     28  C   UNL     1       4.018   4.019  17.124  0.00  0.00    +0.000 C 
ENDBRANCH  26  28
ENDBRANCH  25  26
ENDBRANCH  24  25
ENDBRANCH  23  24
ENDBRANCH  21  23
ENDBRANCH   1  21
TORSDOF 7
ENDMDL
