MODEL 1
REMARK VINA RESULT:      -8.2      0.000      0.000
REMARK  Name = 
REMARK  3 active torsions:
REMARK  status: ('A' for Active; 'I' for Inactive)
REMARK    1  A    between atoms: C_2  and  C_3
REMARK    2  A    between atoms: C_6  and  C_7
REMARK    3  A    between atoms: C_17  and  C_18
REMARK                            x       y       z     vdW  Elec       q    Type
REMARK                         _______ _______ _______ _____ _____    ______ ____
ROOT
ATOM      1  O   UNL     1       2.446  11.758  18.092  0.00  0.00    +0.000 OA
ATOM      2  C   UNL     1       1.482  11.100  18.455  0.00  0.00    +0.000 C 
ATOM      3  N   UNL     1       0.208  11.595  18.583  0.00  0.00    +0.000 N 
ATOM      4  C   UNL     1      -0.289  12.913  18.202  0.00  0.00    +0.000 C 
ATOM      5  C   UNL     1      -1.705  12.326  18.430  0.00  0.00    +0.000 C 
ATOM      6  C   UNL     1      -1.042  10.955  18.155  0.00  0.00    +0.000 C 
ENDROOT
BRANCH   5   7
ATOM      7  C   UNL     1      -2.282  12.397  19.846  0.00  0.00    +0.000 A 
ATOM      8  N   UNL     1      -3.510  12.815  20.066  0.00  0.00    +0.000 NA
ATOM      9  C   UNL     1      -3.706  12.696  21.417  0.00  0.00    +0.000 A 
ATOM     10  C   UNL     1      -4.845  12.992  22.177  0.00  0.00    +0.000 A 
ATOM     11  C   UNL     1      -4.791  12.821  23.565  0.00  0.00    +0.000 A 
ATOM     12  C   UNL     1      -3.625  12.357  24.179  0.00  0.00    +0.000 A 
ATOM     13  C   UNL     1      -2.484  12.029  23.432  0.00  0.00    +0.000 A 
ATOM     14  C   UNL     1      -2.565  12.210  22.048  0.00  0.00    +0.000 A 
ATOM     15  N   UNL     1      -1.680  11.996  21.019  0.00  0.00    +0.000 N 
ATOM     16  H   UNL     1      -0.750  11.607  21.104  0.00  0.00    +0.000 HD
ENDBRANCH   5   7
BRANCH   2  17
ATOM     17  C   UNL     1       1.638   9.674  18.841  0.00  0.00    +0.000 A 
ATOM     18  C   UNL     1       2.150   8.755  17.918  0.00  0.00    +0.000 A 
ATOM     19  C   UNL     1       2.351   7.427  18.287  0.00  0.00    +0.000 A 
ATOM     20  C   UNL     1       2.040   6.975  19.581  0.00  0.00    +0.000 A 
ATOM     21  C   UNL     1       1.489   7.912  20.480  0.00  0.00    +0.000 A 
ATOM     22  C   UNL     1       1.277   9.248  20.114  0.00  0.00    +0.000 A 
BRANCH  20  23
ATOM     23  C   UNL     1       2.280   5.566  19.969  0.00  0.00    +0.000 A 
ATOM     24  C   UNL     1       3.477   4.904  19.631  0.00  0.00    +0.000 A 
ATOM     25  C   UNL     1       3.698   3.569  19.977  0.00  0.00    +0.000 A 
ATOM     26  C   UNL     1       2.730   2.866  20.686  0.00  0.00    +0.000 A 
ATOM     27  C   UNL     1       1.541   3.496  21.040  0.00  0.00    +0.000 A 
ATOM     28  C   UNL     1       1.317   4.827  20.679  0.00  0.00    +0.000 A 
ENDBRANCH  20  23
ENDBRANCH   2  17
TORSDOF 3
ENDMDL
MODEL 2
REMARK VINA RESULT:      -8.0      2.768      4.385
REMARK  Name = 
REMARK  3 active torsions:
REMARK  status: ('A' for Active; 'I' for Inactive)
REMARK    1  A    between atoms: C_2  and  C_3
REMARK    2  A    between atoms: C_6  and  C_7
REMARK    3  A    between atoms: C_17  and  C_18
REMARK                            x       y       z     vdW  Elec       q    Type
REMARK                         _______ _______ _______ _____ _____    ______ ____
ROOT
ATOM      1  O   UNL     1       1.047   8.340  22.219  0.00  0.00    +0.000 OA
ATOM      2  C   UNL     1       1.140   8.725  21.064  0.00  0.00    +0.000 C 
ATOM      3  N   UNL     1       0.554   9.869  20.578  0.00  0.00    +0.000 N 
ATOM      4  C   UNL     1      -0.157  10.903  21.321  0.00  0.00    +0.000 C 
ATOM      5  C   UNL     1      -0.072  11.743  20.022  0.00  0.00    +0.000 C 
ATOM      6  C   UNL     1       1.158  10.866  19.686  0.00  0.00    +0.000 C 
ENDROOT
BRANCH   5   7
ATOM      7  C   UNL     1      -1.188  11.566  18.989  0.00  0.00    +0.000 A 
ATOM      8  N   UNL     1      -2.445  11.810  19.289  0.00  0.00    +0.000 NA
ATOM      9  C   UNL     1      -3.149  11.604  18.132  0.00  0.00    +0.000 A 
ATOM     10  C   UNL     1      -4.523  11.737  17.895  0.00  0.00    +0.000 A 
ATOM     11  C   UNL     1      -5.020  11.430  16.623  0.00  0.00    +0.000 A 
ATOM     12  C   UNL     1      -4.159  11.004  15.607  0.00  0.00    +0.000 A 
ATOM     13  C   UNL     1      -2.777  10.891  15.818  0.00  0.00    +0.000 A 
ATOM     14  C   UNL     1      -2.308  11.204  17.098  0.00  0.00    +0.000 A 
ATOM     15  N   UNL     1      -1.055  11.219  17.662  0.00  0.00    +0.000 N 
ATOM     16  H   UNL     1      -0.186  11.016  17.188  0.00  0.00    +0.000 HD
ENDBRANCH   5   7
BRANCH   2  17
ATOM     17  C   UNL     1       1.882   7.928  20.054  0.00  0.00    +0.000 A 
ATOM     18  C   UNL     1       2.169   8.484  18.802  0.00  0.00    +0.000 A 
ATOM     19  C   UNL     1       2.912   7.765  17.868  0.00  0.00    +0.000 A 
ATOM     20  C   UNL     1       3.381   6.471  18.151  0.00  0.00    +0.000 A 
ATOM     21  C   UNL     1       3.045   5.919  19.404  0.00  0.00    +0.000 A 
ATOM     22  C   UNL     1       2.292   6.632  20.346  0.00  0.00    +0.000 A 
BRANCH  20  23
ATOM     23  C   UNL     1       4.189   5.726  17.158  0.00  0.00    +0.000 A 
ATOM     24  C   UNL     1       4.901   6.391  16.140  0.00  0.00    +0.000 A 
ATOM     25  C   UNL     1       5.648   5.690  15.191  0.00  0.00    +0.000 A 
ATOM     26  C   UNL     1       5.713   4.303  15.245  0.00  0.00    +0.000 A 
ATOM     27  C   UNL     1       5.027   3.618  16.244  0.00  0.00    +0.000 A 
ATOM     28  C   UNL     1       4.269   4.322  17.184  0.00  0.00    +0.000 A 
ENDBRANCH  20  23
ENDBRANCH   2  17
TORSDOF 3
ENDMDL
MODEL 3
REMARK VINA RESULT:      -8.0      2.946      4.779
REMARK  Name = 
REMARK  3 active torsions:
REMARK  status: ('A' for Active; 'I' for Inactive)
REMARK    1  A    between atoms: C_2  and  C_3
REMARK    2  A    between atoms: C_6  and  C_7
REMARK    3  A    between atoms: C_17  and  C_18
REMARK                            x       y       z     vdW  Elec       q    Type
REMARK                         _______ _______ _______ _____ _____    ______ ____
ROOT
ATOM      1  O   UNL     1       1.052   7.757  21.922  0.00  0.00    +0.000 OA
ATOM      2  C   UNL     1       1.204   8.238  20.809  0.00  0.00    +0.000 C 
ATOM      3  N   UNL     1       0.572   9.371  20.359  0.00  0.00    +0.000 N 
ATOM      4  C   UNL     1      -0.273  10.290  21.113  0.00  0.00    +0.000 C 
ATOM      5  C   UNL     1      -0.152  11.234  19.890  0.00  0.00    +0.000 C 
ATOM      6  C   UNL     1       1.165  10.476  19.597  0.00  0.00    +0.000 C 
ENDROOT
BRANCH   5   7
ATOM      7  C   UNL     1      -1.166  11.058  18.756  0.00  0.00    +0.000 A 
ATOM      8  N   UNL     1      -2.355  11.620  18.807  0.00  0.00    +0.000 NA
ATOM      9  C   UNL     1      -2.965  11.303  17.622  0.00  0.00    +0.000 A 
ATOM     10  C   UNL     1      -4.238  11.660  17.157  0.00  0.00    +0.000 A 
ATOM     11  C   UNL     1      -4.659  11.178  15.912  0.00  0.00    +0.000 A 
ATOM     12  C   UNL     1      -3.822  10.362  15.145  0.00  0.00    +0.000 A 
ATOM     13  C   UNL     1      -2.535  10.017  15.582  0.00  0.00    +0.000 A 
ATOM     14  C   UNL     1      -2.140  10.512  16.829  0.00  0.00    +0.000 A 
ATOM     15  N   UNL     1      -0.983  10.396  17.562  0.00  0.00    +0.000 N 
ATOM     16  H   UNL     1      -0.142   9.914  17.276  0.00  0.00    +0.000 HD
ENDBRANCH   5   7
BRANCH   2  17
ATOM     17  C   UNL     1       2.084   7.577  19.810  0.00  0.00    +0.000 A 
ATOM     18  C   UNL     1       2.660   6.336  20.104  0.00  0.00    +0.000 A 
ATOM     19  C   UNL     1       3.441   5.682  19.154  0.00  0.00    +0.000 A 
ATOM     20  C   UNL     1       3.678   6.250  17.890  0.00  0.00    +0.000 A 
ATOM     21  C   UNL     1       3.119   7.519  17.634  0.00  0.00    +0.000 A 
ATOM     22  C   UNL     1       2.338   8.186  18.587  0.00  0.00    +0.000 A 
BRANCH  20  23
ATOM     23  C   UNL     1       4.492   5.535  16.880  0.00  0.00    +0.000 A 
ATOM     24  C   UNL     1       5.151   6.225  15.843  0.00  0.00    +0.000 A 
ATOM     25  C   UNL     1       5.902   5.551  14.877  0.00  0.00    +0.000 A 
ATOM     26  C   UNL     1       6.025   4.168  14.934  0.00  0.00    +0.000 A 
ATOM     27  C   UNL     1       5.393   3.460  15.951  0.00  0.00    +0.000 A 
ATOM     28  C   UNL     1       4.629   4.135  16.907  0.00  0.00    +0.000 A 
ENDBRANCH  20  23
ENDBRANCH   2  17
TORSDOF 3
ENDMDL
MODEL 4
REMARK VINA RESULT:      -7.9      0.151      1.126
REMARK  Name = 
REMARK  3 active torsions:
REMARK  status: ('A' for Active; 'I' for Inactive)
REMARK    1  A    between atoms: C_2  and  C_3
REMARK    2  A    between atoms: C_6  and  C_7
REMARK    3  A    between atoms: C_17  and  C_18
REMARK                            x       y       z     vdW  Elec       q    Type
REMARK                         _______ _______ _______ _____ _____    ______ ____
ROOT
ATOM      1  O   UNL     1       2.445  11.911  18.238  0.00  0.00    +0.000 OA
ATOM      2  C   UNL     1       1.472  11.231  18.525  0.00  0.00    +0.000 C 
ATOM      3  N   UNL     1       0.184  11.703  18.583  0.00  0.00    +0.000 N 
ATOM      4  C   UNL     1      -0.311  13.021  18.199  0.00  0.00    +0.000 C 
ATOM      5  C   UNL     1      -1.727  12.406  18.325  0.00  0.00    +0.000 C 
ATOM      6  C   UNL     1      -1.025  11.053  18.064  0.00  0.00    +0.000 C 
ENDROOT
BRANCH   5   7
ATOM      7  C   UNL     1      -2.393  12.437  19.703  0.00  0.00    +0.000 A 
ATOM      8  N   UNL     1      -1.744  12.069  20.786  0.00  0.00    +0.000 NA
ATOM      9  C   UNL     1      -2.612  12.275  21.827  0.00  0.00    +0.000 A 
ATOM     10  C   UNL     1      -2.421  12.058  23.197  0.00  0.00    +0.000 A 
ATOM     11  C   UNL     1      -3.483  12.311  24.074  0.00  0.00    +0.000 A 
ATOM     12  C   UNL     1      -4.708  12.776  23.590  0.00  0.00    +0.000 A 
ATOM     13  C   UNL     1      -4.910  13.025  22.224  0.00  0.00    +0.000 A 
ATOM     14  C   UNL     1      -3.833  12.764  21.372  0.00  0.00    +0.000 A 
ATOM     15  N   UNL     1      -3.657  12.890  20.014  0.00  0.00    +0.000 N 
ATOM     16  H   UNL     1      -4.333  13.256  19.357  0.00  0.00    +0.000 HD
ENDBRANCH   5   7
BRANCH   2  17
ATOM     17  C   UNL     1       1.628   9.800  18.891  0.00  0.00    +0.000 A 
ATOM     18  C   UNL     1       2.129   8.891  17.952  0.00  0.00    +0.000 A 
ATOM     19  C   UNL     1       2.330   7.558  18.301  0.00  0.00    +0.000 A 
ATOM     20  C   UNL     1       2.030   7.091  19.592  0.00  0.00    +0.000 A 
ATOM     21  C   UNL     1       1.491   8.017  20.509  0.00  0.00    +0.000 A 
ATOM     22  C   UNL     1       1.278   9.358  20.162  0.00  0.00    +0.000 A 
BRANCH  20  23
ATOM     23  C   UNL     1       2.271   5.676  19.960  0.00  0.00    +0.000 A 
ATOM     24  C   UNL     1       3.456   5.011  19.588  0.00  0.00    +0.000 A 
ATOM     25  C   UNL     1       3.676   3.671  19.916  0.00  0.00    +0.000 A 
ATOM     26  C   UNL     1       2.720   2.966  20.637  0.00  0.00    +0.000 A 
ATOM     27  C   UNL     1       1.543   3.598  21.025  0.00  0.00    +0.000 A 
ATOM     28  C   UNL     1       1.319   4.935  20.683  0.00  0.00    +0.000 A 
ENDBRANCH  20  23
ENDBRANCH   2  17
TORSDOF 3
ENDMDL
MODEL 5
REMARK VINA RESULT:      -7.8      0.649      1.164
REMARK  Name = 
REMARK  3 active torsions:
REMARK  status: ('A' for Active; 'I' for Inactive)
REMARK    1  A    between atoms: C_2  and  C_3
REMARK    2  A    between atoms: C_6  and  C_7
REMARK    3  A    between atoms: C_17  and  C_18
REMARK                            x       y       z     vdW  Elec       q    Type
REMARK                         _______ _______ _______ _____ _____    ______ ____
ROOT
ATOM      1  O   UNL     1       2.568  11.538  18.085  0.00  0.00    +0.000 OA
ATOM      2  C   UNL     1       1.585  10.906  18.440  0.00  0.00    +0.000 C 
ATOM      3  N   UNL     1       0.323  11.434  18.558  0.00  0.00    +0.000 N 
ATOM      4  C   UNL     1      -0.137  12.764  18.174  0.00  0.00    +0.000 C 
ATOM      5  C   UNL     1      -1.569  12.213  18.391  0.00  0.00    +0.000 C 
ATOM      6  C   UNL     1      -0.939  10.826  18.122  0.00  0.00    +0.000 C 
ENDROOT
BRANCH   5   7
ATOM      7  C   UNL     1      -2.155  12.300  19.803  0.00  0.00    +0.000 A 
ATOM      8  N   UNL     1      -3.377  12.738  20.012  0.00  0.00    +0.000 NA
ATOM      9  C   UNL     1      -3.585  12.628  21.362  0.00  0.00    +0.000 A 
ATOM     10  C   UNL     1      -4.724  12.946  22.113  0.00  0.00    +0.000 A 
ATOM     11  C   UNL     1      -4.682  12.781  23.502  0.00  0.00    +0.000 A 
ATOM     12  C   UNL     1      -3.527  12.302  24.127  0.00  0.00    +0.000 A 
ATOM     13  C   UNL     1      -2.386  11.954  23.390  0.00  0.00    +0.000 A 
ATOM     14  C   UNL     1      -2.455  12.128  22.004  0.00  0.00    +0.000 A 
ATOM     15  N   UNL     1      -1.566  11.896  20.982  0.00  0.00    +0.000 N 
ATOM     16  H   UNL     1      -0.643  11.494  21.075  0.00  0.00    +0.000 HD
ENDBRANCH   5   7
BRANCH   2  17
ATOM     17  C   UNL     1       1.702   9.477  18.829  0.00  0.00    +0.000 A 
ATOM     18  C   UNL     1       1.346   9.076  20.122  0.00  0.00    +0.000 A 
ATOM     19  C   UNL     1       1.399   7.731  20.479  0.00  0.00    +0.000 A 
ATOM     20  C   UNL     1       1.817   6.749  19.564  0.00  0.00    +0.000 A 
ATOM     21  C   UNL     1       2.206   7.184  18.280  0.00  0.00    +0.000 A 
ATOM     22  C   UNL     1       2.163   8.536  17.915  0.00  0.00    +0.000 A 
BRANCH  20  23
ATOM     23  C   UNL     1       1.847   5.320  19.949  0.00  0.00    +0.000 A 
ATOM     24  C   UNL     1       1.557   4.301  19.019  0.00  0.00    +0.000 A 
ATOM     25  C   UNL     1       1.565   2.953  19.384  0.00  0.00    +0.000 A 
ATOM     26  C   UNL     1       1.879   2.589  20.688  0.00  0.00    +0.000 A 
ATOM     27  C   UNL     1       2.176   3.571  21.627  0.00  0.00    +0.000 A 
ATOM     28  C   UNL     1       2.153   4.921  21.262  0.00  0.00    +0.000 A 
ENDBRANCH  20  23
ENDBRANCH   2  17
TORSDOF 3
ENDMDL
MODEL 6
REMARK VINA RESULT:      -7.8      2.794      4.525
REMARK  Name = 
REMARK  3 active torsions:
REMARK  status: ('A' for Active; 'I' for Inactive)
REMARK    1  A    between atoms: C_2  and  C_3
REMARK    2  A    between atoms: C_6  and  C_7
REMARK    3  A    between atoms: C_17  and  C_18
REMARK                            x       y       z     vdW  Elec       q    Type
REMARK                         _______ _______ _______ _____ _____    ______ ____
ROOT
ATOM      1  O   UNL     1       0.889   8.213  22.202  0.00  0.00    +0.000 OA
ATOM      2  C   UNL     1       1.031   8.654  21.071  0.00  0.00    +0.000 C 
ATOM      3  N   UNL     1       0.423   9.792  20.600  0.00  0.00    +0.000 N 
ATOM      4  C   UNL     1      -0.378  10.758  21.342  0.00  0.00    +0.000 C 
ATOM      5  C   UNL     1      -0.256  11.660  20.087  0.00  0.00    +0.000 C 
ATOM      6  C   UNL     1       1.031  10.854  19.791  0.00  0.00    +0.000 C 
ENDROOT
BRANCH   5   7
ATOM      7  C   UNL     1      -1.300  11.480  18.981  0.00  0.00    +0.000 A 
ATOM      8  N   UNL     1      -2.563  11.789  19.175  0.00  0.00    +0.000 NA
ATOM      9  C   UNL     1      -3.189  11.558  17.978  0.00  0.00    +0.000 A 
ATOM     10  C   UNL     1      -4.535  11.736  17.631  0.00  0.00    +0.000 A 
ATOM     11  C   UNL     1      -4.949  11.391  16.339  0.00  0.00    +0.000 A 
ATOM     12  C   UNL     1      -4.035  10.884  15.411  0.00  0.00    +0.000 A 
ATOM     13  C   UNL     1      -2.678  10.725  15.731  0.00  0.00    +0.000 A 
ATOM     14  C   UNL     1      -2.292  11.077  17.028  0.00  0.00    +0.000 A 
ATOM     15  N   UNL     1      -1.085  11.067  17.685  0.00  0.00    +0.000 N 
ATOM     16  H   UNL     1      -0.192  10.807  17.287  0.00  0.00    +0.000 HD
ENDBRANCH   5   7
BRANCH   2  17
ATOM     17  C   UNL     1       1.869   7.937  20.076  0.00  0.00    +0.000 A 
ATOM     18  C   UNL     1       2.426   6.695  20.401  0.00  0.00    +0.000 A 
ATOM     19  C   UNL     1       3.167   5.989  19.457  0.00  0.00    +0.000 A 
ATOM     20  C   UNL     1       3.382   6.503  18.167  0.00  0.00    +0.000 A 
ATOM     21  C   UNL     1       2.843   7.774  17.877  0.00  0.00    +0.000 A 
ATOM     22  C   UNL     1       2.103   8.494  18.824  0.00  0.00    +0.000 A 
BRANCH  20  23
ATOM     23  C   UNL     1       4.153   5.733  17.164  0.00  0.00    +0.000 A 
ATOM     24  C   UNL     1       4.151   4.324  17.159  0.00  0.00    +0.000 A 
ATOM     25  C   UNL     1       4.893   3.594  16.226  0.00  0.00    +0.000 A 
ATOM     26  C   UNL     1       5.645   4.259  15.264  0.00  0.00    +0.000 A 
ATOM     27  C   UNL     1       5.660   5.650  15.239  0.00  0.00    +0.000 A 
ATOM     28  C   UNL     1       4.928   6.377  16.182  0.00  0.00    +0.000 A 
ENDBRANCH  20  23
ENDBRANCH   2  17
TORSDOF 3
ENDMDL
MODEL 7
REMARK VINA RESULT:      -7.7      2.695      4.413
REMARK  Name = 
REMARK  3 active torsions:
REMARK  status: ('A' for Active; 'I' for Inactive)
REMARK    1  A    between atoms: C_2  and  C_3
REMARK    2  A    between atoms: C_6  and  C_7
REMARK    3  A    between atoms: C_17  and  C_18
REMARK                            x       y       z     vdW  Elec       q    Type
REMARK                         _______ _______ _______ _____ _____    ______ ____
ROOT
ATOM      1  O   UNL     1       0.955   8.468  22.379  0.00  0.00    +0.000 OA
ATOM      2  C   UNL     1       1.036   8.864  21.226  0.00  0.00    +0.000 C 
ATOM      3  N   UNL     1       0.451  10.016  20.758  0.00  0.00    +0.000 N 
ATOM      4  C   UNL     1      -0.246  11.046  21.520  0.00  0.00    +0.000 C 
ATOM      5  C   UNL     1      -0.171  11.899  20.229  0.00  0.00    +0.000 C 
ATOM      6  C   UNL     1       1.050  11.019  19.870  0.00  0.00    +0.000 C 
ENDROOT
BRANCH   5   7
ATOM      7  C   UNL     1      -1.300  11.738  19.207  0.00  0.00    +0.000 A 
ATOM      8  N   UNL     1      -1.079  11.219  18.018  0.00  0.00    +0.000 NA
ATOM      9  C   UNL     1      -2.301  11.176  17.400  0.00  0.00    +0.000 A 
ATOM     10  C   UNL     1      -2.633  10.703  16.124  0.00  0.00    +0.000 A 
ATOM     11  C   UNL     1      -3.961  10.800  15.694  0.00  0.00    +0.000 A 
ATOM     12  C   UNL     1      -4.939  11.353  16.525  0.00  0.00    +0.000 A 
ATOM     13  C   UNL     1      -4.631  11.808  17.816  0.00  0.00    +0.000 A 
ATOM     14  C   UNL     1      -3.296  11.699  18.220  0.00  0.00    +0.000 A 
ATOM     15  N   UNL     1      -2.637  12.020  19.382  0.00  0.00    +0.000 N 
ATOM     16  H   UNL     1      -3.057  12.395  20.222  0.00  0.00    +0.000 HD
ENDBRANCH   5   7
BRANCH   2  17
ATOM     17  C   UNL     1       1.762   8.073  20.200  0.00  0.00    +0.000 A 
ATOM     18  C   UNL     1       2.051   8.645  18.955  0.00  0.00    +0.000 A 
ATOM     19  C   UNL     1       2.779   7.932  18.006  0.00  0.00    +0.000 A 
ATOM     20  C   UNL     1       3.232   6.627  18.266  0.00  0.00    +0.000 A 
ATOM     21  C   UNL     1       2.895   6.060  19.512  0.00  0.00    +0.000 A 
ATOM     22  C   UNL     1       2.156   6.768  20.469  0.00  0.00    +0.000 A 
BRANCH  20  23
ATOM     23  C   UNL     1       4.025   5.888  17.257  0.00  0.00    +0.000 A 
ATOM     24  C   UNL     1       4.096   4.480  17.265  0.00  0.00    +0.000 A 
ATOM     25  C   UNL     1       4.860   3.781  16.328  0.00  0.00    +0.000 A 
ATOM     26  C   UNL     1       5.561   4.473  15.348  0.00  0.00    +0.000 A 
ATOM     27  C   UNL     1       5.505   5.863  15.310  0.00  0.00    +0.000 A 
ATOM     28  C   UNL     1       4.751   6.561  16.258  0.00  0.00    +0.000 A 
ENDBRANCH  20  23
ENDBRANCH   2  17
TORSDOF 3
ENDMDL
MODEL 8
REMARK VINA RESULT:      -7.6      2.413      3.578
REMARK  Name = 
REMARK  3 active torsions:
REMARK  status: ('A' for Active; 'I' for Inactive)
REMARK    1  A    between atoms: C_2  and  C_3
REMARK    2  A    between atoms: C_6  and  C_7
REMARK    3  A    between atoms: C_17  and  C_18
REMARK                            x       y       z     vdW  Elec       q    Type
REMARK                         _______ _______ _______ _____ _____    ______ ____
ROOT
ATOM      1  O   UNL     1       1.441   9.665  22.624  0.00  0.00    +0.000 OA
ATOM      2  C   UNL     1       1.238   9.553  21.425  0.00  0.00    +0.000 C 
ATOM      3  N   UNL     1       0.727  10.547  20.627  0.00  0.00    +0.000 N 
ATOM      4  C   UNL     1       0.455  11.936  20.981  0.00  0.00    +0.000 C 
ATOM      5  C   UNL     1       0.276  12.176  19.461  0.00  0.00    +0.000 C 
ATOM      6  C   UNL     1       1.185  10.935  19.288  0.00  0.00    +0.000 C 
ENDROOT
BRANCH   5   7
ATOM      7  C   UNL     1      -1.114  11.941  18.865  0.00  0.00    +0.000 A 
ATOM      8  N   UNL     1      -2.205  12.137  19.574  0.00  0.00    +0.000 NA
ATOM      9  C   UNL     1      -3.250  11.889  18.723  0.00  0.00    +0.000 A 
ATOM     10  C   UNL     1      -4.628  11.963  18.965  0.00  0.00    +0.000 A 
ATOM     11  C   UNL     1      -5.511  11.622  17.934  0.00  0.00    +0.000 A 
ATOM     12  C   UNL     1      -5.028  11.221  16.686  0.00  0.00    +0.000 A 
ATOM     13  C   UNL     1      -3.652  11.167  16.416  0.00  0.00    +0.000 A 
ATOM     14  C   UNL     1      -2.792  11.513  17.463  0.00  0.00    +0.000 A 
ATOM     15  N   UNL     1      -1.424  11.586  17.571  0.00  0.00    +0.000 N 
ATOM     16  H   UNL     1      -0.758  11.414  16.829  0.00  0.00    +0.000 HD
ENDBRANCH   5   7
BRANCH   2  17
ATOM     17  C   UNL     1       1.497   8.267  20.728  0.00  0.00    +0.000 A 
ATOM     18  C   UNL     1       2.091   8.269  19.461  0.00  0.00    +0.000 A 
ATOM     19  C   UNL     1       2.389   7.067  18.822  0.00  0.00    +0.000 A 
ATOM     20  C   UNL     1       2.094   5.831  19.423  0.00  0.00    +0.000 A 
ATOM     21  C   UNL     1       1.461   5.857  20.682  0.00  0.00    +0.000 A 
ATOM     22  C   UNL     1       1.152   7.061  21.328  0.00  0.00    +0.000 A 
BRANCH  20  23
ATOM     23  C   UNL     1       2.436   4.560  18.744  0.00  0.00    +0.000 A 
ATOM     24  C   UNL     1       1.793   3.352  19.077  0.00  0.00    +0.000 A 
ATOM     25  C   UNL     1       2.128   2.148  18.453  0.00  0.00    +0.000 A 
ATOM     26  C   UNL     1       3.106   2.126  17.467  0.00  0.00    +0.000 A 
ATOM     27  C   UNL     1       3.754   3.304  17.111  0.00  0.00    +0.000 A 
ATOM     28  C   UNL     1       3.428   4.505  17.747  0.00  0.00    +0.000 A 
ENDBRANCH  20  23
ENDBRANCH   2  17
TORSDOF 3
ENDMDL
MODEL 9
REMARK VINA RESULT:      -7.5      0.680      1.627
REMARK  Name = 
REMARK  3 active torsions:
REMARK  status: ('A' for Active; 'I' for Inactive)
REMARK    1  A    between atoms: C_2  and  C_3
REMARK    2  A    between atoms: C_6  and  C_7
REMARK    3  A    between atoms: C_17  and  C_18
REMARK                            x       y       z     vdW  Elec       q    Type
REMARK                         _______ _______ _______ _____ _____    ______ ____
ROOT
ATOM      1  O   UNL     1       2.582  11.533  18.106  0.00  0.00    +0.000 OA
ATOM      2  C   UNL     1       1.589  10.893  18.418  0.00  0.00    +0.000 C 
ATOM      3  N   UNL     1       0.319  11.412  18.480  0.00  0.00    +0.000 N 
ATOM      4  C   UNL     1      -0.133  12.738  18.075  0.00  0.00    +0.000 C 
ATOM      5  C   UNL     1      -1.569  12.177  18.229  0.00  0.00    +0.000 C 
ATOM      6  C   UNL     1      -0.918  10.794  17.989  0.00  0.00    +0.000 C 
ENDROOT
BRANCH   5   7
ATOM      7  C   UNL     1      -2.217  12.260  19.614  0.00  0.00    +0.000 A 
ATOM      8  N   UNL     1      -1.564  11.902  20.698  0.00  0.00    +0.000 NA
ATOM      9  C   UNL     1      -2.413  12.156  21.743  0.00  0.00    +0.000 A 
ATOM     10  C   UNL     1      -2.211  11.968  23.117  0.00  0.00    +0.000 A 
ATOM     11  C   UNL     1      -3.255  12.270  23.999  0.00  0.00    +0.000 A 
ATOM     12  C   UNL     1      -4.474  12.755  23.518  0.00  0.00    +0.000 A 
ATOM     13  C   UNL     1      -4.686  12.975  22.149  0.00  0.00    +0.000 A 
ATOM     14  C   UNL     1      -3.627  12.665  21.291  0.00  0.00    +0.000 A 
ATOM     15  N   UNL     1      -3.464  12.753  19.928  0.00  0.00    +0.000 N 
ATOM     16  H   UNL     1      -4.138  13.120  19.270  0.00  0.00    +0.000 HD
ENDBRANCH   5   7
BRANCH   2  17
ATOM     17  C   UNL     1       1.699   9.465  18.812  0.00  0.00    +0.000 A 
ATOM     18  C   UNL     1       1.342   9.071  20.107  0.00  0.00    +0.000 A 
ATOM     19  C   UNL     1       1.389   7.727  20.469  0.00  0.00    +0.000 A 
ATOM     20  C   UNL     1       1.801   6.740  19.558  0.00  0.00    +0.000 A 
ATOM     21  C   UNL     1       2.192   7.168  18.272  0.00  0.00    +0.000 A 
ATOM     22  C   UNL     1       2.156   8.518  17.902  0.00  0.00    +0.000 A 
BRANCH  20  23
ATOM     23  C   UNL     1       1.825   5.312  19.948  0.00  0.00    +0.000 A 
ATOM     24  C   UNL     1       1.512   4.292  19.028  0.00  0.00    +0.000 A 
ATOM     25  C   UNL     1       1.513   2.945  19.399  0.00  0.00    +0.000 A 
ATOM     26  C   UNL     1       1.843   2.583  20.699  0.00  0.00    +0.000 A 
ATOM     27  C   UNL     1       2.164   3.568  21.629  0.00  0.00    +0.000 A 
ATOM     28  C   UNL     1       2.147   4.915  21.259  0.00  0.00    +0.000 A 
ENDBRANCH  20  23
ENDBRANCH   2  17
TORSDOF 3
ENDMDL
