MODEL 1
REMARK VINA RESULT:      -7.3      0.000      0.000
REMARK  Name = 
REMARK  5 active torsions:
REMARK  status: ('A' for Active; 'I' for Inactive)
REMARK    1  A    between atoms: C_2  and  O_3
REMARK    2  A    between atoms: C_2  and  C_22
REMARK    3  A    between atoms: O_3  and  C_4
REMARK    4  A    between atoms: C_12  and  N_13
REMARK    5  A    between atoms: C_16  and  N_17
REMARK                            x       y       z     vdW  Elec       q    Type
REMARK                         _______ _______ _______ _____ _____    ______ ____
ROOT
ATOM      1  C   UNL     1       4.067   5.137  17.116  0.00  0.00    +0.000 A 
ATOM      2  C   UNL     1       4.208   3.739  17.167  0.00  0.00    +0.000 A 
ATOM      3  C   UNL     1       3.679   3.017  18.227  0.00  0.00    +0.000 A 
ATOM      4  C   UNL     1       2.990   3.692  19.224  0.00  0.00    +0.000 A 
ATOM      5  C   UNL     1       2.797   5.084  19.149  0.00  0.00    +0.000 A 
ATOM      6  C   UNL     1       3.300   5.823  18.090  0.00  0.00    +0.000 A 
ATOM      7  C   UNL     1       2.951   7.262  18.003  0.00  0.00    +0.000 C 
ATOM      8  O   UNL     1       3.214   7.853  16.959  0.00  0.00    +0.000 OA
ATOM      9  C   UNL     1       2.221   7.946  19.167  0.00  0.00    +0.000 C 
ATOM     10  C   UNL     1       1.772   7.197  20.211  0.00  0.00    +0.000 C 
ATOM     11  C   UNL     1       2.050   5.717  20.232  0.00  0.00    +0.000 C 
ATOM     12  O   UNL     1       1.667   5.004  21.159  0.00  0.00    +0.000 OA
ENDROOT
BRANCH   9  13
ATOM     13  N   UNL     1       1.876   9.305  19.068  0.00  0.00    +0.000 N 
ATOM     14  C   UNL     1       2.110   9.996  17.799  0.00  0.00    +0.000 C 
ATOM     15  C   UNL     1       0.730   9.876  18.385  0.00  0.00    +0.000 C 
ENDBRANCH   9  13
BRANCH  10  16
ATOM     16  N   UNL     1       1.014   7.531  21.345  0.00  0.00    +0.000 N 
ATOM     17  C   UNL     1       1.211   8.823  22.000  0.00  0.00    +0.000 C 
ATOM     18  C   UNL     1      -0.098   8.464  21.358  0.00  0.00    +0.000 C 
ENDBRANCH  10  16
BRANCH   1  19
ATOM     19  O   UNL     1       4.672   5.844  16.042  0.00  0.00    +0.000 OA
BRANCH  19  21
ATOM     20  O   UNL     1       6.479   5.312  14.665  0.00  0.00    +0.000 OA
ATOM     21  C   UNL     1       6.042   5.690  15.748  0.00  0.00    +0.000 C 
BRANCH  21  22
ATOM     22  C   UNL     1       6.852   6.041  16.899  0.00  0.00    +0.000 A 
ATOM     23  C   UNL     1       7.239   7.283  17.367  0.00  0.00    +0.000 A 
ATOM     24  C   UNL     1       7.993   7.199  18.577  0.00  0.00    +0.000 A 
ATOM     25  C   UNL     1       8.180   5.900  18.984  0.00  0.00    +0.000 A 
ATOM     26  S   UNL     1       7.455   4.787  17.905  0.00  0.00    +0.000 S 
ENDBRANCH  21  22
ENDBRANCH  19  21
ENDBRANCH   1  19
TORSDOF 5
ENDMDL
MODEL 2
REMARK VINA RESULT:      -6.9      3.373      7.438
REMARK  Name = 
REMARK  5 active torsions:
REMARK  status: ('A' for Active; 'I' for Inactive)
REMARK    1  A    between atoms: C_2  and  O_3
REMARK    2  A    between atoms: C_2  and  C_22
REMARK    3  A    between atoms: O_3  and  C_4
REMARK    4  A    between atoms: C_12  and  N_13
REMARK    5  A    between atoms: C_16  and  N_17
REMARK                            x       y       z     vdW  Elec       q    Type
REMARK                         _______ _______ _______ _____ _____    ______ ____
ROOT
ATOM      1  C   UNL     1       1.121   8.849  19.872  0.00  0.00    +0.000 A 
ATOM      2  C   UNL     1       1.015   9.960  19.017  0.00  0.00    +0.000 A 
ATOM      3  C   UNL     1       1.758  10.019  17.846  0.00  0.00    +0.000 A 
ATOM      4  C   UNL     1       2.588   8.958  17.521  0.00  0.00    +0.000 A 
ATOM      5  C   UNL     1       2.655   7.818  18.345  0.00  0.00    +0.000 A 
ATOM      6  C   UNL     1       1.909   7.729  19.509  0.00  0.00    +0.000 A 
ATOM      7  C   UNL     1       1.924   6.451  20.263  0.00  0.00    +0.000 C 
ATOM      8  O   UNL     1       1.099   6.306  21.162  0.00  0.00    +0.000 OA
ATOM      9  C   UNL     1       2.901   5.337  19.865  0.00  0.00    +0.000 C 
ATOM     10  C   UNL     1       3.649   5.472  18.734  0.00  0.00    +0.000 C 
ATOM     11  C   UNL     1       3.544   6.739  17.926  0.00  0.00    +0.000 C 
ATOM     12  O   UNL     1       4.205   6.904  16.901  0.00  0.00    +0.000 OA
ENDROOT
BRANCH   9  13
ATOM     13  N   UNL     1       2.896   4.122  20.570  0.00  0.00    +0.000 N 
ATOM     14  C   UNL     1       1.629   3.641  21.124  0.00  0.00    +0.000 C 
ATOM     15  C   UNL     1       2.400   2.838  20.112  0.00  0.00    +0.000 C 
ENDBRANCH   9  13
BRANCH  10  16
ATOM     16  N   UNL     1       4.540   4.598  18.092  0.00  0.00    +0.000 N 
ATOM     17  C   UNL     1       5.968   4.911  18.053  0.00  0.00    +0.000 C 
ATOM     18  C   UNL     1       5.455   3.695  18.769  0.00  0.00    +0.000 C 
ENDBRANCH  10  16
BRANCH   1  19
ATOM     19  O   UNL     1       0.386   8.854  21.088  0.00  0.00    +0.000 OA
BRANCH  19  21
ATOM     20  O   UNL     1       1.796   9.554  22.811  0.00  0.00    +0.000 OA
ATOM     21  C   UNL     1       0.761   9.684  22.164  0.00  0.00    +0.000 C 
BRANCH  21  22
ATOM     22  C   UNL     1      -0.243  10.706  22.391  0.00  0.00    +0.000 A 
ATOM     23  C   UNL     1      -1.376  10.678  23.182  0.00  0.00    +0.000 A 
ATOM     24  C   UNL     1      -2.076  11.923  23.178  0.00  0.00    +0.000 A 
ATOM     25  C   UNL     1      -1.473  12.855  22.368  0.00  0.00    +0.000 A 
ATOM     26  S   UNL     1      -0.074  12.227  21.611  0.00  0.00    +0.000 S 
ENDBRANCH  21  22
ENDBRANCH  19  21
ENDBRANCH   1  19
TORSDOF 5
ENDMDL
MODEL 3
REMARK VINA RESULT:      -6.9      3.316      7.280
REMARK  Name = 
REMARK  5 active torsions:
REMARK  status: ('A' for Active; 'I' for Inactive)
REMARK    1  A    between atoms: C_2  and  O_3
REMARK    2  A    between atoms: C_2  and  C_22
REMARK    3  A    between atoms: O_3  and  C_4
REMARK    4  A    between atoms: C_12  and  N_13
REMARK    5  A    between atoms: C_16  and  N_17
REMARK                            x       y       z     vdW  Elec       q    Type
REMARK                         _______ _______ _______ _____ _____    ______ ____
ROOT
ATOM      1  C   UNL     1       1.469   8.328  19.858  0.00  0.00    +0.000 A 
ATOM      2  C   UNL     1       1.546   9.445  19.009  0.00  0.00    +0.000 A 
ATOM      3  C   UNL     1       2.305   9.395  17.848  0.00  0.00    +0.000 A 
ATOM      4  C   UNL     1       2.969   8.221  17.529  0.00  0.00    +0.000 A 
ATOM      5  C   UNL     1       2.850   7.081  18.346  0.00  0.00    +0.000 A 
ATOM      6  C   UNL     1       2.082   7.102  19.500  0.00  0.00    +0.000 A 
ATOM      7  C   UNL     1       1.892   5.834  20.245  0.00  0.00    +0.000 C 
ATOM      8  O   UNL     1       1.042   5.813  21.132  0.00  0.00    +0.000 OA
ATOM      9  C   UNL     1       2.694   4.586  19.854  0.00  0.00    +0.000 C 
ATOM     10  C   UNL     1       3.469   4.610  18.735  0.00  0.00    +0.000 C 
ATOM     11  C   UNL     1       3.570   5.881  17.933  0.00  0.00    +0.000 C 
ATOM     12  O   UNL     1       4.264   5.948  16.918  0.00  0.00    +0.000 OA
ENDROOT
BRANCH   9  13
ATOM     13  N   UNL     1       2.493   3.383  20.552  0.00  0.00    +0.000 N 
ATOM     14  C   UNL     1       2.266   3.443  21.997  0.00  0.00    +0.000 C 
ATOM     15  C   UNL     1       1.241   2.859  21.064  0.00  0.00    +0.000 C 
ENDBRANCH   9  13
BRANCH  10  16
ATOM     16  N   UNL     1       4.227   3.613  18.100  0.00  0.00    +0.000 N 
ATOM     17  C   UNL     1       4.357   2.293  18.713  0.00  0.00    +0.000 C 
ATOM     18  C   UNL     1       3.675   2.474  17.388  0.00  0.00    +0.000 C 
ENDBRANCH  10  16
BRANCH   1  19
ATOM     19  O   UNL     1       0.726   8.440  21.064  0.00  0.00    +0.000 OA
BRANCH  19  21
ATOM     20  O   UNL     1       2.160   9.346  22.666  0.00  0.00    +0.000 OA
ATOM     21  C   UNL     1       1.091   9.364  22.063  0.00  0.00    +0.000 C 
BRANCH  21  22
ATOM     22  C   UNL     1       0.031  10.333  22.272  0.00  0.00    +0.000 A 
ATOM     23  C   UNL     1      -1.011  10.328  23.180  0.00  0.00    +0.000 A 
ATOM     24  C   UNL     1      -1.810  11.508  23.100  0.00  0.00    +0.000 A 
ATOM     25  C   UNL     1      -1.373  12.367  22.119  0.00  0.00    +0.000 A 
ATOM     26  S   UNL     1      -0.008  11.746  21.297  0.00  0.00    +0.000 S 
ENDBRANCH  21  22
ENDBRANCH  19  21
ENDBRANCH   1  19
TORSDOF 5
ENDMDL
MODEL 4
REMARK VINA RESULT:      -6.9      1.789      2.632
REMARK  Name = 
REMARK  5 active torsions:
REMARK  status: ('A' for Active; 'I' for Inactive)
REMARK    1  A    between atoms: C_2  and  O_3
REMARK    2  A    between atoms: C_2  and  C_22
REMARK    3  A    between atoms: O_3  and  C_4
REMARK    4  A    between atoms: C_12  and  N_13
REMARK    5  A    between atoms: C_16  and  N_17
REMARK                            x       y       z     vdW  Elec       q    Type
REMARK                         _______ _______ _______ _____ _____    ______ ____
ROOT
ATOM      1  C   UNL     1       2.731   6.482  18.664  0.00  0.00    +0.000 A 
ATOM      2  C   UNL     1       2.608   5.245  19.320  0.00  0.00    +0.000 A 
ATOM      3  C   UNL     1       1.993   5.165  20.561  0.00  0.00    +0.000 A 
ATOM      4  C   UNL     1       1.483   6.319  21.135  0.00  0.00    +0.000 A 
ATOM      5  C   UNL     1       1.552   7.552  20.458  0.00  0.00    +0.000 A 
ATOM      6  C   UNL     1       2.145   7.652  19.209  0.00  0.00    +0.000 A 
ATOM      7  C   UNL     1       2.070   8.949  18.493  0.00  0.00    +0.000 C 
ATOM      8  O   UNL     1       2.399   8.970  17.310  0.00  0.00    +0.000 OA
ATOM      9  C   UNL     1       1.528  10.191  19.211  0.00  0.00    +0.000 C 
ATOM     10  C   UNL     1       0.986  10.065  20.455  0.00  0.00    +0.000 C 
ATOM     11  C   UNL     1       0.981   8.717  21.125  0.00  0.00    +0.000 C 
ATOM     12  O   UNL     1       0.507   8.560  22.250  0.00  0.00    +0.000 OA
ENDROOT
BRANCH   9  13
ATOM     13  N   UNL     1       1.441  11.411  18.520  0.00  0.00    +0.000 N 
ATOM     14  C   UNL     1       1.913  12.627  19.184  0.00  0.00    +0.000 C 
ATOM     15  C   UNL     1       2.522  12.150  17.894  0.00  0.00    +0.000 C 
ENDBRANCH   9  13
BRANCH  10  16
ATOM     16  N   UNL     1       0.349  10.991  21.296  0.00  0.00    +0.000 N 
ATOM     17  C   UNL     1      -0.970  11.513  20.941  0.00  0.00    +0.000 C 
ATOM     18  C   UNL     1      -0.764  10.688  22.178  0.00  0.00    +0.000 C 
ENDBRANCH  10  16
BRANCH   1  19
ATOM     19  O   UNL     1       3.416   6.529  17.420  0.00  0.00    +0.000 OA
BRANCH  19  21
ATOM     20  O   UNL     1       4.210   4.526  16.523  0.00  0.00    +0.000 OA
ATOM     21  C   UNL     1       4.416   5.588  17.103  0.00  0.00    +0.000 C 
BRANCH  21  22
ATOM     22  C   UNL     1       5.714   6.052  17.557  0.00  0.00    +0.000 A 
ATOM     23  C   UNL     1       6.494   7.097  17.098  0.00  0.00    +0.000 A 
ATOM     24  C   UNL     1       7.689   7.262  17.862  0.00  0.00    +0.000 A 
ATOM     25  C   UNL     1       7.800   6.327  18.863  0.00  0.00    +0.000 A 
ATOM     26  S   UNL     1       6.470   5.251  18.875  0.00  0.00    +0.000 S 
ENDBRANCH  21  22
ENDBRANCH  19  21
ENDBRANCH   1  19
TORSDOF 5
ENDMDL
MODEL 5
REMARK VINA RESULT:      -6.8      6.004      8.567
REMARK  Name = 
REMARK  5 active torsions:
REMARK  status: ('A' for Active; 'I' for Inactive)
REMARK    1  A    between atoms: C_2  and  O_3
REMARK    2  A    between atoms: C_2  and  C_22
REMARK    3  A    between atoms: O_3  and  C_4
REMARK    4  A    between atoms: C_12  and  N_13
REMARK    5  A    between atoms: C_16  and  N_17
REMARK                            x       y       z     vdW  Elec       q    Type
REMARK                         _______ _______ _______ _____ _____    ______ ____
ROOT
ATOM      1  C   UNL     1      -1.818  10.645  18.348  0.00  0.00    +0.000 A 
ATOM      2  C   UNL     1      -1.694  10.059  17.076  0.00  0.00    +0.000 A 
ATOM      3  C   UNL     1      -2.725  10.158  16.153  0.00  0.00    +0.000 A 
ATOM      4  C   UNL     1      -3.869  10.863  16.494  0.00  0.00    +0.000 A 
ATOM      5  C   UNL     1      -3.975  11.501  17.744  0.00  0.00    +0.000 A 
ATOM      6  C   UNL     1      -2.951  11.431  18.675  0.00  0.00    +0.000 A 
ATOM      7  C   UNL     1      -3.070  12.231  19.919  0.00  0.00    +0.000 C 
ATOM      8  O   UNL     1      -2.074  12.336  20.630  0.00  0.00    +0.000 OA
ATOM      9  C   UNL     1      -4.385  12.952  20.244  0.00  0.00    +0.000 C 
ATOM     10  C   UNL     1      -5.387  12.970  19.322  0.00  0.00    +0.000 C 
ATOM     11  C   UNL     1      -5.207  12.234  18.021  0.00  0.00    +0.000 C 
ATOM     12  O   UNL     1      -6.089  12.220  17.163  0.00  0.00    +0.000 OA
ENDROOT
BRANCH   9  13
ATOM     13  N   UNL     1      -4.483  13.725  21.414  0.00  0.00    +0.000 N 
ATOM     14  C   UNL     1      -4.747  13.044  22.682  0.00  0.00    +0.000 C 
ATOM     15  C   UNL     1      -3.497  13.854  22.471  0.00  0.00    +0.000 C 
ENDBRANCH   9  13
BRANCH  10  16
ATOM     16  N   UNL     1      -6.636  13.610  19.311  0.00  0.00    +0.000 N 
ATOM     17  C   UNL     1      -7.747  13.057  20.084  0.00  0.00    +0.000 C 
ATOM     18  C   UNL     1      -7.174  14.408  20.399  0.00  0.00    +0.000 C 
ENDBRANCH  10  16
BRANCH   1  19
ATOM     19  O   UNL     1      -0.763  10.473  19.283  0.00  0.00    +0.000 OA
BRANCH  19  21
ATOM     20  O   UNL     1       1.091  11.728  18.625  0.00  0.00    +0.000 OA
ATOM     21  C   UNL     1       0.584  10.646  18.904  0.00  0.00    +0.000 C 
BRANCH  21  22
ATOM     22  C   UNL     1       1.277   9.372  18.894  0.00  0.00    +0.000 A 
ATOM     23  C   UNL     1       1.915   8.715  17.858  0.00  0.00    +0.000 A 
ATOM     24  C   UNL     1       2.531   7.498  18.280  0.00  0.00    +0.000 A 
ATOM     25  C   UNL     1       2.326   7.248  19.616  0.00  0.00    +0.000 A 
ATOM     26  S   UNL     1       1.388   8.474  20.354  0.00  0.00    +0.000 S 
ENDBRANCH  21  22
ENDBRANCH  19  21
ENDBRANCH   1  19
TORSDOF 5
ENDMDL
MODEL 6
REMARK VINA RESULT:      -6.8      2.833      5.025
REMARK  Name = 
REMARK  5 active torsions:
REMARK  status: ('A' for Active; 'I' for Inactive)
REMARK    1  A    between atoms: C_2  and  O_3
REMARK    2  A    between atoms: C_2  and  C_22
REMARK    3  A    between atoms: O_3  and  C_4
REMARK    4  A    between atoms: C_12  and  N_13
REMARK    5  A    between atoms: C_16  and  N_17
REMARK                            x       y       z     vdW  Elec       q    Type
REMARK                         _______ _______ _______ _____ _____    ______ ____
ROOT
ATOM      1  C   UNL     1       2.809   6.369  19.435  0.00  0.00    +0.000 A 
ATOM      2  C   UNL     1       3.802   6.075  18.485  0.00  0.00    +0.000 A 
ATOM      3  C   UNL     1       4.077   6.964  17.456  0.00  0.00    +0.000 A 
ATOM      4  C   UNL     1       3.372   8.156  17.391  0.00  0.00    +0.000 A 
ATOM      5  C   UNL     1       2.416   8.482  18.372  0.00  0.00    +0.000 A 
ATOM      6  C   UNL     1       2.139   7.617  19.419  0.00  0.00    +0.000 A 
ATOM      7  C   UNL     1       1.219   8.075  20.489  0.00  0.00    +0.000 C 
ATOM      8  O   UNL     1       1.151   7.400  21.513  0.00  0.00    +0.000 OA
ATOM      9  C   UNL     1       0.445   9.389  20.325  0.00  0.00    +0.000 C 
ATOM     10  C   UNL     1       0.714  10.199  19.263  0.00  0.00    +0.000 C 
ATOM     11  C   UNL     1       1.727   9.762  18.239  0.00  0.00    +0.000 C 
ATOM     12  O   UNL     1       1.996  10.460  17.262  0.00  0.00    +0.000 OA
ENDROOT
BRANCH   9  13
ATOM     13  N   UNL     1      -0.409   9.826  21.352  0.00  0.00    +0.000 N 
ATOM     14  C   UNL     1      -0.447   9.065  22.602  0.00  0.00    +0.000 C 
ATOM     15  C   UNL     1      -0.039  10.512  22.575  0.00  0.00    +0.000 C 
ENDBRANCH   9  13
BRANCH  10  16
ATOM     16  N   UNL     1       0.236  11.471  18.912  0.00  0.00    +0.000 N 
ATOM     17  C   UNL     1      -1.067  11.608  18.263  0.00  0.00    +0.000 C 
ATOM     18  C   UNL     1      -0.806  12.195  19.621  0.00  0.00    +0.000 C 
ENDBRANCH  10  16
BRANCH   1  19
ATOM     19  O   UNL     1       2.521   5.407  20.440  0.00  0.00    +0.000 OA
BRANCH  19  21
ATOM     20  O   UNL     1       0.481   4.291  20.641  0.00  0.00    +0.000 OA
ATOM     21  C   UNL     1       1.625   4.346  20.198  0.00  0.00    +0.000 C 
BRANCH  21  22
ATOM     22  C   UNL     1       2.243   3.339  19.356  0.00  0.00    +0.000 A 
ATOM     23  C   UNL     1       1.910   2.920  18.082  0.00  0.00    +0.000 A 
ATOM     24  C   UNL     1       2.815   1.938  17.576  0.00  0.00    +0.000 A 
ATOM     25  C   UNL     1       3.796   1.618  18.485  0.00  0.00    +0.000 A 
ATOM     26  S   UNL     1       3.619   2.495  19.943  0.00  0.00    +0.000 S 
ENDBRANCH  21  22
ENDBRANCH  19  21
ENDBRANCH   1  19
TORSDOF 5
ENDMDL
MODEL 7
REMARK VINA RESULT:      -6.7      6.926      9.247
REMARK  Name = 
REMARK  5 active torsions:
REMARK  status: ('A' for Active; 'I' for Inactive)
REMARK    1  A    between atoms: C_2  and  O_3
REMARK    2  A    between atoms: C_2  and  C_22
REMARK    3  A    between atoms: O_3  and  C_4
REMARK    4  A    between atoms: C_12  and  N_13
REMARK    5  A    between atoms: C_16  and  N_17
REMARK                            x       y       z     vdW  Elec       q    Type
REMARK                         _______ _______ _______ _____ _____    ______ ____
ROOT
ATOM      1  C   UNL     1      -1.866  11.589  18.451  0.00  0.00    +0.000 A 
ATOM      2  C   UNL     1      -1.695  10.850  17.268  0.00  0.00    +0.000 A 
ATOM      3  C   UNL     1      -2.785  10.263  16.642  0.00  0.00    +0.000 A 
ATOM      4  C   UNL     1      -4.047  10.434  17.189  0.00  0.00    +0.000 A 
ATOM      5  C   UNL     1      -4.232  11.221  18.341  0.00  0.00    +0.000 A 
ATOM      6  C   UNL     1      -3.161  11.832  18.973  0.00  0.00    +0.000 A 
ATOM      7  C   UNL     1      -3.437  12.752  20.103  0.00  0.00    +0.000 C 
ATOM      8  O   UNL     1      -2.514  13.452  20.511  0.00  0.00    +0.000 OA
ATOM      9  C   UNL     1      -4.855  12.856  20.678  0.00  0.00    +0.000 C 
ATOM     10  C   UNL     1      -5.881  12.212  20.056  0.00  0.00    +0.000 C 
ATOM     11  C   UNL     1      -5.595  11.362  18.846  0.00  0.00    +0.000 C 
ATOM     12  O   UNL     1      -6.491  10.758  18.257  0.00  0.00    +0.000 OA
ENDROOT
BRANCH   9  13
ATOM     13  N   UNL     1      -5.113  13.745  21.736  0.00  0.00    +0.000 N 
ATOM     14  C   UNL     1      -4.651  13.388  23.078  0.00  0.00    +0.000 C 
ATOM     15  C   UNL     1      -4.173  14.636  22.389  0.00  0.00    +0.000 C 
ENDBRANCH   9  13
BRANCH  10  16
ATOM     16  N   UNL     1      -7.264  12.200  20.300  0.00  0.00    +0.000 N 
ATOM     17  C   UNL     1      -7.830  11.240  21.246  0.00  0.00    +0.000 C 
ATOM     18  C   UNL     1      -7.903  12.718  21.496  0.00  0.00    +0.000 C 
ENDBRANCH  10  16
BRANCH   1  19
ATOM     19  O   UNL     1      -0.716  12.127  19.091  0.00  0.00    +0.000 OA
BRANCH  19  21
ATOM     20  O   UNL     1       1.360  11.074  18.929  0.00  0.00    +0.000 OA
ATOM     21  C   UNL     1       0.322  11.291  19.548  0.00  0.00    +0.000 C 
BRANCH  21  22
ATOM     22  C   UNL     1      -0.009  10.730  20.844  0.00  0.00    +0.000 A 
ATOM     23  C   UNL     1      -0.527  11.342  21.971  0.00  0.00    +0.000 A 
ATOM     24  C   UNL     1      -0.767  10.417  23.032  0.00  0.00    +0.000 A 
ATOM     25  C   UNL     1      -0.404   9.134  22.696  0.00  0.00    +0.000 A 
ATOM     26  S   UNL     1       0.229   9.050  21.109  0.00  0.00    +0.000 S 
ENDBRANCH  21  22
ENDBRANCH  19  21
ENDBRANCH   1  19
TORSDOF 5
ENDMDL
MODEL 8
REMARK VINA RESULT:      -6.7      3.284      6.754
REMARK  Name = 
REMARK  5 active torsions:
REMARK  status: ('A' for Active; 'I' for Inactive)
REMARK    1  A    between atoms: C_2  and  O_3
REMARK    2  A    between atoms: C_2  and  C_22
REMARK    3  A    between atoms: O_3  and  C_4
REMARK    4  A    between atoms: C_12  and  N_13
REMARK    5  A    between atoms: C_16  and  N_17
REMARK                            x       y       z     vdW  Elec       q    Type
REMARK                         _______ _______ _______ _____ _____    ______ ____
ROOT
ATOM      1  C   UNL     1       1.380   9.002  19.358  0.00  0.00    +0.000 A 
ATOM      2  C   UNL     1       0.745   9.340  20.565  0.00  0.00    +0.000 A 
ATOM      3  C   UNL     1       0.664   8.418  21.599  0.00  0.00    +0.000 A 
ATOM      4  C   UNL     1       1.237   7.168  21.432  0.00  0.00    +0.000 A 
ATOM      5  C   UNL     1       1.925   6.843  20.247  0.00  0.00    +0.000 A 
ATOM      6  C   UNL     1       2.034   7.754  19.209  0.00  0.00    +0.000 A 
ATOM      7  C   UNL     1       2.880   7.399  18.043  0.00  0.00    +0.000 C 
ATOM      8  O   UNL     1       3.148   8.287  17.238  0.00  0.00    +0.000 OA
ATOM      9  C   UNL     1       3.447   5.979  17.911  0.00  0.00    +0.000 C 
ATOM     10  C   UNL     1       3.289   5.095  18.935  0.00  0.00    +0.000 C 
ATOM     11  C   UNL     1       2.511   5.509  20.156  0.00  0.00    +0.000 C 
ATOM     12  O   UNL     1       2.340   4.740  21.101  0.00  0.00    +0.000 OA
ENDROOT
BRANCH   9  13
ATOM     13  N   UNL     1       4.265   5.656  16.815  0.00  0.00    +0.000 N 
ATOM     14  C   UNL     1       5.093   6.710  16.225  0.00  0.00    +0.000 C 
ATOM     15  C   UNL     1       5.703   5.467  16.812  0.00  0.00    +0.000 C 
ENDBRANCH   9  13
BRANCH  10  16
ATOM     16  N   UNL     1       3.766   3.788  19.124  0.00  0.00    +0.000 N 
ATOM     17  C   UNL     1       2.826   2.671  19.195  0.00  0.00    +0.000 C 
ATOM     18  C   UNL     1       3.839   2.770  18.091  0.00  0.00    +0.000 C 
ENDBRANCH  10  16
BRANCH   1  19
ATOM     19  O   UNL     1       1.392   9.955  18.304  0.00  0.00    +0.000 OA
BRANCH  19  21
ATOM     20  O   UNL     1       1.240  12.252  18.690  0.00  0.00    +0.000 OA
ATOM     21  C   UNL     1       0.705  11.180  18.422  0.00  0.00    +0.000 C 
BRANCH  21  22
ATOM     22  C   UNL     1      -0.713  10.993  18.179  0.00  0.00    +0.000 A 
ATOM     23  C   UNL     1      -1.369  10.017  17.451  0.00  0.00    +0.000 A 
ATOM     24  C   UNL     1      -2.789  10.155  17.508  0.00  0.00    +0.000 A 
ATOM     25  C   UNL     1      -3.176  11.243  18.254  0.00  0.00    +0.000 A 
ATOM     26  S   UNL     1      -1.829  12.096  18.876  0.00  0.00    +0.000 S 
ENDBRANCH  21  22
ENDBRANCH  19  21
ENDBRANCH   1  19
TORSDOF 5
ENDMDL
MODEL 9
REMARK VINA RESULT:      -6.5      2.212      3.247
REMARK  Name = 
REMARK  5 active torsions:
REMARK  status: ('A' for Active; 'I' for Inactive)
REMARK    1  A    between atoms: C_2  and  O_3
REMARK    2  A    between atoms: C_2  and  C_22
REMARK    3  A    between atoms: O_3  and  C_4
REMARK    4  A    between atoms: C_12  and  N_13
REMARK    5  A    between atoms: C_16  and  N_17
REMARK                            x       y       z     vdW  Elec       q    Type
REMARK                         _______ _______ _______ _____ _____    ______ ____
ROOT
ATOM      1  C   UNL     1       2.753   6.884  18.508  0.00  0.00    +0.000 A 
ATOM      2  C   UNL     1       2.666   5.606  19.087  0.00  0.00    +0.000 A 
ATOM      3  C   UNL     1       2.057   5.434  20.322  0.00  0.00    +0.000 A 
ATOM      4  C   UNL     1       1.517   6.537  20.965  0.00  0.00    +0.000 A 
ATOM      5  C   UNL     1       1.550   7.809  20.364  0.00  0.00    +0.000 A 
ATOM      6  C   UNL     1       2.137   8.002  19.123  0.00  0.00    +0.000 A 
ATOM      7  C   UNL     1       2.023   9.337  18.487  0.00  0.00    +0.000 C 
ATOM      8  O   UNL     1       2.349   9.439  17.306  0.00  0.00    +0.000 OA
ATOM      9  C   UNL     1       1.449  10.518  19.279  0.00  0.00    +0.000 C 
ATOM     10  C   UNL     1       0.914  10.302  20.513  0.00  0.00    +0.000 C 
ATOM     11  C   UNL     1       0.948   8.916  21.101  0.00  0.00    +0.000 C 
ATOM     12  O   UNL     1       0.481   8.678  22.214  0.00  0.00    +0.000 OA
ENDROOT
BRANCH   9  13
ATOM     13  N   UNL     1       1.326  11.775  18.663  0.00  0.00    +0.000 N 
ATOM     14  C   UNL     1       1.866  12.948  19.352  0.00  0.00    +0.000 C 
ATOM     15  C   UNL     1       2.366  12.535  17.995  0.00  0.00    +0.000 C 
ENDBRANCH   9  13
BRANCH  10  16
ATOM     16  N   UNL     1       0.253  11.157  21.409  0.00  0.00    +0.000 N 
ATOM     17  C   UNL     1      -1.039  11.736  21.048  0.00  0.00    +0.000 C 
ATOM     18  C   UNL     1      -0.904  10.794  22.209  0.00  0.00    +0.000 C 
ENDBRANCH  10  16
BRANCH   1  19
ATOM     19  O   UNL     1       3.433   7.025  17.268  0.00  0.00    +0.000 OA
BRANCH  19  21
ATOM     20  O   UNL     1       5.634   7.624  17.761  0.00  0.00    +0.000 OA
ATOM     21  C   UNL     1       4.834   6.892  17.186  0.00  0.00    +0.000 C 
BRANCH  21  22
ATOM     22  C   UNL     1       5.190   5.774  16.334  0.00  0.00    +0.000 A 
ATOM     23  C   UNL     1       5.312   5.708  14.958  0.00  0.00    +0.000 A 
ATOM     24  C   UNL     1       5.744   4.423  14.509  0.00  0.00    +0.000 A 
ATOM     25  C   UNL     1       5.915   3.540  15.548  0.00  0.00    +0.000 A 
ATOM     26  S   UNL     1       5.549   4.258  17.057  0.00  0.00    +0.000 S 
ENDBRANCH  21  22
ENDBRANCH  19  21
ENDBRANCH   1  19
TORSDOF 5
ENDMDL
