MODEL 1
REMARK VINA RESULT:      -7.2      0.000      0.000
REMARK  Name = 
REMARK  2 active torsions:
REMARK  status: ('A' for Active; 'I' for Inactive)
REMARK    1  A    between atoms: C_2  and  C_9
REMARK    2  A    between atoms: N_13  and  C_14
REMARK                            x       y       z     vdW  Elec       q    Type
REMARK                         _______ _______ _______ _____ _____    ______ ____
ROOT
ATOM      1  C   UNL     1       4.783   4.260  19.083  0.00  0.00    +0.000 C 
ATOM      2  C   UNL     1       3.569   3.547  19.646  0.00  0.00    +0.000 C 
ATOM      3  C   UNL     1       2.480   4.588  19.571  0.00  0.00    +0.000 C 
ATOM      4  O   UNL     1       1.297   4.305  19.685  0.00  0.00    +0.000 OA
ATOM      5  N   UNL     1       3.078   5.839  19.347  0.00  0.00    +0.000 N 
ATOM      6  C   UNL     1       4.522   5.724  19.359  0.00  0.00    +0.000 C 
ENDROOT
BRANCH   1   8
ATOM      7  O   UNL     1       4.387   3.020  17.094  0.00  0.00    +0.000 OA
ATOM      8  C   UNL     1       4.997   3.955  17.605  0.00  0.00    +0.000 C 
ATOM      9  N   UNL     1       5.920   4.753  16.947  0.00  0.00    +0.000 N 
ATOM     10  C   UNL     1       6.275   4.735  15.627  0.00  0.00    +0.000 C 
ATOM     11  N   UNL     1       7.425   5.201  15.286  0.00  0.00    +0.000 NA
ATOM     12  C   UNL     1       7.594   5.068  13.822  0.00  0.00    +0.000 C 
ATOM     13  C   UNL     1       6.605   4.057  13.254  0.00  0.00    +0.000 C 
ATOM     14  S   UNL     1       5.222   4.138  14.396  0.00  0.00    +0.000 S 
ATOM     15  H   UNL     1       6.581   5.287  17.498  0.00  0.00    +0.000 HD
ENDBRANCH   1   8
BRANCH   5  16
ATOM     16  C   UNL     1       2.405   7.095  19.275  0.00  0.00    +0.000 A 
ATOM     17  C   UNL     1       1.788   7.662  20.397  0.00  0.00    +0.000 A 
ATOM     18  C   UNL     1       1.126   8.898  20.323  0.00  0.00    +0.000 A 
ATOM     19  C   UNL     1       1.062   9.576  19.115  0.00  0.00    +0.000 A 
ATOM     20 CL   UNL     1       0.244  11.085  19.018  0.00  0.00    +0.000 Cl
ATOM     21  C   UNL     1       1.660   9.036  17.984  0.00  0.00    +0.000 A 
ATOM     22  C   UNL     1       2.334   7.809  18.066  0.00  0.00    +0.000 A 
ENDBRANCH   5  16
TORSDOF 2
ENDMDL
MODEL 2
REMARK VINA RESULT:      -7.2      0.039      1.048
REMARK  Name = 
REMARK  2 active torsions:
REMARK  status: ('A' for Active; 'I' for Inactive)
REMARK    1  A    between atoms: C_2  and  C_9
REMARK    2  A    between atoms: N_13  and  C_14
REMARK                            x       y       z     vdW  Elec       q    Type
REMARK                         _______ _______ _______ _____ _____    ______ ____
ROOT
ATOM      1  C   UNL     1       4.772   4.282  19.053  0.00  0.00    +0.000 C 
ATOM      2  C   UNL     1       3.558   3.569  19.614  0.00  0.00    +0.000 C 
ATOM      3  C   UNL     1       2.468   4.610  19.536  0.00  0.00    +0.000 C 
ATOM      4  O   UNL     1       1.286   4.326  19.648  0.00  0.00    +0.000 OA
ATOM      5  N   UNL     1       3.066   5.861  19.312  0.00  0.00    +0.000 N 
ATOM      6  C   UNL     1       4.510   5.746  19.327  0.00  0.00    +0.000 C 
ENDROOT
BRANCH   1   8
ATOM      7  O   UNL     1       4.383   3.038  17.066  0.00  0.00    +0.000 OA
ATOM      8  C   UNL     1       4.990   3.976  17.576  0.00  0.00    +0.000 C 
ATOM      9  N   UNL     1       5.913   4.775  16.919  0.00  0.00    +0.000 N 
ATOM     10  C   UNL     1       6.270   4.756  15.599  0.00  0.00    +0.000 C 
ATOM     11  N   UNL     1       7.419   5.225  15.259  0.00  0.00    +0.000 NA
ATOM     12  C   UNL     1       7.591   5.090  13.796  0.00  0.00    +0.000 C 
ATOM     13  C   UNL     1       6.605   4.075  13.227  0.00  0.00    +0.000 C 
ATOM     14  S   UNL     1       5.220   4.155  14.367  0.00  0.00    +0.000 S 
ATOM     15  H   UNL     1       6.571   5.311  17.469  0.00  0.00    +0.000 HD
ENDBRANCH   1   8
BRANCH   5  16
ATOM     16  C   UNL     1       2.393   7.116  19.237  0.00  0.00    +0.000 A 
ATOM     17  C   UNL     1       2.305   7.831  18.035  0.00  0.00    +0.000 A 
ATOM     18  C   UNL     1       1.643   9.066  17.965  0.00  0.00    +0.000 A 
ATOM     19  C   UNL     1       1.070   9.610  19.105  0.00  0.00    +0.000 A 
ATOM     20 CL   UNL     1       0.267  11.127  19.024  0.00  0.00    +0.000 Cl
ATOM     21  C   UNL     1       1.146   8.926  20.312  0.00  0.00    +0.000 A 
ATOM     22  C   UNL     1       1.795   7.685  20.374  0.00  0.00    +0.000 A 
ENDBRANCH   5  16
TORSDOF 2
ENDMDL
MODEL 3
REMARK VINA RESULT:      -7.0      1.582      1.724
REMARK  Name = 
REMARK  2 active torsions:
REMARK  status: ('A' for Active; 'I' for Inactive)
REMARK    1  A    between atoms: C_2  and  C_9
REMARK    2  A    between atoms: N_13  and  C_14
REMARK                            x       y       z     vdW  Elec       q    Type
REMARK                         _______ _______ _______ _____ _____    ______ ____
ROOT
ATOM      1  C   UNL     1       4.932   4.215  17.888  0.00  0.00    +0.000 C 
ATOM      2  C   UNL     1       3.629   3.498  17.594  0.00  0.00    +0.000 C 
ATOM      3  C   UNL     1       2.585   4.571  17.780  0.00  0.00    +0.000 C 
ATOM      4  O   UNL     1       1.441   4.444  17.373  0.00  0.00    +0.000 OA
ATOM      5  N   UNL     1       3.176   5.653  18.453  0.00  0.00    +0.000 N 
ATOM      6  C   UNL     1       4.542   5.340  18.821  0.00  0.00    +0.000 C 
ENDROOT
BRANCH   1   8
ATOM      7  O   UNL     1       6.084   5.837  16.589  0.00  0.00    +0.000 OA
ATOM      8  C   UNL     1       5.625   4.699  16.620  0.00  0.00    +0.000 C 
ATOM      9  N   UNL     1       5.645   3.807  15.559  0.00  0.00    +0.000 N 
ATOM     10  C   UNL     1       6.228   3.955  14.332  0.00  0.00    +0.000 C 
ATOM     11  N   UNL     1       5.783   3.261  13.344  0.00  0.00    +0.000 NA
ATOM     12  C   UNL     1       6.553   3.593  12.124  0.00  0.00    +0.000 C 
ATOM     13  C   UNL     1       7.291   4.915  12.295  0.00  0.00    +0.000 C 
ATOM     14  S   UNL     1       7.565   5.016  14.067  0.00  0.00    +0.000 S 
ATOM     15  H   UNL     1       4.998   3.028  15.566  0.00  0.00    +0.000 HD
ENDBRANCH   1   8
BRANCH   5  16
ATOM     16  C   UNL     1       2.516   6.844  18.878  0.00  0.00    +0.000 A 
ATOM     17  C   UNL     1       2.050   6.996  20.191  0.00  0.00    +0.000 A 
ATOM     18  C   UNL     1       1.401   8.169  20.606  0.00  0.00    +0.000 A 
ATOM     19  C   UNL     1       1.197   9.202  19.704  0.00  0.00    +0.000 A 
ATOM     20 CL   UNL     1       0.393  10.636  20.207  0.00  0.00    +0.000 Cl
ATOM     21  C   UNL     1       1.644   9.078  18.395  0.00  0.00    +0.000 A 
ATOM     22  C   UNL     1       2.306   7.911  17.989  0.00  0.00    +0.000 A 
ENDBRANCH   5  16
TORSDOF 2
ENDMDL
MODEL 4
REMARK VINA RESULT:      -7.0      1.577      1.998
REMARK  Name = 
REMARK  2 active torsions:
REMARK  status: ('A' for Active; 'I' for Inactive)
REMARK    1  A    between atoms: C_2  and  C_9
REMARK    2  A    between atoms: N_13  and  C_14
REMARK                            x       y       z     vdW  Elec       q    Type
REMARK                         _______ _______ _______ _____ _____    ______ ____
ROOT
ATOM      1  C   UNL     1       5.006   4.283  17.907  0.00  0.00    +0.000 C 
ATOM      2  C   UNL     1       3.720   3.528  17.635  0.00  0.00    +0.000 C 
ATOM      3  C   UNL     1       2.651   4.580  17.794  0.00  0.00    +0.000 C 
ATOM      4  O   UNL     1       1.509   4.415  17.393  0.00  0.00    +0.000 OA
ATOM      5  N   UNL     1       3.217   5.694  18.436  0.00  0.00    +0.000 N 
ATOM      6  C   UNL     1       4.591   5.424  18.809  0.00  0.00    +0.000 C 
ENDROOT
BRANCH   1   8
ATOM      7  O   UNL     1       6.144   5.886  16.571  0.00  0.00    +0.000 OA
ATOM      8  C   UNL     1       5.685   4.748  16.623  0.00  0.00    +0.000 C 
ATOM      9  N   UNL     1       5.693   3.841  15.576  0.00  0.00    +0.000 N 
ATOM     10  C   UNL     1       6.263   3.971  14.340  0.00  0.00    +0.000 C 
ATOM     11  N   UNL     1       5.806   3.263  13.367  0.00  0.00    +0.000 NA
ATOM     12  C   UNL     1       6.563   3.576  12.134  0.00  0.00    +0.000 C 
ATOM     13  C   UNL     1       7.303   4.901  12.277  0.00  0.00    +0.000 C 
ATOM     14  S   UNL     1       7.596   5.027  14.045  0.00  0.00    +0.000 S 
ATOM     15  H   UNL     1       5.046   3.063  15.601  0.00  0.00    +0.000 HD
ENDBRANCH   1   8
BRANCH   5  16
ATOM     16  C   UNL     1       2.530   6.880  18.830  0.00  0.00    +0.000 A 
ATOM     17  C   UNL     1       2.297   7.927  17.928  0.00  0.00    +0.000 A 
ATOM     18  C   UNL     1       1.621   9.093  18.319  0.00  0.00    +0.000 A 
ATOM     19  C   UNL     1       1.182   9.232  19.627  0.00  0.00    +0.000 A 
ATOM     20 CL   UNL     1       0.362  10.664  20.111  0.00  0.00    +0.000 Cl
ATOM     21  C   UNL     1       1.403   8.213  20.544  0.00  0.00    +0.000 A 
ATOM     22  C   UNL     1       2.065   7.043  20.145  0.00  0.00    +0.000 A 
ENDBRANCH   5  16
TORSDOF 2
ENDMDL
MODEL 5
REMARK VINA RESULT:      -6.6      3.690      7.153
REMARK  Name = 
REMARK  2 active torsions:
REMARK  status: ('A' for Active; 'I' for Inactive)
REMARK    1  A    between atoms: C_2  and  C_9
REMARK    2  A    between atoms: N_13  and  C_14
REMARK                            x       y       z     vdW  Elec       q    Type
REMARK                         _______ _______ _______ _____ _____    ______ ____
ROOT
ATOM      1  C   UNL     1       2.846   5.200  19.115  0.00  0.00    +0.000 C 
ATOM      2  C   UNL     1       4.053   4.845  19.961  0.00  0.00    +0.000 C 
ATOM      3  C   UNL     1       5.198   4.889  18.981  0.00  0.00    +0.000 C 
ATOM      4  O   UNL     1       6.365   4.921  19.342  0.00  0.00    +0.000 OA
ATOM      5  N   UNL     1       4.669   4.900  17.680  0.00  0.00    +0.000 N 
ATOM      6  C   UNL     1       3.226   4.769  17.715  0.00  0.00    +0.000 C 
ENDROOT
BRANCH   1   8
ATOM      7  O   UNL     1       2.814   7.432  18.298  0.00  0.00    +0.000 OA
ATOM      8  C   UNL     1       2.487   6.678  19.212  0.00  0.00    +0.000 C 
ATOM      9  N   UNL     1       1.842   7.073  20.373  0.00  0.00    +0.000 N 
ATOM     10  C   UNL     1       1.368   8.311  20.706  0.00  0.00    +0.000 C 
ATOM     11  N   UNL     1       1.216   8.605  21.949  0.00  0.00    +0.000 NA
ATOM     12  C   UNL     1       0.708   9.990  22.068  0.00  0.00    +0.000 C 
ATOM     13  C   UNL     1       0.942  10.764  20.776  0.00  0.00    +0.000 C 
ATOM     14  S   UNL     1       0.935   9.485  19.516  0.00  0.00    +0.000 S 
ATOM     15  H   UNL     1       1.880   6.465  21.181  0.00  0.00    +0.000 HD
ENDBRANCH   1   8
BRANCH   5  16
ATOM     16  C   UNL     1       5.415   4.876  16.465  0.00  0.00    +0.000 A 
ATOM     17  C   UNL     1       6.573   5.649  16.300  0.00  0.00    +0.000 A 
ATOM     18  C   UNL     1       7.304   5.624  15.102  0.00  0.00    +0.000 A 
ATOM     19  C   UNL     1       6.876   4.833  14.046  0.00  0.00    +0.000 A 
ATOM     20 CL   UNL     1       7.765   4.808  12.575  0.00  0.00    +0.000 Cl
ATOM     21  C   UNL     1       5.730   4.061  14.179  0.00  0.00    +0.000 A 
ATOM     22  C   UNL     1       5.010   4.076  15.383  0.00  0.00    +0.000 A 
ENDBRANCH   5  16
TORSDOF 2
ENDMDL
MODEL 6
REMARK VINA RESULT:      -6.6      3.368      6.394
REMARK  Name = 
REMARK  2 active torsions:
REMARK  status: ('A' for Active; 'I' for Inactive)
REMARK    1  A    between atoms: C_2  and  C_9
REMARK    2  A    between atoms: N_13  and  C_14
REMARK                            x       y       z     vdW  Elec       q    Type
REMARK                         _______ _______ _______ _____ _____    ______ ____
ROOT
ATOM      1  C   UNL     1       2.500   3.820  18.933  0.00  0.00    +0.000 C 
ATOM      2  C   UNL     1       3.671   3.388  19.794  0.00  0.00    +0.000 C 
ATOM      3  C   UNL     1       4.876   3.760  18.967  0.00  0.00    +0.000 C 
ATOM      4  O   UNL     1       6.001   3.812  19.440  0.00  0.00    +0.000 OA
ATOM      5  N   UNL     1       4.449   4.024  17.655  0.00  0.00    +0.000 N 
ATOM      6  C   UNL     1       3.031   3.761  17.517  0.00  0.00    +0.000 C 
ENDROOT
BRANCH   1   8
ATOM      7  O   UNL     1       1.199   5.294  20.267  0.00  0.00    +0.000 OA
ATOM      8  C   UNL     1       1.975   5.197  19.320  0.00  0.00    +0.000 C 
ATOM      9  N   UNL     1       2.393   6.254  18.527  0.00  0.00    +0.000 N 
ATOM     10  C   UNL     1       2.119   7.586  18.667  0.00  0.00    +0.000 C 
ATOM     11  N   UNL     1       2.195   8.348  17.633  0.00  0.00    +0.000 NA
ATOM     12  C   UNL     1       1.848   9.734  18.018  0.00  0.00    +0.000 C 
ATOM     13  C   UNL     1       1.100   9.754  19.347  0.00  0.00    +0.000 C 
ATOM     14  S   UNL     1       1.706   8.288  20.189  0.00  0.00    +0.000 S 
ATOM     15  H   UNL     1       2.778   6.052  17.613  0.00  0.00    +0.000 HD
ENDBRANCH   1   8
BRANCH   5  16
ATOM     16  C   UNL     1       5.284   4.350  16.545  0.00  0.00    +0.000 A 
ATOM     17  C   UNL     1       5.258   3.599  15.363  0.00  0.00    +0.000 A 
ATOM     18  C   UNL     1       6.081   3.922  14.273  0.00  0.00    +0.000 A 
ATOM     19  C   UNL     1       6.954   4.996  14.360  0.00  0.00    +0.000 A 
ATOM     20 CL   UNL     1       7.971   5.388  13.030  0.00  0.00    +0.000 Cl
ATOM     21  C   UNL     1       7.005   5.756  15.522  0.00  0.00    +0.000 A 
ATOM     22  C   UNL     1       6.170   5.439  16.602  0.00  0.00    +0.000 A 
ENDBRANCH   5  16
TORSDOF 2
ENDMDL
MODEL 7
REMARK VINA RESULT:      -6.6      3.691      7.172
REMARK  Name = 
REMARK  2 active torsions:
REMARK  status: ('A' for Active; 'I' for Inactive)
REMARK    1  A    between atoms: C_2  and  C_9
REMARK    2  A    between atoms: N_13  and  C_14
REMARK                            x       y       z     vdW  Elec       q    Type
REMARK                         _______ _______ _______ _____ _____    ______ ____
ROOT
ATOM      1  C   UNL     1       2.866   5.193  19.129  0.00  0.00    +0.000 C 
ATOM      2  C   UNL     1       4.089   4.849  19.957  0.00  0.00    +0.000 C 
ATOM      3  C   UNL     1       5.216   4.885  18.956  0.00  0.00    +0.000 C 
ATOM      4  O   UNL     1       6.389   4.923  19.295  0.00  0.00    +0.000 OA
ATOM      5  N   UNL     1       4.663   4.881  17.665  0.00  0.00    +0.000 N 
ATOM      6  C   UNL     1       3.222   4.748  17.727  0.00  0.00    +0.000 C 
ENDROOT
BRANCH   1   8
ATOM      7  O   UNL     1       2.833   7.420  18.299  0.00  0.00    +0.000 OA
ATOM      8  C   UNL     1       2.506   6.671  19.216  0.00  0.00    +0.000 C 
ATOM      9  N   UNL     1       1.858   7.072  20.373  0.00  0.00    +0.000 N 
ATOM     10  C   UNL     1       1.382   8.312  20.698  0.00  0.00    +0.000 C 
ATOM     11  N   UNL     1       1.227   8.613  21.940  0.00  0.00    +0.000 NA
ATOM     12  C   UNL     1       0.718   9.998  22.049  0.00  0.00    +0.000 C 
ATOM     13  C   UNL     1       0.954  10.765  20.753  0.00  0.00    +0.000 C 
ATOM     14  S   UNL     1       0.950   9.478  19.500  0.00  0.00    +0.000 S 
ATOM     15  H   UNL     1       1.895   6.469  21.186  0.00  0.00    +0.000 HD
ENDBRANCH   1   8
BRANCH   5  16
ATOM     16  C   UNL     1       5.388   4.846  16.436  0.00  0.00    +0.000 A 
ATOM     17  C   UNL     1       4.918   4.130  15.327  0.00  0.00    +0.000 A 
ATOM     18  C   UNL     1       5.634   4.097  14.121  0.00  0.00    +0.000 A 
ATOM     19  C   UNL     1       6.841   4.771  14.014  0.00  0.00    +0.000 A 
ATOM     20 CL   UNL     1       7.725   4.725  12.540  0.00  0.00    +0.000 Cl
ATOM     21  C   UNL     1       7.335   5.485  15.099  0.00  0.00    +0.000 A 
ATOM     22  C   UNL     1       6.609   5.528  16.297  0.00  0.00    +0.000 A 
ENDBRANCH   5  16
TORSDOF 2
ENDMDL
MODEL 8
REMARK VINA RESULT:      -6.6      3.365      6.361
REMARK  Name = 
REMARK  2 active torsions:
REMARK  status: ('A' for Active; 'I' for Inactive)
REMARK    1  A    between atoms: C_2  and  C_9
REMARK    2  A    between atoms: N_13  and  C_14
REMARK                            x       y       z     vdW  Elec       q    Type
REMARK                         _______ _______ _______ _____ _____    ______ ____
ROOT
ATOM      1  C   UNL     1       2.716   3.854  18.934  0.00  0.00    +0.000 C 
ATOM      2  C   UNL     1       3.925   3.534  19.791  0.00  0.00    +0.000 C 
ATOM      3  C   UNL     1       5.091   3.922  18.917  0.00  0.00    +0.000 C 
ATOM      4  O   UNL     1       6.221   4.060  19.361  0.00  0.00    +0.000 OA
ATOM      5  N   UNL     1       4.625   4.089  17.603  0.00  0.00    +0.000 N 
ATOM      6  C   UNL     1       3.221   3.743  17.512  0.00  0.00    +0.000 C 
ENDROOT
BRANCH   1   8
ATOM      7  O   UNL     1       1.285   5.312  20.148  0.00  0.00    +0.000 OA
ATOM      8  C   UNL     1       2.125   5.221  19.257  0.00  0.00    +0.000 C 
ATOM      9  N   UNL     1       2.562   6.274  18.469  0.00  0.00    +0.000 N 
ATOM     10  C   UNL     1       2.239   7.599  18.562  0.00  0.00    +0.000 C 
ATOM     11  N   UNL     1       2.360   8.344  17.519  0.00  0.00    +0.000 NA
ATOM     12  C   UNL     1       1.946   9.725  17.851  0.00  0.00    +0.000 C 
ATOM     13  C   UNL     1       1.112   9.747  19.126  0.00  0.00    +0.000 C 
ATOM     14  S   UNL     1       1.705   8.318  20.038  0.00  0.00    +0.000 S 
ATOM     15  H   UNL     1       3.013   6.068  17.587  0.00  0.00    +0.000 HD
ENDBRANCH   1   8
BRANCH   5  16
ATOM     16  C   UNL     1       5.419   4.395  16.458  0.00  0.00    +0.000 A 
ATOM     17  C   UNL     1       6.329   5.461  16.460  0.00  0.00    +0.000 A 
ATOM     18  C   UNL     1       7.108   5.759  15.332  0.00  0.00    +0.000 A 
ATOM     19  C   UNL     1       6.975   5.001  14.178  0.00  0.00    +0.000 A 
ATOM     20 CL   UNL     1       7.921   5.371  12.792  0.00  0.00    +0.000 Cl
ATOM     21  C   UNL     1       6.077   3.941  14.146  0.00  0.00    +0.000 A 
ATOM     22  C   UNL     1       5.312   3.636  15.280  0.00  0.00    +0.000 A 
ENDBRANCH   5  16
TORSDOF 2
ENDMDL
MODEL 9
REMARK VINA RESULT:      -6.5      3.770      6.194
REMARK  Name = 
REMARK  2 active torsions:
REMARK  status: ('A' for Active; 'I' for Inactive)
REMARK    1  A    between atoms: C_2  and  C_9
REMARK    2  A    between atoms: N_13  and  C_14
REMARK                            x       y       z     vdW  Elec       q    Type
REMARK                         _______ _______ _______ _____ _____    ______ ____
ROOT
ATOM      1  C   UNL     1       4.461   4.483  16.251  0.00  0.00    +0.000 C 
ATOM      2  C   UNL     1       5.686   3.882  15.592  0.00  0.00    +0.000 C 
ATOM      3  C   UNL     1       6.829   4.668  16.185  0.00  0.00    +0.000 C 
ATOM      4  O   UNL     1       7.990   4.296  16.100  0.00  0.00    +0.000 OA
ATOM      5  N   UNL     1       6.304   5.809  16.812  0.00  0.00    +0.000 N 
ATOM      6  C   UNL     1       4.873   5.897  16.598  0.00  0.00    +0.000 C 
ENDROOT
BRANCH   1   8
ATOM      7  O   UNL     1       4.100   2.453  17.434  0.00  0.00    +0.000 OA
ATOM      8  C   UNL     1       4.001   3.678  17.461  0.00  0.00    +0.000 C 
ATOM      9  N   UNL     1       3.456   4.406  18.506  0.00  0.00    +0.000 N 
ATOM     10  C   UNL     1       3.009   3.956  19.717  0.00  0.00    +0.000 C 
ATOM     11  N   UNL     1       2.146   4.660  20.362  0.00  0.00    +0.000 NA
ATOM     12  C   UNL     1       1.803   3.975  21.629  0.00  0.00    +0.000 C 
ATOM     13  C   UNL     1       2.204   2.506  21.575  0.00  0.00    +0.000 C 
ATOM     14  S   UNL     1       3.585   2.491  20.427  0.00  0.00    +0.000 S 
ATOM     15  H   UNL     1       3.143   5.352  18.328  0.00  0.00    +0.000 HD
ENDBRANCH   1   8
BRANCH   5  16
ATOM     16  C   UNL     1       7.054   6.847  17.441  0.00  0.00    +0.000 A 
ATOM     17  C   UNL     1       7.020   8.166  16.969  0.00  0.00    +0.000 A 
ATOM     18  C   UNL     1       7.760   9.185  17.590  0.00  0.00    +0.000 A 
ATOM     19  C   UNL     1       8.557   8.891  18.686  0.00  0.00    +0.000 A 
ATOM     20 CL   UNL     1       9.472  10.134  19.442  0.00  0.00    +0.000 Cl
ATOM     21  C   UNL     1       8.615   7.591  19.172  0.00  0.00    +0.000 A 
ATOM     22  C   UNL     1       7.862   6.580  18.559  0.00  0.00    +0.000 A 
ENDBRANCH   5  16
TORSDOF 2
ENDMDL
