MODEL 1
REMARK VINA RESULT:      -8.5      0.000      0.000
REMARK  Name = 
REMARK  6 active torsions:
REMARK  status: ('A' for Active; 'I' for Inactive)
REMARK    1  A    between atoms: O_1  and  C_2
REMARK    2  A    between atoms: C_8  and  N_9
REMARK    3  A    between atoms: C_11  and  C_12
REMARK    4  A    between atoms: C_15  and  C_16
REMARK    5  A    between atoms: C_21  and  C_22
REMARK    6  A    between atoms: C_27  and  O_28
REMARK                            x       y       z     vdW  Elec       q    Type
REMARK                         _______ _______ _______ _____ _____    ______ ____
ROOT
ATOM      1  N   UNL     1       1.134   9.135  18.720  0.00  0.00    +0.000 N 
ATOM      2  N   UNL     1       1.801   8.476  17.723  0.00  0.00    +0.000 NA
ATOM      3  C   UNL     1       2.573   7.619  18.417  0.00  0.00    +0.000 A 
ATOM      4  N   UNL     1       2.278   7.540  19.755  0.00  0.00    +0.000 NA
ATOM      5  C   UNL     1       1.402   8.489  19.915  0.00  0.00    +0.000 A 
ENDROOT
BRANCH   1  12
ATOM      6  C   UNL     1       0.575  11.524  18.809  0.00  0.00    +0.000 A 
ATOM      7  C   UNL     1      -0.373  12.544  18.721  0.00  0.00    +0.000 A 
ATOM      8  C   UNL     1      -1.664  12.251  18.286  0.00  0.00    +0.000 A 
ATOM      9  C   UNL     1      -1.989  10.947  17.901  0.00  0.00    +0.000 A 
ATOM     10 CL   UNL     1      -3.592  10.603  17.380  0.00  0.00    +0.000 Cl
ATOM     11  C   UNL     1      -1.041   9.926  17.969  0.00  0.00    +0.000 A 
ATOM     12  C   UNL     1       0.236  10.204  18.480  0.00  0.00    +0.000 A 
BRANCH   6  13
ATOM     13  O   UNL     1       1.863  11.847  19.127  0.00  0.00    +0.000 OA
ATOM     14  H   UNL     1       2.449  11.638  18.381  0.00  0.00    +0.000 HD
ENDBRANCH   6  13
ENDBRANCH   1  12
BRANCH   3  15
ATOM     15  C   UNL     1       3.590   6.743  17.835  0.00  0.00    +0.000 A 
ATOM     16  C   UNL     1       4.828   7.303  17.464  0.00  0.00    +0.000 A 
ATOM     17  C   UNL     1       5.812   6.541  16.820  0.00  0.00    +0.000 A 
ATOM     18  C   UNL     1       5.586   5.192  16.529  0.00  0.00    +0.000 A 
ATOM     19  C   UNL     1       4.363   4.626  16.914  0.00  0.00    +0.000 A 
ATOM     20  C   UNL     1       3.360   5.376  17.578  0.00  0.00    +0.000 A 
BRANCH  18  21
ATOM     21  C   UNL     1       6.620   4.346  15.822  0.00  0.00    +0.000 C 
ATOM     22  F   UNL     1       6.149   3.140  15.404  0.00  0.00    +0.000 F 
ATOM     23  F   UNL     1       7.120   4.959  14.713  0.00  0.00    +0.000 F 
ATOM     24  F   UNL     1       7.696   4.075  16.613  0.00  0.00    +0.000 F 
ENDBRANCH  18  21
BRANCH  20  25
ATOM     25  C   UNL     1       2.109   4.611  17.962  0.00  0.00    +0.000 C 
ATOM     26  F   UNL     1       1.783   4.559  19.277  0.00  0.00    +0.000 F 
ATOM     27  F   UNL     1       1.007   5.079  17.308  0.00  0.00    +0.000 F 
ATOM     28  F   UNL     1       2.209   3.299  17.587  0.00  0.00    +0.000 F 
ENDBRANCH  20  25
ENDBRANCH   3  15
BRANCH   5  29
ATOM     29  O   UNL     1       0.775   8.668  21.067  0.00  0.00    +0.000 OA
ATOM     30  H   UNL     1       1.289   8.099  21.664  0.00  0.00    +0.000 HD
ENDBRANCH   5  29
TORSDOF 6
ENDMDL
MODEL 2
REMARK VINA RESULT:      -8.4      0.133      1.003
REMARK  Name = 
REMARK  6 active torsions:
REMARK  status: ('A' for Active; 'I' for Inactive)
REMARK    1  A    between atoms: O_1  and  C_2
REMARK    2  A    between atoms: C_8  and  N_9
REMARK    3  A    between atoms: C_11  and  C_12
REMARK    4  A    between atoms: C_15  and  C_16
REMARK    5  A    between atoms: C_21  and  C_22
REMARK    6  A    between atoms: C_27  and  O_28
REMARK                            x       y       z     vdW  Elec       q    Type
REMARK                         _______ _______ _______ _____ _____    ______ ____
ROOT
ATOM      1  N   UNL     1       1.153   9.085  18.677  0.00  0.00    +0.000 N 
ATOM      2  N   UNL     1       1.836   8.438  17.682  0.00  0.00    +0.000 NA
ATOM      3  C   UNL     1       2.622   7.597  18.381  0.00  0.00    +0.000 A 
ATOM      4  N   UNL     1       2.324   7.514  19.717  0.00  0.00    +0.000 NA
ATOM      5  C   UNL     1       1.430   8.445  19.873  0.00  0.00    +0.000 A 
ENDROOT
BRANCH   1  12
ATOM      6  C   UNL     1       0.528  11.456  18.805  0.00  0.00    +0.000 A 
ATOM      7  C   UNL     1      -0.443  12.454  18.710  0.00  0.00    +0.000 A 
ATOM      8  C   UNL     1      -1.711  12.139  18.224  0.00  0.00    +0.000 A 
ATOM      9  C   UNL     1      -1.988  10.837  17.797  0.00  0.00    +0.000 A 
ATOM     10 CL   UNL     1      -3.564  10.465  17.215  0.00  0.00    +0.000 Cl
ATOM     11  C   UNL     1      -1.017   9.839  17.873  0.00  0.00    +0.000 A 
ATOM     12  C   UNL     1       0.235  10.136  18.433  0.00  0.00    +0.000 A 
BRANCH   6  13
ATOM     13  O   UNL     1       1.796  11.804  19.174  0.00  0.00    +0.000 OA
ATOM     14  H   UNL     1       2.195  11.089  19.696  0.00  0.00    +0.000 HD
ENDBRANCH   6  13
ENDBRANCH   1  12
BRANCH   3  15
ATOM     15  C   UNL     1       3.657   6.740  17.802  0.00  0.00    +0.000 A 
ATOM     16  C   UNL     1       4.899   7.315  17.471  0.00  0.00    +0.000 A 
ATOM     17  C   UNL     1       5.902   6.573  16.833  0.00  0.00    +0.000 A 
ATOM     18  C   UNL     1       5.692   5.230  16.509  0.00  0.00    +0.000 A 
ATOM     19  C   UNL     1       4.465   4.648  16.855  0.00  0.00    +0.000 A 
ATOM     20  C   UNL     1       3.442   5.377  17.512  0.00  0.00    +0.000 A 
BRANCH  18  21
ATOM     21  C   UNL     1       6.747   4.406  15.807  0.00  0.00    +0.000 C 
ATOM     22  F   UNL     1       7.335   5.045  14.758  0.00  0.00    +0.000 F 
ATOM     23  F   UNL     1       7.761   4.043  16.641  0.00  0.00    +0.000 F 
ATOM     24  F   UNL     1       6.246   3.243  15.304  0.00  0.00    +0.000 F 
ENDBRANCH  18  21
BRANCH  20  25
ATOM     25  C   UNL     1       2.188   4.596  17.852  0.00  0.00    +0.000 C 
ATOM     26  F   UNL     1       1.001   5.103  17.438  0.00  0.00    +0.000 F 
ATOM     27  F   UNL     1       2.246   3.314  17.388  0.00  0.00    +0.000 F 
ATOM     28  F   UNL     1       2.048   4.473  19.208  0.00  0.00    +0.000 F 
ENDBRANCH  20  25
ENDBRANCH   3  15
BRANCH   5  29
ATOM     29  O   UNL     1       0.795   8.614  21.023  0.00  0.00    +0.000 OA
ATOM     30  H   UNL     1       1.534   8.653  21.654  0.00  0.00    +0.000 HD
ENDBRANCH   5  29
TORSDOF 6
ENDMDL
MODEL 3
REMARK VINA RESULT:      -8.3      4.851      7.981
REMARK  Name = 
REMARK  6 active torsions:
REMARK  status: ('A' for Active; 'I' for Inactive)
REMARK    1  A    between atoms: O_1  and  C_2
REMARK    2  A    between atoms: C_8  and  N_9
REMARK    3  A    between atoms: C_11  and  C_12
REMARK    4  A    between atoms: C_15  and  C_16
REMARK    5  A    between atoms: C_21  and  C_22
REMARK    6  A    between atoms: C_27  and  O_28
REMARK                            x       y       z     vdW  Elec       q    Type
REMARK                         _______ _______ _______ _____ _____    ______ ____
ROOT
ATOM      1  N   UNL     1       5.996   4.831  15.619  0.00  0.00    +0.000 N 
ATOM      2  N   UNL     1       4.905   5.605  15.904  0.00  0.00    +0.000 NA
ATOM      3  C   UNL     1       4.910   5.616  17.251  0.00  0.00    +0.000 A 
ATOM      4  N   UNL     1       6.043   5.093  17.821  0.00  0.00    +0.000 NA
ATOM      5  C   UNL     1       6.685   4.607  16.799  0.00  0.00    +0.000 A 
ENDROOT
BRANCH   1  12
ATOM      6  C   UNL     1       7.465   5.071  13.666  0.00  0.00    +0.000 A 
ATOM      7  C   UNL     1       7.726   4.829  12.317  0.00  0.00    +0.000 A 
ATOM      8  C   UNL     1       6.900   3.966  11.598  0.00  0.00    +0.000 A 
ATOM      9  C   UNL     1       5.843   3.318  12.243  0.00  0.00    +0.000 A 
ATOM     10 CL   UNL     1       4.826   2.269  11.334  0.00  0.00    +0.000 Cl
ATOM     11  C   UNL     1       5.587   3.542  13.596  0.00  0.00    +0.000 A 
ATOM     12  C   UNL     1       6.369   4.468  14.301  0.00  0.00    +0.000 A 
BRANCH   6  13
ATOM     13  O   UNL     1       8.349   5.827  14.382  0.00  0.00    +0.000 OA
ATOM     14  H   UNL     1       8.119   5.796  15.326  0.00  0.00    +0.000 HD
ENDBRANCH   6  13
ENDBRANCH   1  12
BRANCH   3  15
ATOM     15  C   UNL     1       3.871   6.212  18.090  0.00  0.00    +0.000 A 
ATOM     16  C   UNL     1       3.491   7.545  17.844  0.00  0.00    +0.000 A 
ATOM     17  C   UNL     1       2.566   8.206  18.665  0.00  0.00    +0.000 A 
ATOM     18  C   UNL     1       1.992   7.549  19.757  0.00  0.00    +0.000 A 
ATOM     19  C   UNL     1       2.353   6.215  19.994  0.00  0.00    +0.000 A 
ATOM     20  C   UNL     1       3.276   5.525  19.168  0.00  0.00    +0.000 A 
BRANCH  18  21
ATOM     21  C   UNL     1       1.004   8.237  20.671  0.00  0.00    +0.000 C 
ATOM     22  F   UNL     1       1.585   8.893  21.713  0.00  0.00    +0.000 F 
ATOM     23  F   UNL     1       0.252   9.165  20.015  0.00  0.00    +0.000 F 
ATOM     24  F   UNL     1       0.117   7.364  21.225  0.00  0.00    +0.000 F 
ENDBRANCH  18  21
BRANCH  20  25
ATOM     25  C   UNL     1       3.533   4.076  19.532  0.00  0.00    +0.000 C 
ATOM     26  F   UNL     1       4.775   3.748  19.963  0.00  0.00    +0.000 F 
ATOM     27  F   UNL     1       2.662   3.629  20.483  0.00  0.00    +0.000 F 
ATOM     28  F   UNL     1       3.323   3.261  18.453  0.00  0.00    +0.000 F 
ENDBRANCH  20  25
ENDBRANCH   3  15
BRANCH   5  29
ATOM     29  O   UNL     1       7.904   4.106  16.919  0.00  0.00    +0.000 OA
ATOM     30  H   UNL     1       8.037   3.695  16.049  0.00  0.00    +0.000 HD
ENDBRANCH   5  29
TORSDOF 6
ENDMDL
MODEL 4
REMARK VINA RESULT:      -8.2      4.374      8.072
REMARK  Name = 
REMARK  6 active torsions:
REMARK  status: ('A' for Active; 'I' for Inactive)
REMARK    1  A    between atoms: O_1  and  C_2
REMARK    2  A    between atoms: C_8  and  N_9
REMARK    3  A    between atoms: C_11  and  C_12
REMARK    4  A    between atoms: C_15  and  C_16
REMARK    5  A    between atoms: C_21  and  C_22
REMARK    6  A    between atoms: C_27  and  O_28
REMARK                            x       y       z     vdW  Elec       q    Type
REMARK                         _______ _______ _______ _____ _____    ______ ____
ROOT
ATOM      1  N   UNL     1       3.749   5.594  18.741  0.00  0.00    +0.000 N 
ATOM      2  N   UNL     1       3.611   6.891  19.157  0.00  0.00    +0.000 NA
ATOM      3  C   UNL     1       2.416   6.863  19.777  0.00  0.00    +0.000 A 
ATOM      4  N   UNL     1       1.903   5.605  19.971  0.00  0.00    +0.000 NA
ATOM      5  C   UNL     1       2.733   4.849  19.315  0.00  0.00    +0.000 A 
ENDROOT
BRANCH   1  12
ATOM      6  C   UNL     1       6.139   5.089  18.498  0.00  0.00    +0.000 A 
ATOM      7  C   UNL     1       7.233   4.796  17.683  0.00  0.00    +0.000 A 
ATOM      8  C   UNL     1       7.033   4.532  16.329  0.00  0.00    +0.000 A 
ATOM      9  C   UNL     1       5.736   4.523  15.807  0.00  0.00    +0.000 A 
ATOM     10 CL   UNL     1       5.512   4.210  14.129  0.00  0.00    +0.000 Cl
ATOM     11  C   UNL     1       4.637   4.798  16.620  0.00  0.00    +0.000 A 
ATOM     12  C   UNL     1       4.843   5.139  17.965  0.00  0.00    +0.000 A 
BRANCH   6  13
ATOM     13  O   UNL     1       6.340   5.232  19.842  0.00  0.00    +0.000 OA
ATOM     14  H   UNL     1       6.938   4.535  20.161  0.00  0.00    +0.000 HD
ENDBRANCH   6  13
ENDBRANCH   1  12
BRANCH   3  15
ATOM     15  C   UNL     1       1.722   8.033  20.313  0.00  0.00    +0.000 A 
ATOM     16  C   UNL     1       1.563   8.142  21.709  0.00  0.00    +0.000 A 
ATOM     17  C   UNL     1       0.832   9.190  22.283  0.00  0.00    +0.000 A 
ATOM     18  C   UNL     1       0.238  10.164  21.476  0.00  0.00    +0.000 A 
ATOM     19  C   UNL     1       0.410  10.072  20.088  0.00  0.00    +0.000 A 
ATOM     20  C   UNL     1       1.156   9.027  19.488  0.00  0.00    +0.000 A 
BRANCH  18  21
ATOM     21  C   UNL     1      -0.571  11.300  22.063  0.00  0.00    +0.000 C 
ATOM     22  F   UNL     1      -1.720  11.562  21.383  0.00  0.00    +0.000 F 
ATOM     23  F   UNL     1      -0.942  11.059  23.351  0.00  0.00    +0.000 F 
ATOM     24  F   UNL     1       0.125  12.471  22.089  0.00  0.00    +0.000 F 
ENDBRANCH  18  21
BRANCH  20  25
ATOM     25  C   UNL     1       1.282   9.088  17.978  0.00  0.00    +0.000 C 
ATOM     26  F   UNL     1       1.510   7.925  17.320  0.00  0.00    +0.000 F 
ATOM     27  F   UNL     1       0.183   9.652  17.399  0.00  0.00    +0.000 F 
ATOM     28  F   UNL     1       2.325   9.894  17.611  0.00  0.00    +0.000 F 
ENDBRANCH  20  25
ENDBRANCH   3  15
BRANCH   5  29
ATOM     29  O   UNL     1       2.646   3.528  19.351  0.00  0.00    +0.000 OA
ATOM     30  H   UNL     1       2.112   3.343  18.561  0.00  0.00    +0.000 HD
ENDBRANCH   5  29
TORSDOF 6
ENDMDL
MODEL 5
REMARK VINA RESULT:      -8.2      1.902      2.759
REMARK  Name = 
REMARK  6 active torsions:
REMARK  status: ('A' for Active; 'I' for Inactive)
REMARK    1  A    between atoms: O_1  and  C_2
REMARK    2  A    between atoms: C_8  and  N_9
REMARK    3  A    between atoms: C_11  and  C_12
REMARK    4  A    between atoms: C_15  and  C_16
REMARK    5  A    between atoms: C_21  and  C_22
REMARK    6  A    between atoms: C_27  and  O_28
REMARK                            x       y       z     vdW  Elec       q    Type
REMARK                         _______ _______ _______ _____ _____    ______ ____
ROOT
ATOM      1  N   UNL     1       1.339   9.010  19.465  0.00  0.00    +0.000 N 
ATOM      2  N   UNL     1       2.439   8.198  19.509  0.00  0.00    +0.000 NA
ATOM      3  C   UNL     1       2.620   7.897  18.209  0.00  0.00    +0.000 A 
ATOM      4  N   UNL     1       1.854   8.634  17.341  0.00  0.00    +0.000 NA
ATOM      5  C   UNL     1       1.070   9.297  18.138  0.00  0.00    +0.000 A 
ENDROOT
BRANCH   1  12
ATOM      6  C   UNL     1       0.130   8.692  21.579  0.00  0.00    +0.000 A 
ATOM      7  C   UNL     1      -0.622   9.220  22.629  0.00  0.00    +0.000 A 
ATOM      8  C   UNL     1      -0.779  10.601  22.739  0.00  0.00    +0.000 A 
ATOM      9  C   UNL     1      -0.149  11.448  21.822  0.00  0.00    +0.000 A 
ATOM     10 CL   UNL     1      -0.368  13.148  21.966  0.00  0.00    +0.000 Cl
ATOM     11  C   UNL     1       0.619  10.927  20.780  0.00  0.00    +0.000 A 
ATOM     12  C   UNL     1       0.714   9.536  20.623  0.00  0.00    +0.000 A 
BRANCH   6  13
ATOM     13  O   UNL     1       0.369   7.348  21.551  0.00  0.00    +0.000 OA
ATOM     14  H   UNL     1       1.151   7.164  21.005  0.00  0.00    +0.000 HD
ENDBRANCH   6  13
ENDBRANCH   1  12
BRANCH   3  15
ATOM     15  C   UNL     1       3.607   6.947  17.697  0.00  0.00    +0.000 A 
ATOM     16  C   UNL     1       4.830   7.446  17.207  0.00  0.00    +0.000 A 
ATOM     17  C   UNL     1       5.783   6.601  16.622  0.00  0.00    +0.000 A 
ATOM     18  C   UNL     1       5.540   5.229  16.510  0.00  0.00    +0.000 A 
ATOM     19  C   UNL     1       4.333   4.726  17.014  0.00  0.00    +0.000 A 
ATOM     20  C   UNL     1       3.362   5.560  17.622  0.00  0.00    +0.000 A 
BRANCH  18  21
ATOM     21  C   UNL     1       6.540   4.293  15.870  0.00  0.00    +0.000 C 
ATOM     22  F   UNL     1       7.613   4.014  16.659  0.00  0.00    +0.000 F 
ATOM     23  F   UNL     1       5.989   3.090  15.546  0.00  0.00    +0.000 F 
ATOM     24  F   UNL     1       7.049   4.794  14.710  0.00  0.00    +0.000 F 
ENDBRANCH  18  21
BRANCH  20  25
ATOM     25  C   UNL     1       2.126   4.860  18.150  0.00  0.00    +0.000 C 
ATOM     26  F   UNL     1       1.720   5.165  19.407  0.00  0.00    +0.000 F 
ATOM     27  F   UNL     1       1.047   5.051  17.337  0.00  0.00    +0.000 F 
ATOM     28  F   UNL     1       2.311   3.504  18.175  0.00  0.00    +0.000 F 
ENDBRANCH  20  25
ENDBRANCH   3  15
BRANCH   5  29
ATOM     29  O   UNL     1       0.240  10.224  17.683  0.00  0.00    +0.000 OA
ATOM     30  H   UNL     1      -0.078   9.818  16.859  0.00  0.00    +0.000 HD
ENDBRANCH   5  29
TORSDOF 6
ENDMDL
MODEL 6
REMARK VINA RESULT:      -8.2      0.715      1.256
REMARK  Name = 
REMARK  6 active torsions:
REMARK  status: ('A' for Active; 'I' for Inactive)
REMARK    1  A    between atoms: O_1  and  C_2
REMARK    2  A    between atoms: C_8  and  N_9
REMARK    3  A    between atoms: C_11  and  C_12
REMARK    4  A    between atoms: C_15  and  C_16
REMARK    5  A    between atoms: C_21  and  C_22
REMARK    6  A    between atoms: C_27  and  O_28
REMARK                            x       y       z     vdW  Elec       q    Type
REMARK                         _______ _______ _______ _____ _____    ______ ____
ROOT
ATOM      1  N   UNL     1       1.234   8.914  19.184  0.00  0.00    +0.000 N 
ATOM      2  N   UNL     1       1.872   8.388  18.094  0.00  0.00    +0.000 NA
ATOM      3  C   UNL     1       2.634   7.427  18.650  0.00  0.00    +0.000 A 
ATOM      4  N   UNL     1       2.354   7.168  19.968  0.00  0.00    +0.000 NA
ATOM      5  C   UNL     1       1.503   8.102  20.273  0.00  0.00    +0.000 A 
ENDROOT
BRANCH   1  12
ATOM      6  C   UNL     1       0.337  11.002  20.116  0.00  0.00    +0.000 A 
ATOM      7  C   UNL     1      -0.638  12.000  20.119  0.00  0.00    +0.000 A 
ATOM      8  C   UNL     1      -1.590  12.037  19.101  0.00  0.00    +0.000 A 
ATOM      9  C   UNL     1      -1.537  11.100  18.065  0.00  0.00    +0.000 A 
ATOM     10 CL   UNL     1      -2.731  11.154  16.827  0.00  0.00    +0.000 Cl
ATOM     11  C   UNL     1      -0.555  10.110  18.047  0.00  0.00    +0.000 A 
ATOM     12  C   UNL     1       0.357  10.025  19.110  0.00  0.00    +0.000 A 
BRANCH   6  13
ATOM     13  O   UNL     1       1.328  11.048  21.054  0.00  0.00    +0.000 OA
ATOM     14  H   UNL     1       1.009  11.507  21.848  0.00  0.00    +0.000 HD
ENDBRANCH   6  13
ENDBRANCH   1  12
BRANCH   3  15
ATOM     15  C   UNL     1       3.623   6.620  17.934  0.00  0.00    +0.000 A 
ATOM     16  C   UNL     1       4.847   7.217  17.577  0.00  0.00    +0.000 A 
ATOM     17  C   UNL     1       5.801   6.529  16.815  0.00  0.00    +0.000 A 
ATOM     18  C   UNL     1       5.558   5.221  16.388  0.00  0.00    +0.000 A 
ATOM     19  C   UNL     1       4.349   4.616  16.758  0.00  0.00    +0.000 A 
ATOM     20  C   UNL     1       3.376   5.288  17.539  0.00  0.00    +0.000 A 
BRANCH  18  21
ATOM     21  C   UNL     1       6.560   4.458  15.551  0.00  0.00    +0.000 C 
ATOM     22  F   UNL     1       7.744   4.233  16.182  0.00  0.00    +0.000 F 
ATOM     23  F   UNL     1       6.095   3.233  15.178  0.00  0.00    +0.000 F 
ATOM     24  F   UNL     1       6.869   5.107  14.394  0.00  0.00    +0.000 F 
ENDBRANCH  18  21
BRANCH  20  25
ATOM     25  C   UNL     1       2.139   4.486  17.888  0.00  0.00    +0.000 C 
ATOM     26  F   UNL     1       2.048   3.226  17.397  0.00  0.00    +0.000 F 
ATOM     27  F   UNL     1       1.958   4.391  19.237  0.00  0.00    +0.000 F 
ATOM     28  F   UNL     1       1.011   5.110  17.426  0.00  0.00    +0.000 F 
ENDBRANCH  20  25
ENDBRANCH   3  15
BRANCH   5  29
ATOM     29  O   UNL     1       0.895   8.132  21.449  0.00  0.00    +0.000 OA
ATOM     30  H   UNL     1       0.142   8.719  21.269  0.00  0.00    +0.000 HD
ENDBRANCH   5  29
TORSDOF 6
ENDMDL
MODEL 7
REMARK VINA RESULT:      -8.1      1.890      2.822
REMARK  Name = 
REMARK  6 active torsions:
REMARK  status: ('A' for Active; 'I' for Inactive)
REMARK    1  A    between atoms: O_1  and  C_2
REMARK    2  A    between atoms: C_8  and  N_9
REMARK    3  A    between atoms: C_11  and  C_12
REMARK    4  A    between atoms: C_15  and  C_16
REMARK    5  A    between atoms: C_21  and  C_22
REMARK    6  A    between atoms: C_27  and  O_28
REMARK                            x       y       z     vdW  Elec       q    Type
REMARK                         _______ _______ _______ _____ _____    ______ ____
ROOT
ATOM      1  N   UNL     1       1.350   9.024  19.447  0.00  0.00    +0.000 N 
ATOM      2  N   UNL     1       2.453   8.215  19.493  0.00  0.00    +0.000 NA
ATOM      3  C   UNL     1       2.632   7.910  18.193  0.00  0.00    +0.000 A 
ATOM      4  N   UNL     1       1.863   8.641  17.324  0.00  0.00    +0.000 NA
ATOM      5  C   UNL     1       1.078   9.305  18.119  0.00  0.00    +0.000 A 
ENDROOT
BRANCH   1  12
ATOM      6  C   UNL     1       0.161   8.710  21.573  0.00  0.00    +0.000 A 
ATOM      7  C   UNL     1      -0.592   9.238  22.623  0.00  0.00    +0.000 A 
ATOM      8  C   UNL     1      -0.769  10.617  22.719  0.00  0.00    +0.000 A 
ATOM      9  C   UNL     1      -0.158  11.463  21.789  0.00  0.00    +0.000 A 
ATOM     10 CL   UNL     1      -0.402  13.162  21.917  0.00  0.00    +0.000 Cl
ATOM     11  C   UNL     1       0.610  10.944  20.747  0.00  0.00    +0.000 A 
ATOM     12  C   UNL     1       0.725   9.553  20.604  0.00  0.00    +0.000 A 
BRANCH   6  13
ATOM     13  O   UNL     1       0.419   7.369  21.558  0.00  0.00    +0.000 OA
ATOM     14  H   UNL     1       0.234   7.008  20.675  0.00  0.00    +0.000 HD
ENDBRANCH   6  13
ENDBRANCH   1  12
BRANCH   3  15
ATOM     15  C   UNL     1       3.622   6.961  17.683  0.00  0.00    +0.000 A 
ATOM     16  C   UNL     1       4.850   7.459  17.209  0.00  0.00    +0.000 A 
ATOM     17  C   UNL     1       5.806   6.616  16.626  0.00  0.00    +0.000 A 
ATOM     18  C   UNL     1       5.561   5.246  16.502  0.00  0.00    +0.000 A 
ATOM     19  C   UNL     1       4.348   4.742  16.992  0.00  0.00    +0.000 A 
ATOM     20  C   UNL     1       3.373   5.575  17.597  0.00  0.00    +0.000 A 
BRANCH  18  21
ATOM     21  C   UNL     1       6.564   4.311  15.865  0.00  0.00    +0.000 C 
ATOM     22  F   UNL     1       7.102   4.789  14.709  0.00  0.00    +0.000 F 
ATOM     23  F   UNL     1       7.617   4.043  16.687  0.00  0.00    +0.000 F 
ATOM     24  F   UNL     1       6.019   3.103  15.552  0.00  0.00    +0.000 F 
ENDBRANCH  18  21
BRANCH  20  25
ATOM     25  C   UNL     1       2.131   4.874  18.109  0.00  0.00    +0.000 C 
ATOM     26  F   UNL     1       2.113   3.520  18.072  0.00  0.00    +0.000 F 
ATOM     27  F   UNL     1       1.840   5.231  19.393  0.00  0.00    +0.000 F 
ATOM     28  F   UNL     1       1.031   5.246  17.384  0.00  0.00    +0.000 F 
ENDBRANCH  20  25
ENDBRANCH   3  15
BRANCH   5  29
ATOM     29  O   UNL     1       0.245  10.227  17.662  0.00  0.00    +0.000 OA
ATOM     30  H   UNL     1      -0.443  10.231  18.348  0.00  0.00    +0.000 HD
ENDBRANCH   5  29
TORSDOF 6
ENDMDL
MODEL 8
REMARK VINA RESULT:      -8.0      1.590      1.820
REMARK  Name = 
REMARK  6 active torsions:
REMARK  status: ('A' for Active; 'I' for Inactive)
REMARK    1  A    between atoms: O_1  and  C_2
REMARK    2  A    between atoms: C_8  and  N_9
REMARK    3  A    between atoms: C_11  and  C_12
REMARK    4  A    between atoms: C_15  and  C_16
REMARK    5  A    between atoms: C_21  and  C_22
REMARK    6  A    between atoms: C_27  and  O_28
REMARK                            x       y       z     vdW  Elec       q    Type
REMARK                         _______ _______ _______ _____ _____    ______ ____
ROOT
ATOM      1  N   UNL     1       1.398   9.015  19.308  0.00  0.00    +0.000 N 
ATOM      2  N   UNL     1       2.019   8.534  18.187  0.00  0.00    +0.000 NA
ATOM      3  C   UNL     1       2.647   7.440  18.660  0.00  0.00    +0.000 A 
ATOM      4  N   UNL     1       2.287   7.082  19.934  0.00  0.00    +0.000 NA
ATOM      5  C   UNL     1       1.532   8.070  20.311  0.00  0.00    +0.000 A 
ENDROOT
BRANCH   1  12
ATOM      6  C   UNL     1      -0.254  10.527  18.301  0.00  0.00    +0.000 A 
ATOM      7  C   UNL     1      -0.862  11.782  18.242  0.00  0.00    +0.000 A 
ATOM      8  C   UNL     1      -0.579  12.732  19.222  0.00  0.00    +0.000 A 
ATOM      9  C   UNL     1       0.278  12.407  20.279  0.00  0.00    +0.000 A 
ATOM     10 CL   UNL     1       0.625  13.599  21.470  0.00  0.00    +0.000 Cl
ATOM     11  C   UNL     1       0.874  11.149  20.353  0.00  0.00    +0.000 A 
ATOM     12  C   UNL     1       0.651  10.219  19.327  0.00  0.00    +0.000 A 
BRANCH   6  13
ATOM     13  O   UNL     1      -0.629   9.572  17.400  0.00  0.00    +0.000 OA
ATOM     14  H   UNL     1       0.020   8.848  17.399  0.00  0.00    +0.000 HD
ENDBRANCH   6  13
ENDBRANCH   1  12
BRANCH   3  15
ATOM     15  C   UNL     1       3.570   6.605  17.891  0.00  0.00    +0.000 A 
ATOM     16  C   UNL     1       4.794   7.162  17.474  0.00  0.00    +0.000 A 
ATOM     17  C   UNL     1       5.684   6.447  16.661  0.00  0.00    +0.000 A 
ATOM     18  C   UNL     1       5.375   5.149  16.243  0.00  0.00    +0.000 A 
ATOM     19  C   UNL     1       4.167   4.583  16.673  0.00  0.00    +0.000 A 
ATOM     20  C   UNL     1       3.259   5.284  17.506  0.00  0.00    +0.000 A 
BRANCH  18  21
ATOM     21  C   UNL     1       6.306   4.357  15.353  0.00  0.00    +0.000 C 
ATOM     22  F   UNL     1       6.056   3.019  15.352  0.00  0.00    +0.000 F 
ATOM     23  F   UNL     1       6.239   4.753  14.052  0.00  0.00    +0.000 F 
ATOM     24  F   UNL     1       7.611   4.494  15.718  0.00  0.00    +0.000 F 
ENDBRANCH  18  21
BRANCH  20  25
ATOM     25  C   UNL     1       2.014   4.522  17.915  0.00  0.00    +0.000 C 
ATOM     26  F   UNL     1       1.769   4.385  19.241  0.00  0.00    +0.000 F 
ATOM     27  F   UNL     1       0.887   5.058  17.365  0.00  0.00    +0.000 F 
ATOM     28  F   UNL     1       2.057   3.237  17.446  0.00  0.00    +0.000 F 
ENDBRANCH  20  25
ENDBRANCH   3  15
BRANCH   5  29
ATOM     29  O   UNL     1       0.883   8.048  21.465  0.00  0.00    +0.000 OA
ATOM     30  H   UNL     1       0.971   8.969  21.761  0.00  0.00    +0.000 HD
ENDBRANCH   5  29
TORSDOF 6
ENDMDL
MODEL 9
REMARK VINA RESULT:      -8.0      1.578      1.673
REMARK  Name = 
REMARK  6 active torsions:
REMARK  status: ('A' for Active; 'I' for Inactive)
REMARK    1  A    between atoms: O_1  and  C_2
REMARK    2  A    between atoms: C_8  and  N_9
REMARK    3  A    between atoms: C_11  and  C_12
REMARK    4  A    between atoms: C_15  and  C_16
REMARK    5  A    between atoms: C_21  and  C_22
REMARK    6  A    between atoms: C_27  and  O_28
REMARK                            x       y       z     vdW  Elec       q    Type
REMARK                         _______ _______ _______ _____ _____    ______ ____
ROOT
ATOM      1  N   UNL     1       1.685   8.622  19.440  0.00  0.00    +0.000 N 
ATOM      2  N   UNL     1       2.206   8.189  18.250  0.00  0.00    +0.000 NA
ATOM      3  C   UNL     1       2.865   7.074  18.620  0.00  0.00    +0.000 A 
ATOM      4  N   UNL     1       2.612   6.661  19.904  0.00  0.00    +0.000 NA
ATOM      5  C   UNL     1       1.897   7.634  20.386  0.00  0.00    +0.000 A 
ENDROOT
BRANCH   1  12
ATOM      6  C   UNL     1       1.149  10.899  18.693  0.00  0.00    +0.000 A 
ATOM      7  C   UNL     1       0.544  12.134  18.928  0.00  0.00    +0.000 A 
ATOM      8  C   UNL     1      -0.280  12.297  20.041  0.00  0.00    +0.000 A 
ATOM      9  C   UNL     1      -0.527  11.213  20.888  0.00  0.00    +0.000 A 
ATOM     10 CL   UNL     1      -1.535  11.440  22.264  0.00  0.00    +0.000 Cl
ATOM     11  C   UNL     1       0.060   9.971  20.649  0.00  0.00    +0.000 A 
ATOM     12  C   UNL     1       0.951   9.826  19.574  0.00  0.00    +0.000 A 
BRANCH   6  13
ATOM     13  O   UNL     1       1.859  10.723  17.540  0.00  0.00    +0.000 OA
ATOM     14  H   UNL     1       1.692  11.464  16.934  0.00  0.00    +0.000 HD
ENDBRANCH   6  13
ENDBRANCH   1  12
BRANCH   3  15
ATOM     15  C   UNL     1       3.714   6.271  17.741  0.00  0.00    +0.000 A 
ATOM     16  C   UNL     1       4.888   6.852  17.223  0.00  0.00    +0.000 A 
ATOM     17  C   UNL     1       5.699   6.170  16.306  0.00  0.00    +0.000 A 
ATOM     18  C   UNL     1       5.360   4.882  15.881  0.00  0.00    +0.000 A 
ATOM     19  C   UNL     1       4.204   4.292  16.410  0.00  0.00    +0.000 A 
ATOM     20  C   UNL     1       3.377   4.959  17.348  0.00  0.00    +0.000 A 
BRANCH  18  21
ATOM     21  C   UNL     1       6.205   4.125  14.882  0.00  0.00    +0.000 C 
ATOM     22  F   UNL     1       6.286   2.790  15.132  0.00  0.00    +0.000 F 
ATOM     23  F   UNL     1       5.731   4.242  13.610  0.00  0.00    +0.000 F 
ATOM     24  F   UNL     1       7.490   4.577  14.843  0.00  0.00    +0.000 F 
ENDBRANCH  18  21
BRANCH  20  25
ATOM     25  C   UNL     1       2.184   4.172  17.853  0.00  0.00    +0.000 C 
ATOM     26  F   UNL     1       2.119   3.915  19.182  0.00  0.00    +0.000 F 
ATOM     27  F   UNL     1       1.004   4.767  17.515  0.00  0.00    +0.000 F 
ATOM     28  F   UNL     1       2.135   2.937  17.267  0.00  0.00    +0.000 F 
ENDBRANCH  20  25
ENDBRANCH   3  15
BRANCH   5  29
ATOM     29  O   UNL     1       1.349   7.562  21.589  0.00  0.00    +0.000 OA
ATOM     30  H   UNL     1       0.773   6.785  21.499  0.00  0.00    +0.000 HD
ENDBRANCH   5  29
TORSDOF 6
ENDMDL
