MODEL 1
REMARK VINA RESULT:      -7.4      0.000      0.000
REMARK  Name = 
REMARK  3 active torsions:
REMARK  status: ('A' for Active; 'I' for Inactive)
REMARK    1  A    between atoms: C_1  and  O_2
REMARK    2  A    between atoms: O_2  and  C_3
REMARK    3  A    between atoms: C_12  and  C_13
REMARK                            x       y       z     vdW  Elec       q    Type
REMARK                         _______ _______ _______ _____ _____    ______ ____
ROOT
ATOM      1  C   UNL     1       2.125   3.347  19.711  0.00  0.00    +0.000 A 
ATOM      2  C   UNL     1       2.929   3.179  18.577  0.00  0.00    +0.000 A 
ATOM      3  C   UNL     1       3.436   4.283  17.888  0.00  0.00    +0.000 A 
ATOM      4  C   UNL     1       3.122   5.556  18.325  0.00  0.00    +0.000 A 
ATOM      5  C   UNL     1       2.241   5.725  19.394  0.00  0.00    +0.000 A 
ATOM      6  C   UNL     1       1.743   4.630  20.103  0.00  0.00    +0.000 A 
ATOM      7  C   UNL     1       1.989   7.178  19.667  0.00  0.00    +0.000 C 
ATOM      8  C   UNL     1       2.574   7.863  18.415  0.00  0.00    +0.000 C 
ATOM      9  C   UNL     1       3.538   6.864  17.810  0.00  0.00    +0.000 C 
ATOM     10  C   UNL     1       4.605   7.197  17.053  0.00  0.00    +0.000 C 
ENDROOT
BRANCH  10  11
ATOM     11  C   UNL     1       5.637   6.266  16.585  0.00  0.00    +0.000 A 
ATOM     12  C   UNL     1       5.570   5.692  15.317  0.00  0.00    +0.000 A 
ATOM     13  C   UNL     1       6.467   4.679  15.008  0.00  0.00    +0.000 A 
ATOM     14  N   UNL     1       7.442   4.255  15.842  0.00  0.00    +0.000 NA
ATOM     15  C   UNL     1       7.525   4.875  17.039  0.00  0.00    +0.000 A 
ATOM     16  C   UNL     1       6.655   5.869  17.454  0.00  0.00    +0.000 A 
ENDBRANCH  10  11
BRANCH   1  18
ATOM     17  C   UNL     1       1.512   2.579  21.848  0.00  0.00    +0.000 C 
ATOM     18  O   UNL     1       1.670   2.292  20.458  0.00  0.00    +0.000 OA
ENDBRANCH   1  18
TORSDOF 2
ENDMDL
MODEL 2
REMARK VINA RESULT:      -7.4      0.231      1.129
REMARK  Name = 
REMARK  3 active torsions:
REMARK  status: ('A' for Active; 'I' for Inactive)
REMARK    1  A    between atoms: C_1  and  O_2
REMARK    2  A    between atoms: O_2  and  C_3
REMARK    3  A    between atoms: C_12  and  C_13
REMARK                            x       y       z     vdW  Elec       q    Type
REMARK                         _______ _______ _______ _____ _____    ______ ____
ROOT
ATOM      1  C   UNL     1       1.813   3.470  19.767  0.00  0.00    +0.000 A 
ATOM      2  C   UNL     1       2.601   3.228  18.635  0.00  0.00    +0.000 A 
ATOM      3  C   UNL     1       3.190   4.281  17.933  0.00  0.00    +0.000 A 
ATOM      4  C   UNL     1       2.973   5.580  18.354  0.00  0.00    +0.000 A 
ATOM      5  C   UNL     1       2.108   5.829  19.420  0.00  0.00    +0.000 A 
ATOM      6  C   UNL     1       1.529   4.783  20.142  0.00  0.00    +0.000 A 
ATOM      7  C   UNL     1       1.967   7.299  19.676  0.00  0.00    +0.000 C 
ATOM      8  C   UNL     1       2.601   7.923  18.416  0.00  0.00    +0.000 C 
ATOM      9  C   UNL     1       3.487   6.846  17.823  0.00  0.00    +0.000 C 
ATOM     10  C   UNL     1       4.576   7.088  17.062  0.00  0.00    +0.000 C 
ENDROOT
BRANCH  10  11
ATOM     11  C   UNL     1       5.534   6.076  16.607  0.00  0.00    +0.000 A 
ATOM     12  C   UNL     1       6.522   5.582  17.458  0.00  0.00    +0.000 A 
ATOM     13  C   UNL     1       7.510   4.773  16.915  0.00  0.00    +0.000 A 
ATOM     14  N   UNL     1       7.540   4.384  15.621  0.00  0.00    +0.000 NA
ATOM     15  C   UNL     1       6.534   4.824  14.835  0.00  0.00    +0.000 A 
ATOM     16  C   UNL     1       5.523   5.663  15.273  0.00  0.00    +0.000 A 
ENDBRANCH  10  11
BRANCH   1  18
ATOM     17  C   UNL     1       1.596   2.541  21.916  0.00  0.00    +0.000 C 
ATOM     18  O   UNL     1       1.279   2.461  20.526  0.00  0.00    +0.000 OA
ENDBRANCH   1  18
TORSDOF 2
ENDMDL
MODEL 3
REMARK VINA RESULT:      -7.3      3.336      5.990
REMARK  Name = 
REMARK  3 active torsions:
REMARK  status: ('A' for Active; 'I' for Inactive)
REMARK    1  A    between atoms: C_1  and  O_2
REMARK    2  A    between atoms: O_2  and  C_3
REMARK    3  A    between atoms: C_12  and  C_13
REMARK                            x       y       z     vdW  Elec       q    Type
REMARK                         _______ _______ _______ _____ _____    ______ ____
ROOT
ATOM      1  C   UNL     1       6.716   4.512  14.467  0.00  0.00    +0.000 A 
ATOM      2  C   UNL     1       5.779   3.612  14.991  0.00  0.00    +0.000 A 
ATOM      3  C   UNL     1       5.411   3.664  16.336  0.00  0.00    +0.000 A 
ATOM      4  C   UNL     1       5.994   4.606  17.162  0.00  0.00    +0.000 A 
ATOM      5  C   UNL     1       7.000   5.438  16.665  0.00  0.00    +0.000 A 
ATOM      6  C   UNL     1       7.363   5.408  15.317  0.00  0.00    +0.000 A 
ATOM      7  C   UNL     1       7.537   6.341  17.734  0.00  0.00    +0.000 C 
ATOM      8  C   UNL     1       6.958   5.722  19.022  0.00  0.00    +0.000 C 
ATOM      9  C   UNL     1       5.770   4.889  18.582  0.00  0.00    +0.000 C 
ATOM     10  C   UNL     1       4.707   4.605  19.365  0.00  0.00    +0.000 C 
ENDROOT
BRANCH  10  11
ATOM     11  C   UNL     1       3.480   3.937  18.919  0.00  0.00    +0.000 A 
ATOM     12  C   UNL     1       2.477   4.639  18.254  0.00  0.00    +0.000 A 
ATOM     13  C   UNL     1       1.267   3.998  18.029  0.00  0.00    +0.000 A 
ATOM     14  N   UNL     1       1.022   2.712  18.362  0.00  0.00    +0.000 NA
ATOM     15  C   UNL     1       2.035   2.036  18.946  0.00  0.00    +0.000 A 
ATOM     16  C   UNL     1       3.265   2.597  19.245  0.00  0.00    +0.000 A 
ENDBRANCH  10  11
BRANCH   1  18
ATOM     17  C   UNL     1       6.401   3.546  12.346  0.00  0.00    +0.000 C 
ATOM     18  O   UNL     1       7.048   4.543  13.137  0.00  0.00    +0.000 OA
ENDBRANCH   1  18
TORSDOF 2
ENDMDL
MODEL 4
REMARK VINA RESULT:      -7.2      3.224      5.925
REMARK  Name = 
REMARK  3 active torsions:
REMARK  status: ('A' for Active; 'I' for Inactive)
REMARK    1  A    between atoms: C_1  and  O_2
REMARK    2  A    between atoms: O_2  and  C_3
REMARK    3  A    between atoms: C_12  and  C_13
REMARK                            x       y       z     vdW  Elec       q    Type
REMARK                         _______ _______ _______ _____ _____    ______ ____
ROOT
ATOM      1  C   UNL     1       6.489   4.390  14.377  0.00  0.00    +0.000 A 
ATOM      2  C   UNL     1       5.545   3.567  15.004  0.00  0.00    +0.000 A 
ATOM      3  C   UNL     1       5.244   3.725  16.358  0.00  0.00    +0.000 A 
ATOM      4  C   UNL     1       5.903   4.695  17.089  0.00  0.00    +0.000 A 
ATOM      5  C   UNL     1       6.915   5.448  16.491  0.00  0.00    +0.000 A 
ATOM      6  C   UNL     1       7.211   5.313  15.133  0.00  0.00    +0.000 A 
ATOM      7  C   UNL     1       7.539   6.397  17.469  0.00  0.00    +0.000 C 
ATOM      8  C   UNL     1       6.998   5.891  18.822  0.00  0.00    +0.000 C 
ATOM      9  C   UNL     1       5.759   5.082  18.495  0.00  0.00    +0.000 C 
ATOM     10  C   UNL     1       4.725   4.897  19.344  0.00  0.00    +0.000 C 
ENDROOT
BRANCH  10  11
ATOM     11  C   UNL     1       3.453   4.253  19.001  0.00  0.00    +0.000 A 
ATOM     12  C   UNL     1       3.214   2.915  19.311  0.00  0.00    +0.000 A 
ATOM     13  C   UNL     1       2.075   2.315  18.793  0.00  0.00    +0.000 A 
ATOM     14  N   UNL     1       1.149   2.966  18.056  0.00  0.00    +0.000 NA
ATOM     15  C   UNL     1       1.373   4.278  17.826  0.00  0.00    +0.000 A 
ATOM     16  C   UNL     1       2.497   4.957  18.268  0.00  0.00    +0.000 A 
ENDBRANCH  10  11
BRANCH   1  18
ATOM     17  C   UNL     1       6.021   3.310  12.341  0.00  0.00    +0.000 C 
ATOM     18  O   UNL     1       6.758   4.317  13.035  0.00  0.00    +0.000 OA
ENDBRANCH   1  18
TORSDOF 2
ENDMDL
MODEL 5
REMARK VINA RESULT:      -6.9      2.759      5.432
REMARK  Name = 
REMARK  3 active torsions:
REMARK  status: ('A' for Active; 'I' for Inactive)
REMARK    1  A    between atoms: C_1  and  O_2
REMARK    2  A    between atoms: O_2  and  C_3
REMARK    3  A    between atoms: C_12  and  C_13
REMARK                            x       y       z     vdW  Elec       q    Type
REMARK                         _______ _______ _______ _____ _____    ______ ____
ROOT
ATOM      1  C   UNL     1       5.277   5.887  16.530  0.00  0.00    +0.000 A 
ATOM      2  C   UNL     1       5.124   4.973  17.580  0.00  0.00    +0.000 A 
ATOM      3  C   UNL     1       4.175   5.185  18.582  0.00  0.00    +0.000 A 
ATOM      4  C   UNL     1       3.391   6.323  18.542  0.00  0.00    +0.000 A 
ATOM      5  C   UNL     1       3.610   7.283  17.553  0.00  0.00    +0.000 A 
ATOM      6  C   UNL     1       4.543   7.073  16.535  0.00  0.00    +0.000 A 
ATOM      7  C   UNL     1       2.698   8.460  17.724  0.00  0.00    +0.000 C 
ATOM      8  C   UNL     1       2.123   8.238  19.139  0.00  0.00    +0.000 C 
ATOM      9  C   UNL     1       2.319   6.766  19.438  0.00  0.00    +0.000 C 
ATOM     10  C   UNL     1       1.548   6.052  20.286  0.00  0.00    +0.000 C 
ENDROOT
BRANCH  10  11
ATOM     11  C   UNL     1       1.616   4.600  20.475  0.00  0.00    +0.000 A 
ATOM     12  C   UNL     1       2.333   4.042  21.533  0.00  0.00    +0.000 A 
ATOM     13  C   UNL     1       2.518   2.667  21.547  0.00  0.00    +0.000 A 
ATOM     14  N   UNL     1       1.993   1.826  20.629  0.00  0.00    +0.000 NA
ATOM     15  C   UNL     1       1.248   2.387  19.653  0.00  0.00    +0.000 A 
ATOM     16  C   UNL     1       1.036   3.751  19.531  0.00  0.00    +0.000 A 
ENDBRANCH  10  11
BRANCH   1  18
ATOM     17  C   UNL     1       6.420   4.304  15.219  0.00  0.00    +0.000 C 
ATOM     18  O   UNL     1       6.143   5.679  15.489  0.00  0.00    +0.000 OA
ENDBRANCH   1  18
TORSDOF 2
ENDMDL
MODEL 6
REMARK VINA RESULT:      -6.9      2.940      5.595
REMARK  Name = 
REMARK  3 active torsions:
REMARK  status: ('A' for Active; 'I' for Inactive)
REMARK    1  A    between atoms: C_1  and  O_2
REMARK    2  A    between atoms: O_2  and  C_3
REMARK    3  A    between atoms: C_12  and  C_13
REMARK                            x       y       z     vdW  Elec       q    Type
REMARK                         _______ _______ _______ _____ _____    ______ ____
ROOT
ATOM      1  C   UNL     1       3.063   7.898  17.754  0.00  0.00    +0.000 A 
ATOM      2  C   UNL     1       2.176   6.945  18.270  0.00  0.00    +0.000 A 
ATOM      3  C   UNL     1       2.448   5.580  18.159  0.00  0.00    +0.000 A 
ATOM      4  C   UNL     1       3.601   5.169  17.516  0.00  0.00    +0.000 A 
ATOM      5  C   UNL     1       4.434   6.114  16.915  0.00  0.00    +0.000 A 
ATOM      6  C   UNL     1       4.183   7.482  17.036  0.00  0.00    +0.000 A 
ATOM      7  C   UNL     1       5.591   5.457  16.224  0.00  0.00    +0.000 C 
ATOM      8  C   UNL     1       5.174   3.973  16.202  0.00  0.00    +0.000 C 
ATOM      9  C   UNL     1       4.130   3.821  17.291  0.00  0.00    +0.000 C 
ATOM     10  C   UNL     1       3.878   2.670  17.949  0.00  0.00    +0.000 C 
ENDROOT
BRANCH  10  11
ATOM     11  C   UNL     1       2.988   2.533  19.107  0.00  0.00    +0.000 A 
ATOM     12  C   UNL     1       1.616   2.346  18.945  0.00  0.00    +0.000 A 
ATOM     13  C   UNL     1       0.808   2.415  20.070  0.00  0.00    +0.000 A 
ATOM     14  N   UNL     1       1.276   2.593  21.325  0.00  0.00    +0.000 NA
ATOM     15  C   UNL     1       2.615   2.705  21.460  0.00  0.00    +0.000 A 
ATOM     16  C   UNL     1       3.501   2.686  20.396  0.00  0.00    +0.000 A 
ENDBRANCH  10  11
BRANCH   1  18
ATOM     17  C   UNL     1       1.502   9.634  18.041  0.00  0.00    +0.000 C 
ATOM     18  O   UNL     1       2.870   9.247  17.908  0.00  0.00    +0.000 OA
ENDBRANCH   1  18
TORSDOF 2
ENDMDL
MODEL 7
REMARK VINA RESULT:      -6.7      2.842      5.443
REMARK  Name = 
REMARK  3 active torsions:
REMARK  status: ('A' for Active; 'I' for Inactive)
REMARK    1  A    between atoms: C_1  and  O_2
REMARK    2  A    between atoms: O_2  and  C_3
REMARK    3  A    between atoms: C_12  and  C_13
REMARK                            x       y       z     vdW  Elec       q    Type
REMARK                         _______ _______ _______ _____ _____    ______ ____
ROOT
ATOM      1  C   UNL     1       5.189   6.104  16.415  0.00  0.00    +0.000 A 
ATOM      2  C   UNL     1       5.097   5.173  17.457  0.00  0.00    +0.000 A 
ATOM      3  C   UNL     1       4.182   5.350  18.496  0.00  0.00    +0.000 A 
ATOM      4  C   UNL     1       3.371   6.470  18.502  0.00  0.00    +0.000 A 
ATOM      5  C   UNL     1       3.531   7.447  17.518  0.00  0.00    +0.000 A 
ATOM      6  C   UNL     1       4.429   7.272  16.463  0.00  0.00    +0.000 A 
ATOM      7  C   UNL     1       2.600   8.601  17.740  0.00  0.00    +0.000 C 
ATOM      8  C   UNL     1       2.085   8.348  19.172  0.00  0.00    +0.000 C 
ATOM      9  C   UNL     1       2.324   6.877  19.443  0.00  0.00    +0.000 C 
ATOM     10  C   UNL     1       1.602   6.134  20.310  0.00  0.00    +0.000 C 
ENDROOT
BRANCH  10  11
ATOM     11  C   UNL     1       1.711   4.681  20.476  0.00  0.00    +0.000 A 
ATOM     12  C   UNL     1       1.037   3.805  19.628  0.00  0.00    +0.000 A 
ATOM     13  C   UNL     1       1.026   2.456  19.953  0.00  0.00    +0.000 A 
ATOM     14  N   UNL     1       1.682   1.930  21.011  0.00  0.00    +0.000 NA
ATOM     15  C   UNL     1       2.381   2.794  21.778  0.00  0.00    +0.000 A 
ATOM     16  C   UNL     1       2.423   4.160  21.558  0.00  0.00    +0.000 A 
ENDBRANCH  10  11
BRANCH   1  18
ATOM     17  C   UNL     1       6.976   4.881  15.497  0.00  0.00    +0.000 C 
ATOM     18  O   UNL     1       6.020   5.930  15.338  0.00  0.00    +0.000 OA
ENDBRANCH   1  18
TORSDOF 2
ENDMDL
MODEL 8
REMARK VINA RESULT:      -6.3      1.892      3.312
REMARK  Name = 
REMARK  3 active torsions:
REMARK  status: ('A' for Active; 'I' for Inactive)
REMARK    1  A    between atoms: C_1  and  O_2
REMARK    2  A    between atoms: O_2  and  C_3
REMARK    3  A    between atoms: C_12  and  C_13
REMARK                            x       y       z     vdW  Elec       q    Type
REMARK                         _______ _______ _______ _____ _____    ______ ____
ROOT
ATOM      1  C   UNL     1       1.663   6.125  20.539  0.00  0.00    +0.000 A 
ATOM      2  C   UNL     1       2.964   6.332  20.061  0.00  0.00    +0.000 A 
ATOM      3  C   UNL     1       3.620   5.347  19.321  0.00  0.00    +0.000 A 
ATOM      4  C   UNL     1       2.980   4.147  19.074  0.00  0.00    +0.000 A 
ATOM      5  C   UNL     1       1.725   3.902  19.633  0.00  0.00    +0.000 A 
ATOM      6  C   UNL     1       1.051   4.886  20.359  0.00  0.00    +0.000 A 
ATOM      7  C   UNL     1       1.237   2.526  19.294  0.00  0.00    +0.000 C 
ATOM      8  C   UNL     1       2.504   1.848  18.731  0.00  0.00    +0.000 C 
ATOM      9  C   UNL     1       3.425   2.976  18.313  0.00  0.00    +0.000 C 
ATOM     10  C   UNL     1       4.364   2.875  17.348  0.00  0.00    +0.000 C 
ENDROOT
BRANCH  10  11
ATOM     11  C   UNL     1       5.159   3.988  16.820  0.00  0.00    +0.000 A 
ATOM     12  C   UNL     1       4.820   4.612  15.620  0.00  0.00    +0.000 A 
ATOM     13  C   UNL     1       5.715   5.524  15.080  0.00  0.00    +0.000 A 
ATOM     14  N   UNL     1       6.869   5.892  15.677  0.00  0.00    +0.000 NA
ATOM     15  C   UNL     1       7.140   5.321  16.871  0.00  0.00    +0.000 A 
ATOM     16  C   UNL     1       6.330   4.373  17.474  0.00  0.00    +0.000 A 
ENDBRANCH  10  11
BRANCH   1  18
ATOM     17  C   UNL     1       1.290   8.430  20.825  0.00  0.00    +0.000 C 
ATOM     18  O   UNL     1       0.957   7.094  21.204  0.00  0.00    +0.000 OA
ENDBRANCH   1  18
TORSDOF 2
ENDMDL
MODEL 9
REMARK VINA RESULT:      -6.3      1.878      3.479
REMARK  Name = 
REMARK  3 active torsions:
REMARK  status: ('A' for Active; 'I' for Inactive)
REMARK    1  A    between atoms: C_1  and  O_2
REMARK    2  A    between atoms: O_2  and  C_3
REMARK    3  A    between atoms: C_12  and  C_13
REMARK                            x       y       z     vdW  Elec       q    Type
REMARK                         _______ _______ _______ _____ _____    ______ ____
ROOT
ATOM      1  C   UNL     1       1.593   6.041  20.526  0.00  0.00    +0.000 A 
ATOM      2  C   UNL     1       2.896   6.323  20.095  0.00  0.00    +0.000 A 
ATOM      3  C   UNL     1       3.626   5.385  19.362  0.00  0.00    +0.000 A 
ATOM      4  C   UNL     1       3.058   4.158  19.076  0.00  0.00    +0.000 A 
ATOM      5  C   UNL     1       1.801   3.838  19.590  0.00  0.00    +0.000 A 
ATOM      6  C   UNL     1       1.053   4.774  20.308  0.00  0.00    +0.000 A 
ATOM      7  C   UNL     1       1.397   2.444  19.215  0.00  0.00    +0.000 C 
ATOM      8  C   UNL     1       2.714   1.843  18.684  0.00  0.00    +0.000 C 
ATOM      9  C   UNL     1       3.588   3.024  18.313  0.00  0.00    +0.000 C 
ATOM     10  C   UNL     1       4.561   2.988  17.378  0.00  0.00    +0.000 C 
ENDROOT
BRANCH  10  11
ATOM     11  C   UNL     1       5.313   4.149  16.892  0.00  0.00    +0.000 A 
ATOM     12  C   UNL     1       6.510   4.537  17.493  0.00  0.00    +0.000 A 
ATOM     13  C   UNL     1       7.071   5.748  17.114  0.00  0.00    +0.000 A 
ATOM     14  N   UNL     1       6.560   6.548  16.152  0.00  0.00    +0.000 NA
ATOM     15  C   UNL     1       5.437   6.114  15.540  0.00  0.00    +0.000 A 
ATOM     16  C   UNL     1       4.782   4.940  15.873  0.00  0.00    +0.000 A 
ENDBRANCH  10  11
BRANCH   1  18
ATOM     17  C   UNL     1       1.318   8.297  21.133  0.00  0.00    +0.000 C 
ATOM     18  O   UNL     1       0.817   6.960  21.182  0.00  0.00    +0.000 OA
ENDBRANCH   1  18
TORSDOF 2
ENDMDL
