MODEL 1
REMARK VINA RESULT:      -8.3      0.000      0.000
REMARK  Name = 
REMARK  8 active torsions:
REMARK  status: ('A' for Active; 'I' for Inactive)
REMARK    1  A    between atoms: C_1  and  C_2
REMARK    2  A    between atoms: C_2  and  C_3
REMARK    3  A    between atoms: C_2  and  N_4
REMARK    4  A    between atoms: C_2  and  C_5
REMARK    5  A    between atoms: N_7  and  C_8
REMARK    6  A    between atoms: C_8  and  C_9
REMARK    7  A    between atoms: C_8  and  C_19
REMARK    8  A    between atoms: C_9  and  C_10
REMARK                            x       y       z     vdW  Elec       q    Type
REMARK                         _______ _______ _______ _____ _____    ______ ____
ROOT
ATOM      1  C   UNL     1       2.108   6.804  18.876  0.00  0.00    +0.000 C 
ENDROOT
BRANCH   1   2
ATOM      2  C   UNL     1       1.676   7.724  20.036  0.00  0.00    +0.000 C 
ATOM      3  O   UNL     1       2.087   7.453  21.156  0.00  0.00    +0.000 OA
ATOM      4  N   UNL     1       0.923   8.870  19.864  0.00  0.00    +0.000 N 
ATOM      5  C   UNL     1       0.661   9.787  20.977  0.00  0.00    +0.000 C 
ATOM      6  C   UNL     1       1.332  11.141  20.670  0.00  0.00    +0.000 C 
ATOM      7  C   UNL     1       0.865  11.709  19.301  0.00  0.00    +0.000 C 
ATOM      8  C   UNL     1      -0.608  12.232  19.357  0.00  0.00    +0.000 C 
ATOM      9  C   UNL     1      -0.588  13.739  19.028  0.00  0.00    +0.000 C 
ATOM     10  C   UNL     1       0.837  14.042  18.779  0.00  0.00    +0.000 A 
ATOM     11  C   UNL     1       1.366  15.285  18.420  0.00  0.00    +0.000 A 
ATOM     12  C   UNL     1       2.749  15.400  18.216  0.00  0.00    +0.000 A 
ATOM     13  C   UNL     1       3.579  14.279  18.378  0.00  0.00    +0.000 A 
ATOM     14  C   UNL     1       3.030  13.041  18.740  0.00  0.00    +0.000 A 
ATOM     15  C   UNL     1       1.643  12.940  18.936  0.00  0.00    +0.000 A 
ATOM     16  C   UNL     1       1.060  10.631  18.198  0.00  0.00    +0.000 C 
ATOM     17  C   UNL     1       0.389   9.304  18.578  0.00  0.00    +0.000 C 
ENDBRANCH   1   2
BRANCH   1  20
ATOM     18  C   UNL     1       1.725   4.356  18.545  0.00  0.00    +0.000 C 
ATOM     19  O   UNL     1       1.241   4.570  17.442  0.00  0.00    +0.000 OA
ATOM     20  N   UNL     1       2.177   5.404  19.306  0.00  0.00    +0.000 N 
ATOM     21  H   UNL     1       2.591   5.206  20.227  0.00  0.00    +0.000 HD
BRANCH  18  23
ATOM     22  C   UNL     1       1.485   2.865  20.549  0.00  0.00    +0.000 C 
ATOM     23  C   UNL     1       1.805   2.905  19.044  0.00  0.00    +0.000 C 
ATOM     24  C   UNL     1       3.213   2.324  18.790  0.00  0.00    +0.000 C 
BRANCH  23  25
ATOM     25  N   UNL     1       0.809   2.076  18.340  0.00  0.00    +0.000 NA
ATOM     26  H   UNL     1       1.239   1.588  17.519  0.00  0.00    +0.000 HD
ATOM     27  H   UNL     1       0.026   2.669  17.977  0.00  0.00    +0.000 HD
ENDBRANCH  23  25
ENDBRANCH  18  23
ENDBRANCH   1  20
BRANCH   1  28
ATOM     28  C   UNL     1       3.430   7.269  18.188  0.00  0.00    +0.000 C 
BRANCH  28  29
ATOM     29  C   UNL     1       4.575   6.283  18.187  0.00  0.00    +0.000 A 
ATOM     30  C   UNL     1       5.164   5.678  19.294  0.00  0.00    +0.000 A 
ATOM     31  N   UNL     1       6.177   4.873  18.904  0.00  0.00    +0.000 N 
ATOM     32  C   UNL     1       6.233   4.954  17.567  0.00  0.00    +0.000 A 
ATOM     33  C   UNL     1       7.128   4.296  16.722  0.00  0.00    +0.000 A 
ATOM     34  C   UNL     1       7.008   4.506  15.337  0.00  0.00    +0.000 A 
ATOM     35  C   UNL     1       5.999   5.355  14.832  0.00  0.00    +0.000 A 
ATOM     36  C   UNL     1       5.110   6.010  15.708  0.00  0.00    +0.000 A 
ATOM     37  C   UNL     1       5.261   5.788  17.083  0.00  0.00    +0.000 A 
ATOM     38  H   UNL     1       6.793   4.307  19.526  0.00  0.00    +0.000 HD
ENDBRANCH  28  29
ENDBRANCH   1  28
TORSDOF 6
ENDMDL
MODEL 2
REMARK VINA RESULT:      -8.2      1.021      1.531
REMARK  Name = 
REMARK  8 active torsions:
REMARK  status: ('A' for Active; 'I' for Inactive)
REMARK    1  A    between atoms: C_1  and  C_2
REMARK    2  A    between atoms: C_2  and  C_3
REMARK    3  A    between atoms: C_2  and  N_4
REMARK    4  A    between atoms: C_2  and  C_5
REMARK    5  A    between atoms: N_7  and  C_8
REMARK    6  A    between atoms: C_8  and  C_9
REMARK    7  A    between atoms: C_8  and  C_19
REMARK    8  A    between atoms: C_9  and  C_10
REMARK                            x       y       z     vdW  Elec       q    Type
REMARK                         _______ _______ _______ _____ _____    ______ ____
ROOT
ATOM      1  C   UNL     1       2.452   7.004  18.347  0.00  0.00    +0.000 C 
ENDROOT
BRANCH   1   2
ATOM      2  C   UNL     1       1.797   7.767  19.516  0.00  0.00    +0.000 C 
ATOM      3  O   UNL     1       2.049   7.385  20.651  0.00  0.00    +0.000 OA
ATOM      4  N   UNL     1       1.013   8.893  19.353  0.00  0.00    +0.000 N 
ATOM      5  C   UNL     1       0.534   9.663  20.504  0.00  0.00    +0.000 C 
ATOM      6  C   UNL     1       1.163  11.070  20.454  0.00  0.00    +0.000 C 
ATOM      7  C   UNL     1       0.876  11.773  19.098  0.00  0.00    +0.000 C 
ATOM      8  C   UNL     1      -0.617  12.225  18.979  0.00  0.00    +0.000 C 
ATOM      9  C   UNL     1      -0.634  13.760  18.823  0.00  0.00    +0.000 C 
ATOM     10  C   UNL     1       0.792  14.147  18.834  0.00  0.00    +0.000 A 
ATOM     11  C   UNL     1       1.296  15.444  18.698  0.00  0.00    +0.000 A 
ATOM     12  C   UNL     1       2.684  15.639  18.727  0.00  0.00    +0.000 A 
ATOM     13  C   UNL     1       3.544  14.541  18.895  0.00  0.00    +0.000 A 
ATOM     14  C   UNL     1       3.019  13.247  19.030  0.00  0.00    +0.000 A 
ATOM     15  C   UNL     1       1.627  13.069  18.995  0.00  0.00    +0.000 A 
ATOM     16  C   UNL     1       1.298  10.839  17.930  0.00  0.00    +0.000 C 
ATOM     17  C   UNL     1       0.655   9.450  18.055  0.00  0.00    +0.000 C 
ENDBRANCH   1   2
BRANCH   1  20
ATOM     18  C   UNL     1       2.098   4.534  18.214  0.00  0.00    +0.000 C 
ATOM     19  O   UNL     1       1.199   4.695  17.401  0.00  0.00    +0.000 OA
ATOM     20  N   UNL     1       2.763   5.622  18.721  0.00  0.00    +0.000 N 
ATOM     21  H   UNL     1       3.523   5.468  19.396  0.00  0.00    +0.000 HD
BRANCH  18  23
ATOM     22  C   UNL     1       1.560   2.695  19.836  0.00  0.00    +0.000 C 
ATOM     23  C   UNL     1       2.450   3.102  18.647  0.00  0.00    +0.000 C 
ATOM     24  C   UNL     1       3.938   3.010  19.049  0.00  0.00    +0.000 C 
BRANCH  23  25
ATOM     25  N   UNL     1       2.193   2.164  17.538  0.00  0.00    +0.000 NA
ATOM     26  H   UNL     1       3.088   1.873  17.077  0.00  0.00    +0.000 HD
ATOM     27  H   UNL     1       1.595   2.614  16.805  0.00  0.00    +0.000 HD
ENDBRANCH  23  25
ENDBRANCH  18  23
ENDBRANCH   1  20
BRANCH   1  28
ATOM     28  C   UNL     1       3.694   7.744  17.756  0.00  0.00    +0.000 C 
BRANCH  28  29
ATOM     29  C   UNL     1       4.665   6.903  16.959  0.00  0.00    +0.000 A 
ATOM     30  C   UNL     1       4.681   6.719  15.580  0.00  0.00    +0.000 A 
ATOM     31  N   UNL     1       5.682   5.881  15.231  0.00  0.00    +0.000 N 
ATOM     32  C   UNL     1       6.304   5.538  16.369  0.00  0.00    +0.000 A 
ATOM     33  C   UNL     1       7.399   4.683  16.502  0.00  0.00    +0.000 A 
ATOM     34  C   UNL     1       7.915   4.465  17.792  0.00  0.00    +0.000 A 
ATOM     35  C   UNL     1       7.336   5.109  18.907  0.00  0.00    +0.000 A 
ATOM     36  C   UNL     1       6.228   5.965  18.744  0.00  0.00    +0.000 A 
ATOM     37  C   UNL     1       5.731   6.154  17.448  0.00  0.00    +0.000 A 
ATOM     38  H   UNL     1       5.915   5.563  14.266  0.00  0.00    +0.000 HD
ENDBRANCH  28  29
ENDBRANCH   1  28
TORSDOF 6
ENDMDL
MODEL 3
REMARK VINA RESULT:      -7.9      4.944      7.561
REMARK  Name = 
REMARK  8 active torsions:
REMARK  status: ('A' for Active; 'I' for Inactive)
REMARK    1  A    between atoms: C_1  and  C_2
REMARK    2  A    between atoms: C_2  and  C_3
REMARK    3  A    between atoms: C_2  and  N_4
REMARK    4  A    between atoms: C_2  and  C_5
REMARK    5  A    between atoms: N_7  and  C_8
REMARK    6  A    between atoms: C_8  and  C_9
REMARK    7  A    between atoms: C_8  and  C_19
REMARK    8  A    between atoms: C_9  and  C_10
REMARK                            x       y       z     vdW  Elec       q    Type
REMARK                         _______ _______ _______ _____ _____    ______ ____
ROOT
ATOM      1  C   UNL     1      -0.928  11.875  21.056  0.00  0.00    +0.000 C 
ENDROOT
BRANCH   1   2
ATOM      2  C   UNL     1      -1.791  11.671  22.318  0.00  0.00    +0.000 C 
ATOM      3  O   UNL     1      -1.383  10.883  23.160  0.00  0.00    +0.000 OA
ATOM      4  N   UNL     1      -2.946  12.383  22.579  0.00  0.00    +0.000 N 
ATOM      5  C   UNL     1      -3.650  12.255  23.858  0.00  0.00    +0.000 C 
ATOM      6  C   UNL     1      -3.600  13.612  24.588  0.00  0.00    +0.000 C 
ATOM      7  C   UNL     1      -4.167  14.756  23.702  0.00  0.00    +0.000 C 
ATOM      8  C   UNL     1      -5.723  14.669  23.562  0.00  0.00    +0.000 C 
ATOM      9  C   UNL     1      -6.323  15.962  24.151  0.00  0.00    +0.000 C 
ATOM     10  C   UNL     1      -5.149  16.748  24.585  0.00  0.00    +0.000 A 
ATOM     11  C   UNL     1      -5.176  18.019  25.168  0.00  0.00    +0.000 A 
ATOM     12  C   UNL     1      -3.963  18.630  25.519  0.00  0.00    +0.000 A 
ATOM     13  C   UNL     1      -2.748  17.964  25.288  0.00  0.00    +0.000 A 
ATOM     14  C   UNL     1      -2.742  16.689  24.703  0.00  0.00    +0.000 A 
ATOM     15  C   UNL     1      -3.964  16.093  24.353  0.00  0.00    +0.000 A 
ATOM     16  C   UNL     1      -3.456  14.743  22.320  0.00  0.00    +0.000 C 
ATOM     17  C   UNL     1      -3.522  13.358  21.661  0.00  0.00    +0.000 C 
ENDBRANCH   1   2
BRANCH   1  20
ATOM     18  C   UNL     1      -1.695  11.741  18.681  0.00  0.00    +0.000 C 
ATOM     19  O   UNL     1      -1.396  12.914  18.507  0.00  0.00    +0.000 OA
ATOM     20  N   UNL     1      -1.490  11.160  19.907  0.00  0.00    +0.000 N 
ATOM     21  H   UNL     1      -1.737  10.170  20.034  0.00  0.00    +0.000 HD
BRANCH  18  23
ATOM     22  C   UNL     1      -3.793  10.696  17.784  0.00  0.00    +0.000 C 
ATOM     23  C   UNL     1      -2.300  10.954  17.508  0.00  0.00    +0.000 C 
ATOM     24  C   UNL     1      -1.561   9.612  17.319  0.00  0.00    +0.000 C 
BRANCH  23  25
ATOM     25  N   UNL     1      -2.192  11.742  16.266  0.00  0.00    +0.000 NA
ATOM     26  H   UNL     1      -2.471  11.171  15.434  0.00  0.00    +0.000 HD
ATOM     27  H   UNL     1      -1.206  12.058  16.114  0.00  0.00    +0.000 HD
ENDBRANCH  23  25
ENDBRANCH  18  23
ENDBRANCH   1  20
BRANCH   1  28
ATOM     28  C   UNL     1       0.576  11.526  21.283  0.00  0.00    +0.000 C 
BRANCH  28  29
ATOM     29  C   UNL     1       0.970  10.078  21.098  0.00  0.00    +0.000 A 
ATOM     30  C   UNL     1       0.958   9.075  22.062  0.00  0.00    +0.000 A 
ATOM     31  N   UNL     1       1.399   7.912  21.532  0.00  0.00    +0.000 N 
ATOM     32  C   UNL     1       1.683   8.164  20.246  0.00  0.00    +0.000 A 
ATOM     33  C   UNL     1       2.175   7.261  19.302  0.00  0.00    +0.000 A 
ATOM     34  C   UNL     1       2.392   7.726  17.993  0.00  0.00    +0.000 A 
ATOM     35  C   UNL     1       2.107   9.067  17.658  0.00  0.00    +0.000 A 
ATOM     36  C   UNL     1       1.614   9.959  18.632  0.00  0.00    +0.000 A 
ATOM     37  C   UNL     1       1.417   9.469  19.930  0.00  0.00    +0.000 A 
ATOM     38  H   UNL     1       1.503   7.003  22.033  0.00  0.00    +0.000 HD
ENDBRANCH  28  29
ENDBRANCH   1  28
TORSDOF 6
ENDMDL
MODEL 4
REMARK VINA RESULT:      -7.9      1.360      1.556
REMARK  Name = 
REMARK  8 active torsions:
REMARK  status: ('A' for Active; 'I' for Inactive)
REMARK    1  A    between atoms: C_1  and  C_2
REMARK    2  A    between atoms: C_2  and  C_3
REMARK    3  A    between atoms: C_2  and  N_4
REMARK    4  A    between atoms: C_2  and  C_5
REMARK    5  A    between atoms: N_7  and  C_8
REMARK    6  A    between atoms: C_8  and  C_9
REMARK    7  A    between atoms: C_8  and  C_19
REMARK    8  A    between atoms: C_9  and  C_10
REMARK                            x       y       z     vdW  Elec       q    Type
REMARK                         _______ _______ _______ _____ _____    ______ ____
ROOT
ATOM      1  C   UNL     1       2.977   6.690  18.256  0.00  0.00    +0.000 C 
ENDROOT
BRANCH   1   2
ATOM      2  C   UNL     1       2.227   7.398  19.402  0.00  0.00    +0.000 C 
ATOM      3  O   UNL     1       2.489   7.054  20.547  0.00  0.00    +0.000 OA
ATOM      4  N   UNL     1       1.343   8.443  19.208  0.00  0.00    +0.000 N 
ATOM      5  C   UNL     1       0.767   9.176  20.339  0.00  0.00    +0.000 C 
ATOM      6  C   UNL     1       1.261  10.636  20.285  0.00  0.00    +0.000 C 
ATOM      7  C   UNL     1       0.939  11.294  18.914  0.00  0.00    +0.000 C 
ATOM      8  C   UNL     1      -0.588  11.601  18.758  0.00  0.00    +0.000 C 
ATOM      9  C   UNL     1      -0.748  13.125  18.582  0.00  0.00    +0.000 C 
ATOM     10  C   UNL     1       0.634  13.646  18.618  0.00  0.00    +0.000 A 
ATOM     11  C   UNL     1       1.016  14.984  18.477  0.00  0.00    +0.000 A 
ATOM     12  C   UNL     1       2.379  15.310  18.532  0.00  0.00    +0.000 A 
ATOM     13  C   UNL     1       3.335  14.302  18.731  0.00  0.00    +0.000 A 
ATOM     14  C   UNL     1       2.933  12.965  18.873  0.00  0.00    +0.000 A 
ATOM     15  C   UNL     1       1.565  12.654  18.810  0.00  0.00    +0.000 A 
ATOM     16  C   UNL     1       1.472  10.392  17.766  0.00  0.00    +0.000 C 
ATOM     17  C   UNL     1       0.963   8.950  17.896  0.00  0.00    +0.000 C 
ENDBRANCH   1   2
BRANCH   1  20
ATOM     18  C   UNL     1       3.085   4.205  18.501  0.00  0.00    +0.000 C 
ATOM     19  O   UNL     1       2.036   4.087  17.882  0.00  0.00    +0.000 OA
ATOM     20  N   UNL     1       3.611   5.453  18.720  0.00  0.00    +0.000 N 
ATOM     21  H   UNL     1       4.499   5.533  19.233  0.00  0.00    +0.000 HD
BRANCH  18  23
ATOM     22  C   UNL     1       3.473   1.763  18.070  0.00  0.00    +0.000 C 
ATOM     23  C   UNL     1       3.779   2.936  19.020  0.00  0.00    +0.000 C 
ATOM     24  C   UNL     1       3.291   2.598  20.445  0.00  0.00    +0.000 C 
BRANCH  23  25
ATOM     25  N   UNL     1       5.239   3.137  19.046  0.00  0.00    +0.000 NA
ATOM     26  H   UNL     1       5.733   2.268  19.359  0.00  0.00    +0.000 HD
ATOM     27  H   UNL     1       5.495   3.900  19.716  0.00  0.00    +0.000 HD
ENDBRANCH  23  25
ENDBRANCH  18  23
ENDBRANCH   1  20
BRANCH   1  28
ATOM     28  C   UNL     1       3.988   7.624  17.520  0.00  0.00    +0.000 C 
BRANCH  28  29
ATOM     29  C   UNL     1       5.313   7.011  17.129  0.00  0.00    +0.000 A 
ATOM     30  C   UNL     1       6.568   7.323  17.645  0.00  0.00    +0.000 A 
ATOM     31  N   UNL     1       7.521   6.586  17.034  0.00  0.00    +0.000 N 
ATOM     32  C   UNL     1       6.888   5.807  16.144  0.00  0.00    +0.000 A 
ATOM     33  C   UNL     1       7.468   4.880  15.277  0.00  0.00    +0.000 A 
ATOM     34  C   UNL     1       6.619   4.148  14.428  0.00  0.00    +0.000 A 
ATOM     35  C   UNL     1       5.223   4.351  14.470  0.00  0.00    +0.000 A 
ATOM     36  C   UNL     1       4.664   5.298  15.354  0.00  0.00    +0.000 A 
ATOM     37  C   UNL     1       5.536   6.017  16.181  0.00  0.00    +0.000 A 
ATOM     38  H   UNL     1       8.547   6.624  17.218  0.00  0.00    +0.000 HD
ENDBRANCH  28  29
ENDBRANCH   1  28
TORSDOF 6
ENDMDL
MODEL 5
REMARK VINA RESULT:      -7.8      3.245      9.693
REMARK  Name = 
REMARK  8 active torsions:
REMARK  status: ('A' for Active; 'I' for Inactive)
REMARK    1  A    between atoms: C_1  and  C_2
REMARK    2  A    between atoms: C_2  and  C_3
REMARK    3  A    between atoms: C_2  and  N_4
REMARK    4  A    between atoms: C_2  and  C_5
REMARK    5  A    between atoms: N_7  and  C_8
REMARK    6  A    between atoms: C_8  and  C_9
REMARK    7  A    between atoms: C_8  and  C_19
REMARK    8  A    between atoms: C_9  and  C_10
REMARK                            x       y       z     vdW  Elec       q    Type
REMARK                         _______ _______ _______ _____ _____    ______ ____
ROOT
ATOM      1  C   UNL     1      -0.563  10.391  18.709  0.00  0.00    +0.000 C 
ENDROOT
BRANCH   1   2
ATOM      2  C   UNL     1       0.140   9.637  19.856  0.00  0.00    +0.000 C 
ATOM      3  O   UNL     1      -0.429   9.596  20.939  0.00  0.00    +0.000 OA
ATOM      4  N   UNL     1       1.328   8.948  19.705  0.00  0.00    +0.000 N 
ATOM      5  C   UNL     1       1.880   8.129  20.787  0.00  0.00    +0.000 C 
ATOM      6  C   UNL     1       1.892   6.655  20.336  0.00  0.00    +0.000 C 
ATOM      7  C   UNL     1       2.660   6.477  18.996  0.00  0.00    +0.000 C 
ATOM      8  C   UNL     1       4.205   6.634  19.184  0.00  0.00    +0.000 C 
ATOM      9  C   UNL     1       4.869   5.303  18.772  0.00  0.00    +0.000 C 
ATOM     10  C   UNL     1       3.741   4.445  18.353  0.00  0.00    +0.000 A 
ATOM     11  C   UNL     1       3.836   3.136  17.871  0.00  0.00    +0.000 A 
ATOM     12  C   UNL     1       2.661   2.459  17.511  0.00  0.00    +0.000 A 
ATOM     13  C   UNL     1       1.416   3.094  17.643  0.00  0.00    +0.000 A 
ATOM     14  C   UNL     1       1.341   4.407  18.131  0.00  0.00    +0.000 A 
ATOM     15  C   UNL     1       2.527   5.073  18.481  0.00  0.00    +0.000 A 
ATOM     16  C   UNL     1       2.097   7.468  17.939  0.00  0.00    +0.000 C 
ATOM     17  C   UNL     1       2.091   8.911  18.463  0.00  0.00    +0.000 C 
ENDBRANCH   1   2
BRANCH   1  20
ATOM     18  C   UNL     1       0.041  12.761  19.225  0.00  0.00    +0.000 C 
ATOM     19  O   UNL     1       1.219  12.522  18.998  0.00  0.00    +0.000 OA
ATOM     20  N   UNL     1      -0.894  11.764  19.100  0.00  0.00    +0.000 N 
ATOM     21  H   UNL     1      -1.881  11.985  19.285  0.00  0.00    +0.000 HD
BRANCH  18  23
ATOM     22  C   UNL     1       0.778  14.791  20.504  0.00  0.00    +0.000 C 
ATOM     23  C   UNL     1      -0.352  14.184  19.652  0.00  0.00    +0.000 C 
ATOM     24  C   UNL     1      -1.666  14.162  20.462  0.00  0.00    +0.000 C 
BRANCH  23  25
ATOM     25  N   UNL     1      -0.535  15.033  18.460  0.00  0.00    +0.000 NA
ATOM     26  H   UNL     1      -1.352  14.708  17.889  0.00  0.00    +0.000 HD
ATOM     27  H   UNL     1       0.311  14.995  17.845  0.00  0.00    +0.000 HD
ENDBRANCH  23  25
ENDBRANCH  18  23
ENDBRANCH   1  20
BRANCH   1  28
ATOM     28  C   UNL     1      -1.804   9.628  18.149  0.00  0.00    +0.000 C 
BRANCH  28  29
ATOM     29  C   UNL     1      -2.777  10.436  17.321  0.00  0.00    +0.000 A 
ATOM     30  C   UNL     1      -2.699  10.703  15.957  0.00  0.00    +0.000 A 
ATOM     31  N   UNL     1      -3.737  11.479  15.573  0.00  0.00    +0.000 N 
ATOM     32  C   UNL     1      -4.474  11.700  16.672  0.00  0.00    +0.000 A 
ATOM     33  C   UNL     1      -5.645  12.454  16.760  0.00  0.00    +0.000 A 
ATOM     34  C   UNL     1      -6.277  12.549  18.012  0.00  0.00    +0.000 A 
ATOM     35  C   UNL     1      -5.736  11.886  19.135  0.00  0.00    +0.000 A 
ATOM     36  C   UNL     1      -4.550  11.133  19.018  0.00  0.00    +0.000 A 
ATOM     37  C   UNL     1      -3.937  11.065  17.760  0.00  0.00    +0.000 A 
ATOM     38  H   UNL     1      -3.920  11.837  14.611  0.00  0.00    +0.000 HD
ENDBRANCH  28  29
ENDBRANCH   1  28
TORSDOF 6
ENDMDL
MODEL 6
REMARK VINA RESULT:      -7.5      6.228     10.011
REMARK  Name = 
REMARK  8 active torsions:
REMARK  status: ('A' for Active; 'I' for Inactive)
REMARK    1  A    between atoms: C_1  and  C_2
REMARK    2  A    between atoms: C_2  and  C_3
REMARK    3  A    between atoms: C_2  and  N_4
REMARK    4  A    between atoms: C_2  and  C_5
REMARK    5  A    between atoms: N_7  and  C_8
REMARK    6  A    between atoms: C_8  and  C_9
REMARK    7  A    between atoms: C_8  and  C_19
REMARK    8  A    between atoms: C_9  and  C_10
REMARK                            x       y       z     vdW  Elec       q    Type
REMARK                         _______ _______ _______ _____ _____    ______ ____
ROOT
ATOM      1  C   UNL     1       2.226  14.883  19.951  0.00  0.00    +0.000 C 
ENDROOT
BRANCH   1   2
ATOM      2  C   UNL     1       1.923  13.416  20.320  0.00  0.00    +0.000 C 
ATOM      3  O   UNL     1       2.289  13.023  21.420  0.00  0.00    +0.000 OA
ATOM      4  N   UNL     1       1.200  12.558  19.515  0.00  0.00    +0.000 N 
ATOM      5  C   UNL     1       0.817  11.220  19.974  0.00  0.00    +0.000 C 
ATOM      6  C   UNL     1      -0.721  11.150  20.064  0.00  0.00    +0.000 C 
ATOM      7  C   UNL     1      -1.388  11.536  18.715  0.00  0.00    +0.000 C 
ATOM      8  C   UNL     1      -1.207  10.420  17.633  0.00  0.00    +0.000 C 
ATOM      9  C   UNL     1      -2.610   9.926  17.225  0.00  0.00    +0.000 C 
ATOM     10  C   UNL     1      -3.538  10.747  18.031  0.00  0.00    +0.000 A 
ATOM     11  C   UNL     1      -4.934  10.686  17.998  0.00  0.00    +0.000 A 
ATOM     12  C   UNL     1      -5.670  11.543  18.830  0.00  0.00    +0.000 A 
ATOM     13  C   UNL     1      -5.003  12.440  19.680  0.00  0.00    +0.000 A 
ATOM     14  C   UNL     1      -3.601  12.485  19.699  0.00  0.00    +0.000 A 
ATOM     15  C   UNL     1      -2.879  11.624  18.857  0.00  0.00    +0.000 A 
ATOM     16  C   UNL     1      -0.834  12.907  18.236  0.00  0.00    +0.000 C 
ATOM     17  C   UNL     1       0.700  12.915  18.192  0.00  0.00    +0.000 C 
ENDBRANCH   1   2
BRANCH   1  20
ATOM     18  C   UNL     1       4.431  15.215  18.823  0.00  0.00    +0.000 C 
ATOM     19  O   UNL     1       3.908  15.059  17.729  0.00  0.00    +0.000 OA
ATOM     20  N   UNL     1       3.667  15.147  19.961  0.00  0.00    +0.000 N 
ATOM     21  H   UNL     1       4.122  15.291  20.872  0.00  0.00    +0.000 HD
BRANCH  18  23
ATOM     22  C   UNL     1       6.500  14.957  20.220  0.00  0.00    +0.000 C 
ATOM     23  C   UNL     1       5.944  15.481  18.884  0.00  0.00    +0.000 C 
ATOM     24  C   UNL     1       6.233  16.991  18.750  0.00  0.00    +0.000 C 
BRANCH  23  25
ATOM     25  N   UNL     1       6.623  14.762  17.789  0.00  0.00    +0.000 NA
ATOM     26  H   UNL     1       5.942  14.480  17.045  0.00  0.00    +0.000 HD
ATOM     27  H   UNL     1       7.077  13.889  18.147  0.00  0.00    +0.000 HD
ENDBRANCH  23  25
ENDBRANCH  18  23
ENDBRANCH   1  20
BRANCH   1  28
ATOM     28  C   UNL     1       1.438  15.907  20.828  0.00  0.00    +0.000 C 
BRANCH  28  29
ATOM     29  C   UNL     1      -0.070  15.827  20.770  0.00  0.00    +0.000 A 
ATOM     30  C   UNL     1      -0.902  16.361  19.789  0.00  0.00    +0.000 A 
ATOM     31  N   UNL     1      -2.196  16.109  20.087  0.00  0.00    +0.000 N 
ATOM     32  C   UNL     1      -2.195  15.419  21.237  0.00  0.00    +0.000 A 
ATOM     33  C   UNL     1      -3.308  14.944  21.933  0.00  0.00    +0.000 A 
ATOM     34  C   UNL     1      -3.087  14.225  23.120  0.00  0.00    +0.000 A 
ATOM     35  C   UNL     1      -1.772  13.990  23.576  0.00  0.00    +0.000 A 
ATOM     36  C   UNL     1      -0.666  14.484  22.855  0.00  0.00    +0.000 A 
ATOM     37  C   UNL     1      -0.917  15.205  21.681  0.00  0.00    +0.000 A 
ATOM     38  H   UNL     1      -3.028  16.403  19.531  0.00  0.00    +0.000 HD
ENDBRANCH  28  29
ENDBRANCH   1  28
TORSDOF 6
ENDMDL
MODEL 7
REMARK VINA RESULT:      -7.5      2.169      4.980
REMARK  Name = 
REMARK  8 active torsions:
REMARK  status: ('A' for Active; 'I' for Inactive)
REMARK    1  A    between atoms: C_1  and  C_2
REMARK    2  A    between atoms: C_2  and  C_3
REMARK    3  A    between atoms: C_2  and  N_4
REMARK    4  A    between atoms: C_2  and  C_5
REMARK    5  A    between atoms: N_7  and  C_8
REMARK    6  A    between atoms: C_8  and  C_9
REMARK    7  A    between atoms: C_8  and  C_19
REMARK    8  A    between atoms: C_9  and  C_10
REMARK                            x       y       z     vdW  Elec       q    Type
REMARK                         _______ _______ _______ _____ _____    ______ ____
ROOT
ATOM      1  C   UNL     1       2.952   7.056  18.295  0.00  0.00    +0.000 C 
ENDROOT
BRANCH   1   2
ATOM      2  C   UNL     1       2.866   8.553  17.933  0.00  0.00    +0.000 C 
ATOM      3  O   UNL     1       3.433   8.921  16.913  0.00  0.00    +0.000 OA
ATOM      4  N   UNL     1       2.127   9.472  18.651  0.00  0.00    +0.000 N 
ATOM      5  C   UNL     1       1.961  10.852  18.185  0.00  0.00    +0.000 C 
ATOM      6  C   UNL     1       0.471  11.092  17.871  0.00  0.00    +0.000 C 
ATOM      7  C   UNL     1      -0.429  10.760  19.094  0.00  0.00    +0.000 C 
ATOM      8  C   UNL     1      -0.293  11.832  20.226  0.00  0.00    +0.000 C 
ATOM      9  C   UNL     1      -1.681  12.470  20.440  0.00  0.00    +0.000 C 
ATOM     10  C   UNL     1      -2.560  11.770  19.480  0.00  0.00    +0.000 A 
ATOM     11  C   UNL     1      -3.931  11.983  19.308  0.00  0.00    +0.000 A 
ATOM     12  C   UNL     1      -4.621  11.226  18.350  0.00  0.00    +0.000 A 
ATOM     13  C   UNL     1      -3.934  10.275  17.578  0.00  0.00    +0.000 A 
ATOM     14  C   UNL     1      -2.558  10.076  17.764  0.00  0.00    +0.000 A 
ATOM     15  C   UNL     1      -1.882  10.839  18.731  0.00  0.00    +0.000 A 
ATOM     16  C   UNL     1      -0.102   9.329  19.605  0.00  0.00    +0.000 C 
ATOM     17  C   UNL     1       1.399   9.151  19.873  0.00  0.00    +0.000 C 
ENDBRANCH   1   2
BRANCH   1  20
ATOM     18  C   UNL     1       5.052   5.700  18.285  0.00  0.00    +0.000 C 
ATOM     19  O   UNL     1       4.992   5.577  19.500  0.00  0.00    +0.000 OA
ATOM     20  N   UNL     1       4.083   6.411  17.622  0.00  0.00    +0.000 N 
ATOM     21  H   UNL     1       4.144   6.496  16.599  0.00  0.00    +0.000 HD
BRANCH  18  23
ATOM     22  C   UNL     1       7.125   6.154  16.943  0.00  0.00    +0.000 C 
ATOM     23  C   UNL     1       6.228   5.052  17.537  0.00  0.00    +0.000 C 
ATOM     24  C   UNL     1       5.711   4.132  16.411  0.00  0.00    +0.000 C 
BRANCH  23  25
ATOM     25  N   UNL     1       7.041   4.255  18.475  0.00  0.00    +0.000 NA
ATOM     26  H   UNL     1       7.260   3.312  18.075  0.00  0.00    +0.000 HD
ATOM     27  H   UNL     1       6.525   4.102  19.373  0.00  0.00    +0.000 HD
ENDBRANCH  23  25
ENDBRANCH  18  23
ENDBRANCH   1  20
BRANCH   1  28
ATOM     28  C   UNL     1       1.613   6.292  18.050  0.00  0.00    +0.000 C 
BRANCH  28  29
ATOM     29  C   UNL     1       1.621   4.807  18.335  0.00  0.00    +0.000 A 
ATOM     30  C   UNL     1       1.448   3.775  17.416  0.00  0.00    +0.000 A 
ATOM     31  N   UNL     1       1.492   2.579  18.044  0.00  0.00    +0.000 N 
ATOM     32  C   UNL     1       1.697   2.839  19.344  0.00  0.00    +0.000 A 
ATOM     33  C   UNL     1       1.808   1.909  20.379  0.00  0.00    +0.000 A 
ATOM     34  C   UNL     1       2.040   2.391  21.679  0.00  0.00    +0.000 A 
ATOM     35  C   UNL     1       2.162   3.778  21.912  0.00  0.00    +0.000 A 
ATOM     36  C   UNL     1       2.042   4.695  20.848  0.00  0.00    +0.000 A 
ATOM     37  C   UNL     1       1.802   4.185  19.566  0.00  0.00    +0.000 A 
ATOM     38  H   UNL     1       1.381   1.642  17.600  0.00  0.00    +0.000 HD
ENDBRANCH  28  29
ENDBRANCH   1  28
TORSDOF 6
ENDMDL
MODEL 8
REMARK VINA RESULT:      -7.4      6.081     10.212
REMARK  Name = 
REMARK  8 active torsions:
REMARK  status: ('A' for Active; 'I' for Inactive)
REMARK    1  A    between atoms: C_1  and  C_2
REMARK    2  A    between atoms: C_2  and  C_3
REMARK    3  A    between atoms: C_2  and  N_4
REMARK    4  A    between atoms: C_2  and  C_5
REMARK    5  A    between atoms: N_7  and  C_8
REMARK    6  A    between atoms: C_8  and  C_9
REMARK    7  A    between atoms: C_8  and  C_19
REMARK    8  A    between atoms: C_9  and  C_10
REMARK                            x       y       z     vdW  Elec       q    Type
REMARK                         _______ _______ _______ _____ _____    ______ ____
ROOT
ATOM      1  C   UNL     1       3.293  14.650  19.853  0.00  0.00    +0.000 C 
ENDROOT
BRANCH   1   2
ATOM      2  C   UNL     1       4.569  15.115  20.583  0.00  0.00    +0.000 C 
ATOM      3  O   UNL     1       4.566  15.079  21.806  0.00  0.00    +0.000 OA
ATOM      4  N   UNL     1       5.729  15.492  19.933  0.00  0.00    +0.000 N 
ATOM      5  C   UNL     1       6.959  15.788  20.673  0.00  0.00    +0.000 C 
ATOM      6  C   UNL     1       8.029  14.746  20.289  0.00  0.00    +0.000 C 
ATOM      7  C   UNL     1       8.250  14.698  18.751  0.00  0.00    +0.000 C 
ATOM      8  C   UNL     1       9.014  15.962  18.232  0.00  0.00    +0.000 C 
ATOM      9  C   UNL     1      10.335  15.485  17.593  0.00  0.00    +0.000 C 
ATOM     10  C   UNL     1      10.301  14.014  17.733  0.00  0.00    +0.000 A 
ATOM     11  C   UNL     1      11.277  13.120  17.282  0.00  0.00    +0.000 A 
ATOM     12  C   UNL     1      11.087  11.746  17.493  0.00  0.00    +0.000 A 
ATOM     13  C   UNL     1       9.934  11.289  18.151  0.00  0.00    +0.000 A 
ATOM     14  C   UNL     1       8.968  12.202  18.598  0.00  0.00    +0.000 A 
ATOM     15  C   UNL     1       9.170  13.574  18.375  0.00  0.00    +0.000 A 
ATOM     16  C   UNL     1       6.883  14.508  18.036  0.00  0.00    +0.000 C 
ATOM     17  C   UNL     1       5.859  15.561  18.482  0.00  0.00    +0.000 C 
ENDBRANCH   1   2
BRANCH   1  20
ATOM     18  C   UNL     1       2.158  16.393  18.469  0.00  0.00    +0.000 C 
ATOM     19  O   UNL     1       2.784  16.034  17.481  0.00  0.00    +0.000 OA
ATOM     20  N   UNL     1       2.352  15.758  19.669  0.00  0.00    +0.000 N 
ATOM     21  H   UNL     1       1.809  16.066  20.486  0.00  0.00    +0.000 HD
BRANCH  18  23
ATOM     22  C   UNL     1       1.247  18.451  19.581  0.00  0.00    +0.000 C 
ATOM     23  C   UNL     1       1.169  17.562  18.327  0.00  0.00    +0.000 C 
ATOM     24  C   UNL     1      -0.270  17.032  18.147  0.00  0.00    +0.000 C 
BRANCH  23  25
ATOM     25  N   UNL     1       1.529  18.384  17.156  0.00  0.00    +0.000 NA
ATOM     26  H   UNL     1       1.466  19.405  17.382  0.00  0.00    +0.000 HD
ATOM     27  H   UNL     1       0.876  18.199  16.360  0.00  0.00    +0.000 HD
ENDBRANCH  23  25
ENDBRANCH  18  23
ENDBRANCH   1  20
BRANCH   1  28
ATOM     28  C   UNL     1       2.618  13.416  20.531  0.00  0.00    +0.000 C 
BRANCH  28  29
ATOM     29  C   UNL     1       1.582  12.678  19.715  0.00  0.00    +0.000 A 
ATOM     30  C   UNL     1       1.812  11.836  18.630  0.00  0.00    +0.000 A 
ATOM     31  N   UNL     1       0.639  11.377  18.139  0.00  0.00    +0.000 N 
ATOM     32  C   UNL     1      -0.327  11.910  18.901  0.00  0.00    +0.000 A 
ATOM     33  C   UNL     1      -1.704  11.721  18.766  0.00  0.00    +0.000 A 
ATOM     34  C   UNL     1      -2.552  12.363  19.685  0.00  0.00    +0.000 A 
ATOM     35  C   UNL     1      -2.011  13.163  20.714  0.00  0.00    +0.000 A 
ATOM     36  C   UNL     1      -0.617  13.340  20.825  0.00  0.00    +0.000 A 
ATOM     37  C   UNL     1       0.202  12.695  19.890  0.00  0.00    +0.000 A 
ATOM     38  H   UNL     1       0.517  10.739  17.324  0.00  0.00    +0.000 HD
ENDBRANCH  28  29
ENDBRANCH   1  28
TORSDOF 6
ENDMDL
MODEL 9
REMARK VINA RESULT:      -7.4      4.678      8.633
REMARK  Name = 
REMARK  8 active torsions:
REMARK  status: ('A' for Active; 'I' for Inactive)
REMARK    1  A    between atoms: C_1  and  C_2
REMARK    2  A    between atoms: C_2  and  C_3
REMARK    3  A    between atoms: C_2  and  N_4
REMARK    4  A    between atoms: C_2  and  C_5
REMARK    5  A    between atoms: N_7  and  C_8
REMARK    6  A    between atoms: C_8  and  C_9
REMARK    7  A    between atoms: C_8  and  C_19
REMARK    8  A    between atoms: C_9  and  C_10
REMARK                            x       y       z     vdW  Elec       q    Type
REMARK                         _______ _______ _______ _____ _____    ______ ____
ROOT
ATOM      1  C   UNL     1       0.436  13.497  20.549  0.00  0.00    +0.000 C 
ENDROOT
BRANCH   1   2
ATOM      2  C   UNL     1      -0.667  14.570  20.654  0.00  0.00    +0.000 C 
ATOM      3  O   UNL     1      -0.634  15.495  19.853  0.00  0.00    +0.000 OA
ATOM      4  N   UNL     1      -1.722  14.499  21.543  0.00  0.00    +0.000 N 
ATOM      5  C   UNL     1      -2.820  15.469  21.505  0.00  0.00    +0.000 C 
ATOM      6  C   UNL     1      -4.122  14.728  21.138  0.00  0.00    +0.000 C 
ATOM      7  C   UNL     1      -4.397  13.547  22.110  0.00  0.00    +0.000 C 
ATOM      8  C   UNL     1      -4.850  14.046  23.522  0.00  0.00    +0.000 C 
ATOM      9  C   UNL     1      -6.266  13.495  23.786  0.00  0.00    +0.000 C 
ATOM     10  C   UNL     1      -6.583  12.703  22.579  0.00  0.00    +0.000 A 
ATOM     11  C   UNL     1      -7.759  11.983  22.350  0.00  0.00    +0.000 A 
ATOM     12  C   UNL     1      -7.899  11.278  21.145  0.00  0.00    +0.000 A 
ATOM     13  C   UNL     1      -6.870  11.308  20.190  0.00  0.00    +0.000 A 
ATOM     14  C   UNL     1      -5.698  12.038  20.438  0.00  0.00    +0.000 A 
ATOM     15  C   UNL     1      -5.571  12.734  21.650  0.00  0.00    +0.000 A 
ATOM     16  C   UNL     1      -3.139  12.637  22.190  0.00  0.00    +0.000 C 
ATOM     17  C   UNL     1      -1.878  13.441  22.534  0.00  0.00    +0.000 C 
ENDBRANCH   1   2
BRANCH   1  20
ATOM     18  C   UNL     1       2.678  14.525  20.946  0.00  0.00    +0.000 C 
ATOM     19  O   UNL     1       2.516  14.441  22.156  0.00  0.00    +0.000 OA
ATOM     20  N   UNL     1       1.701  14.078  20.093  0.00  0.00    +0.000 N 
ATOM     21  H   UNL     1       1.859  14.148  19.079  0.00  0.00    +0.000 HD
BRANCH  18  23
ATOM     22  C   UNL     1       4.208  14.699  18.964  0.00  0.00    +0.000 C 
ATOM     23  C   UNL     1       3.985  15.141  20.422  0.00  0.00    +0.000 C 
ATOM     24  C   UNL     1       5.179  14.698  21.294  0.00  0.00    +0.000 C 
BRANCH  23  25
ATOM     25  N   UNL     1       3.892  16.613  20.447  0.00  0.00    +0.000 NA
ATOM     26  H   UNL     1       2.932  16.933  20.174  0.00  0.00    +0.000 HD
ATOM     27  H   UNL     1       4.568  17.038  19.770  0.00  0.00    +0.000 HD
ENDBRANCH  23  25
ENDBRANCH  18  23
ENDBRANCH   1  20
BRANCH   1  28
ATOM     28  C   UNL     1       0.011  12.269  19.683  0.00  0.00    +0.000 C 
BRANCH  28  29
ATOM     29  C   UNL     1       0.408  10.906  20.203  0.00  0.00    +0.000 A 
ATOM     30  C   UNL     1       0.192  10.399  21.481  0.00  0.00    +0.000 A 
ATOM     31  N   UNL     1       0.708   9.154  21.584  0.00  0.00    +0.000 N 
ATOM     32  C   UNL     1       1.240   8.864  20.388  0.00  0.00    +0.000 A 
ATOM     33  C   UNL     1       1.891   7.684  20.022  0.00  0.00    +0.000 A 
ATOM     34  C   UNL     1       2.367   7.573  18.703  0.00  0.00    +0.000 A 
ATOM     35  C   UNL     1       2.175   8.629  17.787  0.00  0.00    +0.000 A 
ATOM     36  C   UNL     1       1.518   9.811  18.184  0.00  0.00    +0.000 A 
ATOM     37  C   UNL     1       1.063   9.896  19.506  0.00  0.00    +0.000 A 
ATOM     38  H   UNL     1       0.696   8.546  22.431  0.00  0.00    +0.000 HD
ENDBRANCH  28  29
ENDBRANCH   1  28
TORSDOF 6
ENDMDL
