MODEL 1
REMARK VINA RESULT:      -7.0      0.000      0.000
REMARK  Name = 
REMARK  11 active torsions:
REMARK  status: ('A' for Active; 'I' for Inactive)
REMARK    1  A    between atoms: C_1  and  C_2
REMARK    2  A    between atoms: C_2  and  N_3
REMARK    3  A    between atoms: N_3  and  C_4
REMARK    4  A    between atoms: N_3  and  C_6
REMARK    5  A    between atoms: C_4  and  C_5
REMARK    6  A    between atoms: C_6  and  C_7
REMARK    7  A    between atoms: C_7  and  O_8
REMARK    8  A    between atoms: O_8  and  C_9
REMARK    9  A    between atoms: C_9  and  C_11
REMARK   10  A    between atoms: C_11  and  C_12
REMARK   11  A    between atoms: C_11  and  C_18
REMARK                            x       y       z     vdW  Elec       q    Type
REMARK                         _______ _______ _______ _____ _____    ______ ____
ROOT
ATOM      1  C   UNL     1       4.778   5.558  17.893  0.00  0.00    +0.000 C 
ENDROOT
BRANCH   1   2
ATOM      2  C   UNL     1       3.657   6.466  18.395  0.00  0.00    +0.000 A 
ATOM      3  C   UNL     1       3.016   6.222  19.618  0.00  0.00    +0.000 A 
ATOM      4  C   UNL     1       2.052   7.110  20.108  0.00  0.00    +0.000 A 
ATOM      5  C   UNL     1       1.713   8.246  19.380  0.00  0.00    +0.000 A 
ATOM      6  C   UNL     1       2.323   8.490  18.152  0.00  0.00    +0.000 A 
ATOM      7  C   UNL     1       3.287   7.603  17.660  0.00  0.00    +0.000 A 
ENDBRANCH   1   2
BRANCH   1   8
ATOM      8  C   UNL     1       5.686   6.228  16.801  0.00  0.00    +0.000 C 
ATOM      9  C   UNL     1       7.149   5.716  16.822  0.00  0.00    +0.000 C 
ATOM     10  C   UNL     1       7.405   4.391  16.096  0.00  0.00    +0.000 C 
ATOM     11  C   UNL     1       6.714   4.275  14.741  0.00  0.00    +0.000 C 
ATOM     12  C   UNL     1       5.257   4.709  14.800  0.00  0.00    +0.000 C 
ATOM     13  C   UNL     1       5.143   6.118  15.364  0.00  0.00    +0.000 C 
ENDBRANCH   1   8
BRANCH   1  14
ATOM     14  C   UNL     1       5.643   5.074  19.059  0.00  0.00    +0.000 C 
ATOM     15  O   UNL     1       6.285   5.796  19.819  0.00  0.00    +0.000 OA
BRANCH  14  16
ATOM     16  O   UNL     1       5.710   3.713  19.068  0.00  0.00    +0.000 OA
BRANCH  16  17
ATOM     17  C   UNL     1       4.491   3.084  18.648  0.00  0.00    +0.000 C 
BRANCH  17  18
ATOM     18  C   UNL     1       3.666   2.523  19.817  0.00  0.00    +0.000 C 
BRANCH  18  19
ATOM     19  N   UNL     1       2.267   2.200  19.446  0.00  0.00    +0.000 NA
BRANCH  19  21
ATOM     20  C   UNL     1       2.008   3.343  21.680  0.00  0.00    +0.000 C 
ATOM     21  C   UNL     1       1.333   2.746  20.446  0.00  0.00    +0.000 C 
ENDBRANCH  19  21
BRANCH  19  22
ATOM     22  C   UNL     1       1.917   2.535  18.057  0.00  0.00    +0.000 C 
ATOM     23  C   UNL     1       1.208   3.869  17.849  0.00  0.00    +0.000 C 
ENDBRANCH  19  22
ENDBRANCH  18  19
ENDBRANCH  17  18
ENDBRANCH  16  17
ENDBRANCH  14  16
ENDBRANCH   1  14
TORSDOF 9
ENDMDL
MODEL 2
REMARK VINA RESULT:      -6.9      2.537      6.068
REMARK  Name = 
REMARK  11 active torsions:
REMARK  status: ('A' for Active; 'I' for Inactive)
REMARK    1  A    between atoms: C_1  and  C_2
REMARK    2  A    between atoms: C_2  and  N_3
REMARK    3  A    between atoms: N_3  and  C_4
REMARK    4  A    between atoms: N_3  and  C_6
REMARK    5  A    between atoms: C_4  and  C_5
REMARK    6  A    between atoms: C_6  and  C_7
REMARK    7  A    between atoms: C_7  and  O_8
REMARK    8  A    between atoms: O_8  and  C_9
REMARK    9  A    between atoms: C_9  and  C_11
REMARK   10  A    between atoms: C_11  and  C_12
REMARK   11  A    between atoms: C_11  and  C_18
REMARK                            x       y       z     vdW  Elec       q    Type
REMARK                         _______ _______ _______ _____ _____    ______ ____
ROOT
ATOM      1  C   UNL     1       4.291   4.638  18.389  0.00  0.00    +0.000 C 
ENDROOT
BRANCH   1   2
ATOM      2  C   UNL     1       5.491   5.578  18.289  0.00  0.00    +0.000 A 
ATOM      3  C   UNL     1       6.666   5.337  19.017  0.00  0.00    +0.000 A 
ATOM      4  C   UNL     1       7.788   6.156  18.851  0.00  0.00    +0.000 A 
ATOM      5  C   UNL     1       7.747   7.227  17.964  0.00  0.00    +0.000 A 
ATOM      6  C   UNL     1       6.580   7.495  17.253  0.00  0.00    +0.000 A 
ATOM      7  C   UNL     1       5.456   6.677  17.417  0.00  0.00    +0.000 A 
ENDBRANCH   1   2
BRANCH   1   8
ATOM      8  C   UNL     1       2.909   5.383  18.388  0.00  0.00    +0.000 C 
ATOM      9  C   UNL     1       1.736   4.500  17.891  0.00  0.00    +0.000 C 
ATOM     10  C   UNL     1       1.125   3.552  18.929  0.00  0.00    +0.000 C 
ATOM     11  C   UNL     1       0.905   4.183  20.300  0.00  0.00    +0.000 C 
ATOM     12  C   UNL     1       2.120   4.965  20.775  0.00  0.00    +0.000 C 
ATOM     13  C   UNL     1       2.520   6.008  19.741  0.00  0.00    +0.000 C 
ENDBRANCH   1   8
BRANCH   1  14
ATOM     14  C   UNL     1       4.321   3.604  17.260  0.00  0.00    +0.000 C 
ATOM     15  O   UNL     1       4.190   2.391  17.400  0.00  0.00    +0.000 OA
BRANCH  14  16
ATOM     16  O   UNL     1       4.643   4.201  16.078  0.00  0.00    +0.000 OA
BRANCH  16  17
ATOM     17  C   UNL     1       5.762   3.590  15.421  0.00  0.00    +0.000 C 
BRANCH  17  18
ATOM     18  C   UNL     1       6.403   4.490  14.353  0.00  0.00    +0.000 C 
BRANCH  18  19
ATOM     19  N   UNL     1       6.586   3.812  13.046  0.00  0.00    +0.000 NA
BRANCH  19  21
ATOM     20  C   UNL     1       5.315   2.248  11.529  0.00  0.00    +0.000 C 
ATOM     21  C   UNL     1       5.278   3.450  12.471  0.00  0.00    +0.000 C 
ENDBRANCH  19  21
BRANCH  19  22
ATOM     22  C   UNL     1       7.471   4.526  12.113  0.00  0.00    +0.000 C 
ATOM     23  C   UNL     1       8.215   5.728  12.683  0.00  0.00    +0.000 C 
ENDBRANCH  19  22
ENDBRANCH  18  19
ENDBRANCH  17  18
ENDBRANCH  16  17
ENDBRANCH  14  16
ENDBRANCH   1  14
TORSDOF 9
ENDMDL
MODEL 3
REMARK VINA RESULT:      -6.9      1.927      5.164
REMARK  Name = 
REMARK  11 active torsions:
REMARK  status: ('A' for Active; 'I' for Inactive)
REMARK    1  A    between atoms: C_1  and  C_2
REMARK    2  A    between atoms: C_2  and  N_3
REMARK    3  A    between atoms: N_3  and  C_4
REMARK    4  A    between atoms: N_3  and  C_6
REMARK    5  A    between atoms: C_4  and  C_5
REMARK    6  A    between atoms: C_6  and  C_7
REMARK    7  A    between atoms: C_7  and  O_8
REMARK    8  A    between atoms: O_8  and  C_9
REMARK    9  A    between atoms: C_9  and  C_11
REMARK   10  A    between atoms: C_11  and  C_12
REMARK   11  A    between atoms: C_11  and  C_18
REMARK                            x       y       z     vdW  Elec       q    Type
REMARK                         _______ _______ _______ _____ _____    ______ ____
ROOT
ATOM      1  C   UNL     1       2.964   5.923  19.488  0.00  0.00    +0.000 C 
ENDROOT
BRANCH   1   2
ATOM      2  C   UNL     1       2.305   7.294  19.351  0.00  0.00    +0.000 A 
ATOM      3  C   UNL     1       2.257   7.957  18.116  0.00  0.00    +0.000 A 
ATOM      4  C   UNL     1       1.574   9.172  17.984  0.00  0.00    +0.000 A 
ATOM      5  C   UNL     1       0.941   9.740  19.085  0.00  0.00    +0.000 A 
ATOM      6  C   UNL     1       1.001   9.107  20.323  0.00  0.00    +0.000 A 
ATOM      7  C   UNL     1       1.682   7.892  20.457  0.00  0.00    +0.000 A 
ENDBRANCH   1   2
BRANCH   1   8
ATOM      8  C   UNL     1       1.976   4.726  19.245  0.00  0.00    +0.000 C 
ATOM      9  C   UNL     1       2.684   3.437  18.755  0.00  0.00    +0.000 C 
ATOM     10  C   UNL     1       3.327   2.571  19.844  0.00  0.00    +0.000 C 
ATOM     11  C   UNL     1       2.464   2.384  21.087  0.00  0.00    +0.000 C 
ATOM     12  C   UNL     1       1.865   3.695  21.574  0.00  0.00    +0.000 C 
ATOM     13  C   UNL     1       1.089   4.375  20.454  0.00  0.00    +0.000 C 
ENDBRANCH   1   8
BRANCH   1  14
ATOM     14  C   UNL     1       4.163   5.803  18.544  0.00  0.00    +0.000 C 
ATOM     15  O   UNL     1       4.113   5.862  17.317  0.00  0.00    +0.000 OA
BRANCH  14  16
ATOM     16  O   UNL     1       5.289   5.493  19.244  0.00  0.00    +0.000 OA
BRANCH  16  17
ATOM     17  C   UNL     1       6.081   4.472  18.620  0.00  0.00    +0.000 C 
BRANCH  17  18
ATOM     18  C   UNL     1       7.483   4.955  18.216  0.00  0.00    +0.000 C 
BRANCH  18  19
ATOM     19  N   UNL     1       7.593   5.303  16.779  0.00  0.00    +0.000 NA
BRANCH  19  21
ATOM     20  C   UNL     1       6.324   4.907  14.635  0.00  0.00    +0.000 C 
ATOM     21  C   UNL     1       6.832   4.343  15.960  0.00  0.00    +0.000 C 
ENDBRANCH  19  21
BRANCH  19  22
ATOM     22  C   UNL     1       7.299   6.712  16.473  0.00  0.00    +0.000 C 
ATOM     23  C   UNL     1       7.609   7.715  17.578  0.00  0.00    +0.000 C 
ENDBRANCH  19  22
ENDBRANCH  18  19
ENDBRANCH  17  18
ENDBRANCH  16  17
ENDBRANCH  14  16
ENDBRANCH   1  14
TORSDOF 9
ENDMDL
MODEL 4
REMARK VINA RESULT:      -6.8      1.793      4.811
REMARK  Name = 
REMARK  11 active torsions:
REMARK  status: ('A' for Active; 'I' for Inactive)
REMARK    1  A    between atoms: C_1  and  C_2
REMARK    2  A    between atoms: C_2  and  N_3
REMARK    3  A    between atoms: N_3  and  C_4
REMARK    4  A    between atoms: N_3  and  C_6
REMARK    5  A    between atoms: C_4  and  C_5
REMARK    6  A    between atoms: C_6  and  C_7
REMARK    7  A    between atoms: C_7  and  O_8
REMARK    8  A    between atoms: O_8  and  C_9
REMARK    9  A    between atoms: C_9  and  C_11
REMARK   10  A    between atoms: C_11  and  C_12
REMARK   11  A    between atoms: C_11  and  C_18
REMARK                            x       y       z     vdW  Elec       q    Type
REMARK                         _______ _______ _______ _____ _____    ______ ____
ROOT
ATOM      1  C   UNL     1       4.122   4.492  19.285  0.00  0.00    +0.000 C 
ENDROOT
BRANCH   1   2
ATOM      2  C   UNL     1       3.444   5.852  19.134  0.00  0.00    +0.000 A 
ATOM      3  C   UNL     1       3.603   6.619  17.970  0.00  0.00    +0.000 A 
ATOM      4  C   UNL     1       2.908   7.822  17.807  0.00  0.00    +0.000 A 
ATOM      5  C   UNL     1       2.053   8.276  18.807  0.00  0.00    +0.000 A 
ATOM      6  C   UNL     1       1.903   7.539  19.979  0.00  0.00    +0.000 A 
ATOM      7  C   UNL     1       2.598   6.335  20.144  0.00  0.00    +0.000 A 
ENDBRANCH   1   2
BRANCH   1   8
ATOM      8  C   UNL     1       3.672   3.444  18.205  0.00  0.00    +0.000 C 
ATOM      9  C   UNL     1       3.432   2.028  18.788  0.00  0.00    +0.000 C 
ATOM     10  C   UNL     1       2.068   1.799  19.450  0.00  0.00    +0.000 C 
ATOM     11  C   UNL     1       0.890   2.370  18.670  0.00  0.00    +0.000 C 
ATOM     12  C   UNL     1       1.148   3.793  18.197  0.00  0.00    +0.000 C 
ATOM     13  C   UNL     1       2.436   3.860  17.388  0.00  0.00    +0.000 C 
ENDBRANCH   1   8
BRANCH   1  14
ATOM     14  C   UNL     1       5.645   4.642  19.256  0.00  0.00    +0.000 C 
ATOM     15  O   UNL     1       6.309   5.335  20.024  0.00  0.00    +0.000 OA
BRANCH  14  16
ATOM     16  O   UNL     1       6.165   3.998  18.174  0.00  0.00    +0.000 OA
BRANCH  16  17
ATOM     17  C   UNL     1       7.432   4.526  17.756  0.00  0.00    +0.000 C 
BRANCH  17  18
ATOM     18  C   UNL     1       7.469   4.903  16.266  0.00  0.00    +0.000 C 
BRANCH  18  19
ATOM     19  N   UNL     1       6.805   6.195  15.970  0.00  0.00    +0.000 NA
BRANCH  19  21
ATOM     20  C   UNL     1       5.325   4.519  14.801  0.00  0.00    +0.000 C 
ATOM     21  C   UNL     1       5.550   5.968  15.231  0.00  0.00    +0.000 C 
ENDBRANCH  19  21
BRANCH  19  22
ATOM     22  C   UNL     1       6.659   7.081  17.136  0.00  0.00    +0.000 C 
ATOM     23  C   UNL     1       7.826   8.022  17.412  0.00  0.00    +0.000 C 
ENDBRANCH  19  22
ENDBRANCH  18  19
ENDBRANCH  17  18
ENDBRANCH  16  17
ENDBRANCH  14  16
ENDBRANCH   1  14
TORSDOF 9
ENDMDL
MODEL 5
REMARK VINA RESULT:      -6.7      2.493      6.055
REMARK  Name = 
REMARK  11 active torsions:
REMARK  status: ('A' for Active; 'I' for Inactive)
REMARK    1  A    between atoms: C_1  and  C_2
REMARK    2  A    between atoms: C_2  and  N_3
REMARK    3  A    between atoms: N_3  and  C_4
REMARK    4  A    between atoms: N_3  and  C_6
REMARK    5  A    between atoms: C_4  and  C_5
REMARK    6  A    between atoms: C_6  and  C_7
REMARK    7  A    between atoms: C_7  and  O_8
REMARK    8  A    between atoms: O_8  and  C_9
REMARK    9  A    between atoms: C_9  and  C_11
REMARK   10  A    between atoms: C_11  and  C_12
REMARK   11  A    between atoms: C_11  and  C_18
REMARK                            x       y       z     vdW  Elec       q    Type
REMARK                         _______ _______ _______ _____ _____    ______ ____
ROOT
ATOM      1  C   UNL     1       4.289   4.606  18.446  0.00  0.00    +0.000 C 
ENDROOT
BRANCH   1   2
ATOM      2  C   UNL     1       5.491   5.541  18.327  0.00  0.00    +0.000 A 
ATOM      3  C   UNL     1       6.679   5.292  19.029  0.00  0.00    +0.000 A 
ATOM      4  C   UNL     1       7.801   6.106  18.844  0.00  0.00    +0.000 A 
ATOM      5  C   UNL     1       7.747   7.182  17.963  0.00  0.00    +0.000 A 
ATOM      6  C   UNL     1       6.567   7.458  17.278  0.00  0.00    +0.000 A 
ATOM      7  C   UNL     1       5.443   6.645  17.461  0.00  0.00    +0.000 A 
ENDBRANCH   1   2
BRANCH   1   8
ATOM      8  C   UNL     1       2.908   5.352  18.416  0.00  0.00    +0.000 C 
ATOM      9  C   UNL     1       1.739   4.461  17.924  0.00  0.00    +0.000 C 
ATOM     10  C   UNL     1       1.116   3.534  18.972  0.00  0.00    +0.000 C 
ATOM     11  C   UNL     1       0.881   4.190  20.328  0.00  0.00    +0.000 C 
ATOM     12  C   UNL     1       2.092   4.980  20.803  0.00  0.00    +0.000 C 
ATOM     13  C   UNL     1       2.505   6.003  19.753  0.00  0.00    +0.000 C 
ENDBRANCH   1   8
BRANCH   1  14
ATOM     14  C   UNL     1       4.324   3.540  17.348  0.00  0.00    +0.000 C 
ATOM     15  O   UNL     1       4.209   2.330  17.524  0.00  0.00    +0.000 OA
BRANCH  14  16
ATOM     16  O   UNL     1       4.630   4.107  16.147  0.00  0.00    +0.000 OA
BRANCH  16  17
ATOM     17  C   UNL     1       5.737   3.474  15.488  0.00  0.00    +0.000 C 
BRANCH  17  18
ATOM     18  C   UNL     1       6.769   4.475  14.944  0.00  0.00    +0.000 C 
BRANCH  18  19
ATOM     19  N   UNL     1       6.725   4.620  13.469  0.00  0.00    +0.000 NA
BRANCH  19  21
ATOM     20  C   UNL     1       7.854   6.031  11.708  0.00  0.00    +0.000 C 
ATOM     21  C   UNL     1       7.993   5.184  12.972  0.00  0.00    +0.000 C 
ENDBRANCH  19  21
BRANCH  19  22
ATOM     22  C   UNL     1       6.291   3.409  12.754  0.00  0.00    +0.000 C 
ATOM     23  C   UNL     1       5.000   3.533  11.952  0.00  0.00    +0.000 C 
ENDBRANCH  19  22
ENDBRANCH  18  19
ENDBRANCH  17  18
ENDBRANCH  16  17
ENDBRANCH  14  16
ENDBRANCH   1  14
TORSDOF 9
ENDMDL
MODEL 6
REMARK VINA RESULT:      -6.7      0.579      1.163
REMARK  Name = 
REMARK  11 active torsions:
REMARK  status: ('A' for Active; 'I' for Inactive)
REMARK    1  A    between atoms: C_1  and  C_2
REMARK    2  A    between atoms: C_2  and  N_3
REMARK    3  A    between atoms: N_3  and  C_4
REMARK    4  A    between atoms: N_3  and  C_6
REMARK    5  A    between atoms: C_4  and  C_5
REMARK    6  A    between atoms: C_6  and  C_7
REMARK    7  A    between atoms: C_7  and  O_8
REMARK    8  A    between atoms: O_8  and  C_9
REMARK    9  A    between atoms: C_9  and  C_11
REMARK   10  A    between atoms: C_11  and  C_12
REMARK   11  A    between atoms: C_11  and  C_18
REMARK                            x       y       z     vdW  Elec       q    Type
REMARK                         _______ _______ _______ _____ _____    ______ ____
ROOT
ATOM      1  C   UNL     1       4.533   5.778  17.730  0.00  0.00    +0.000 C 
ENDROOT
BRANCH   1   2
ATOM      2  C   UNL     1       3.524   6.753  18.333  0.00  0.00    +0.000 A 
ATOM      3  C   UNL     1       3.133   7.911  17.646  0.00  0.00    +0.000 A 
ATOM      4  C   UNL     1       2.143   8.751  18.169  0.00  0.00    +0.000 A 
ATOM      5  C   UNL     1       1.539   8.446  19.385  0.00  0.00    +0.000 A 
ATOM      6  C   UNL     1       1.934   7.313  20.091  0.00  0.00    +0.000 A 
ATOM      7  C   UNL     1       2.923   6.472  19.570  0.00  0.00    +0.000 A 
ENDBRANCH   1   2
BRANCH   1   8
ATOM      8  C   UNL     1       5.595   6.469  16.802  0.00  0.00    +0.000 C 
ATOM      9  C   UNL     1       7.042   5.969  17.046  0.00  0.00    +0.000 C 
ATOM     10  C   UNL     1       7.422   4.655  16.355  0.00  0.00    +0.000 C 
ATOM     11  C   UNL     1       6.953   4.550  14.908  0.00  0.00    +0.000 C 
ATOM     12  C   UNL     1       5.501   4.971  14.741  0.00  0.00    +0.000 C 
ATOM     13  C   UNL     1       5.285   6.372  15.296  0.00  0.00    +0.000 C 
ENDBRANCH   1   8
BRANCH   1  14
ATOM     14  C   UNL     1       5.246   4.989  18.832  0.00  0.00    +0.000 C 
ATOM     15  O   UNL     1       5.897   5.479  19.752  0.00  0.00    +0.000 OA
BRANCH  14  16
ATOM     16  O   UNL     1       5.169   3.652  18.584  0.00  0.00    +0.000 OA
BRANCH  16  17
ATOM     17  C   UNL     1       4.460   2.928  19.601  0.00  0.00    +0.000 C 
BRANCH  17  18
ATOM     18  C   UNL     1       3.364   2.009  19.038  0.00  0.00    +0.000 C 
BRANCH  18  19
ATOM     19  N   UNL     1       2.019   2.290  19.595  0.00  0.00    +0.000 NA
BRANCH  19  21
ATOM     20  C   UNL     1       1.414   2.540  22.032  0.00  0.00    +0.000 C 
ATOM     21  C   UNL     1       2.132   3.115  20.811  0.00  0.00    +0.000 C 
ENDBRANCH  19  21
BRANCH  19  22
ATOM     22  C   UNL     1       1.052   2.804  18.613  0.00  0.00    +0.000 C 
ATOM     23  C   UNL     1       1.631   3.645  17.481  0.00  0.00    +0.000 C 
ENDBRANCH  19  22
ENDBRANCH  18  19
ENDBRANCH  17  18
ENDBRANCH  16  17
ENDBRANCH  14  16
ENDBRANCH   1  14
TORSDOF 9
ENDMDL
MODEL 7
REMARK VINA RESULT:      -6.6      0.425      1.540
REMARK  Name = 
REMARK  11 active torsions:
REMARK  status: ('A' for Active; 'I' for Inactive)
REMARK    1  A    between atoms: C_1  and  C_2
REMARK    2  A    between atoms: C_2  and  N_3
REMARK    3  A    between atoms: N_3  and  C_4
REMARK    4  A    between atoms: N_3  and  C_6
REMARK    5  A    between atoms: C_4  and  C_5
REMARK    6  A    between atoms: C_6  and  C_7
REMARK    7  A    between atoms: C_7  and  O_8
REMARK    8  A    between atoms: O_8  and  C_9
REMARK    9  A    between atoms: C_9  and  C_11
REMARK   10  A    between atoms: C_11  and  C_12
REMARK   11  A    between atoms: C_11  and  C_18
REMARK                            x       y       z     vdW  Elec       q    Type
REMARK                         _______ _______ _______ _____ _____    ______ ____
ROOT
ATOM      1  C   UNL     1       4.684   5.608  17.864  0.00  0.00    +0.000 C 
ENDROOT
BRANCH   1   2
ATOM      2  C   UNL     1       3.597   6.567  18.346  0.00  0.00    +0.000 A 
ATOM      3  C   UNL     1       2.971   6.392  19.588  0.00  0.00    +0.000 A 
ATOM      4  C   UNL     1       2.039   7.326  20.056  0.00  0.00    +0.000 A 
ATOM      5  C   UNL     1       1.718   8.439  19.286  0.00  0.00    +0.000 A 
ATOM      6  C   UNL     1       2.313   8.615  18.039  0.00  0.00    +0.000 A 
ATOM      7  C   UNL     1       3.244   7.682  17.569  0.00  0.00    +0.000 A 
ENDBRANCH   1   2
BRANCH   1   8
ATOM      8  C   UNL     1       5.655   6.242  16.805  0.00  0.00    +0.000 C 
ATOM      9  C   UNL     1       7.100   5.687  16.888  0.00  0.00    +0.000 C 
ATOM     10  C   UNL     1       7.345   4.349  16.182  0.00  0.00    +0.000 C 
ATOM     11  C   UNL     1       6.706   4.244  14.802  0.00  0.00    +0.000 C 
ATOM     12  C   UNL     1       5.261   4.721  14.798  0.00  0.00    +0.000 C 
ATOM     13  C   UNL     1       5.167   6.138  15.349  0.00  0.00    +0.000 C 
ENDBRANCH   1   8
BRANCH   1  14
ATOM     14  C   UNL     1       5.491   5.070  19.048  0.00  0.00    +0.000 C 
ATOM     15  O   UNL     1       6.149   5.750  19.831  0.00  0.00    +0.000 OA
BRANCH  14  16
ATOM     16  O   UNL     1       5.486   3.707  19.045  0.00  0.00    +0.000 OA
BRANCH  16  17
ATOM     17  C   UNL     1       4.273   3.147  18.525  0.00  0.00    +0.000 C 
BRANCH  17  18
ATOM     18  C   UNL     1       3.302   2.680  19.621  0.00  0.00    +0.000 C 
BRANCH  18  19
ATOM     19  N   UNL     1       1.983   3.358  19.565  0.00  0.00    +0.000 NA
BRANCH  19  21
ATOM     20  C   UNL     1       1.153   4.167  17.325  0.00  0.00    +0.000 C 
ATOM     21  C   UNL     1       1.283   3.011  18.316  0.00  0.00    +0.000 C 
ENDBRANCH  19  21
BRANCH  19  22
ATOM     22  C   UNL     1       1.164   3.188  20.775  0.00  0.00    +0.000 C 
ATOM     23  C   UNL     1       1.859   2.543  21.969  0.00  0.00    +0.000 C 
ENDBRANCH  19  22
ENDBRANCH  18  19
ENDBRANCH  17  18
ENDBRANCH  16  17
ENDBRANCH  14  16
ENDBRANCH   1  14
TORSDOF 9
ENDMDL
MODEL 8
REMARK VINA RESULT:      -6.6      2.301      5.404
REMARK  Name = 
REMARK  11 active torsions:
REMARK  status: ('A' for Active; 'I' for Inactive)
REMARK    1  A    between atoms: C_1  and  C_2
REMARK    2  A    between atoms: C_2  and  N_3
REMARK    3  A    between atoms: N_3  and  C_4
REMARK    4  A    between atoms: N_3  and  C_6
REMARK    5  A    between atoms: C_4  and  C_5
REMARK    6  A    between atoms: C_6  and  C_7
REMARK    7  A    between atoms: C_7  and  O_8
REMARK    8  A    between atoms: O_8  and  C_9
REMARK    9  A    between atoms: C_9  and  C_11
REMARK   10  A    between atoms: C_11  and  C_12
REMARK   11  A    between atoms: C_11  and  C_18
REMARK                            x       y       z     vdW  Elec       q    Type
REMARK                         _______ _______ _______ _____ _____    ______ ____
ROOT
ATOM      1  C   UNL     1       3.714   5.226  18.337  0.00  0.00    +0.000 C 
ENDROOT
BRANCH   1   2
ATOM      2  C   UNL     1       3.019   6.564  18.582  0.00  0.00    +0.000 A 
ATOM      3  C   UNL     1       2.860   7.501  17.550  0.00  0.00    +0.000 A 
ATOM      4  C   UNL     1       2.145   8.684  17.765  0.00  0.00    +0.000 A 
ATOM      5  C   UNL     1       1.589   8.948  19.013  0.00  0.00    +0.000 A 
ATOM      6  C   UNL     1       1.759   8.040  20.054  0.00  0.00    +0.000 A 
ATOM      7  C   UNL     1       2.473   6.856  19.842  0.00  0.00    +0.000 A 
ENDBRANCH   1   2
BRANCH   1   8
ATOM      8  C   UNL     1       2.826   4.192  17.555  0.00  0.00    +0.000 C 
ATOM      9  C   UNL     1       3.349   2.736  17.654  0.00  0.00    +0.000 C 
ATOM     10  C   UNL     1       2.965   1.972  18.926  0.00  0.00    +0.000 C 
ATOM     11  C   UNL     1       1.511   2.151  19.349  0.00  0.00    +0.000 C 
ATOM     12  C   UNL     1       1.078   3.609  19.317  0.00  0.00    +0.000 C 
ATOM     13  C   UNL     1       1.336   4.211  17.942  0.00  0.00    +0.000 C 
ENDBRANCH   1   8
BRANCH   1  14
ATOM     14  C   UNL     1       5.037   5.434  17.597  0.00  0.00    +0.000 C 
ATOM     15  O   UNL     1       6.025   6.008  18.049  0.00  0.00    +0.000 OA
BRANCH  14  16
ATOM     16  O   UNL     1       4.933   5.004  16.308  0.00  0.00    +0.000 OA
BRANCH  16  17
ATOM     17  C   UNL     1       6.102   4.312  15.846  0.00  0.00    +0.000 C 
BRANCH  17  18
ATOM     18  C   UNL     1       6.730   4.950  14.596  0.00  0.00    +0.000 C 
BRANCH  18  19
ATOM     19  N   UNL     1       6.662   4.081  13.397  0.00  0.00    +0.000 NA
BRANCH  19  21
ATOM     20  C   UNL     1       5.037   3.065  11.756  0.00  0.00    +0.000 C 
ATOM     21  C   UNL     1       5.270   3.672  13.139  0.00  0.00    +0.000 C 
ENDBRANCH  19  21
BRANCH  19  22
ATOM     22  C   UNL     1       7.352   4.625  12.216  0.00  0.00    +0.000 C 
ATOM     23  C   UNL     1       8.276   5.811  12.469  0.00  0.00    +0.000 C 
ENDBRANCH  19  22
ENDBRANCH  18  19
ENDBRANCH  17  18
ENDBRANCH  16  17
ENDBRANCH  14  16
ENDBRANCH   1  14
TORSDOF 9
ENDMDL
MODEL 9
REMARK VINA RESULT:      -6.5      2.813      6.096
REMARK  Name = 
REMARK  11 active torsions:
REMARK  status: ('A' for Active; 'I' for Inactive)
REMARK    1  A    between atoms: C_1  and  C_2
REMARK    2  A    between atoms: C_2  and  N_3
REMARK    3  A    between atoms: N_3  and  C_4
REMARK    4  A    between atoms: N_3  and  C_6
REMARK    5  A    between atoms: C_4  and  C_5
REMARK    6  A    between atoms: C_6  and  C_7
REMARK    7  A    between atoms: C_7  and  O_8
REMARK    8  A    between atoms: O_8  and  C_9
REMARK    9  A    between atoms: C_9  and  C_11
REMARK   10  A    between atoms: C_11  and  C_12
REMARK   11  A    between atoms: C_11  and  C_18
REMARK                            x       y       z     vdW  Elec       q    Type
REMARK                         _______ _______ _______ _____ _____    ______ ____
ROOT
ATOM      1  C   UNL     1       3.042   5.318  18.536  0.00  0.00    +0.000 C 
ENDROOT
BRANCH   1   2
ATOM      2  C   UNL     1       4.469   5.206  18.005  0.00  0.00    +0.000 A 
ATOM      3  C   UNL     1       5.571   5.553  18.801  0.00  0.00    +0.000 A 
ATOM      4  C   UNL     1       6.876   5.362  18.335  0.00  0.00    +0.000 A 
ATOM      5  C   UNL     1       7.095   4.832  17.068  0.00  0.00    +0.000 A 
ATOM      6  C   UNL     1       6.013   4.506  16.255  0.00  0.00    +0.000 A 
ATOM      7  C   UNL     1       4.706   4.695  16.719  0.00  0.00    +0.000 A 
ENDBRANCH   1   2
BRANCH   1   8
ATOM      8  C   UNL     1       2.761   4.402  19.781  0.00  0.00    +0.000 C 
ATOM      9  C   UNL     1       1.255   4.108  19.999  0.00  0.00    +0.000 C 
ATOM     10  C   UNL     1       0.662   2.981  19.146  0.00  0.00    +0.000 C 
ATOM     11  C   UNL     1       1.541   1.739  19.052  0.00  0.00    +0.000 C 
ATOM     12  C   UNL     1       2.992   2.083  18.749  0.00  0.00    +0.000 C 
ATOM     13  C   UNL     1       3.531   3.068  19.777  0.00  0.00    +0.000 C 
ENDBRANCH   1   8
BRANCH   1  14
ATOM     14  C   UNL     1       2.707   6.772  18.880  0.00  0.00    +0.000 C 
ATOM     15  O   UNL     1       2.508   7.211  20.010  0.00  0.00    +0.000 OA
BRANCH  14  16
ATOM     16  O   UNL     1       2.532   7.501  17.741  0.00  0.00    +0.000 OA
BRANCH  16  17
ATOM     17  C   UNL     1       2.286   8.892  17.992  0.00  0.00    +0.000 C 
BRANCH  17  18
ATOM     18  C   UNL     1       0.798   9.269  17.905  0.00  0.00    +0.000 C 
BRANCH  18  19
ATOM     19  N   UNL     1       0.459  10.497  18.665  0.00  0.00    +0.000 NA
BRANCH  19  21
ATOM     20  C   UNL     1      -1.645  10.034  17.351  0.00  0.00    +0.000 C 
ATOM     21  C   UNL     1      -0.925  10.911  18.375  0.00  0.00    +0.000 C 
ENDBRANCH  19  21
BRANCH  19  22
ATOM     22  C   UNL     1       0.772  10.426  20.101  0.00  0.00    +0.000 C 
ATOM     23  C   UNL     1      -0.042   9.426  20.914  0.00  0.00    +0.000 C 
ENDBRANCH  19  22
ENDBRANCH  18  19
ENDBRANCH  17  18
ENDBRANCH  16  17
ENDBRANCH  14  16
ENDBRANCH   1  14
TORSDOF 9
ENDMDL
