MODEL 1
REMARK VINA RESULT:      -8.3      0.000      0.000
REMARK  Name = 
REMARK  8 active torsions:
REMARK  status: ('A' for Active; 'I' for Inactive)
REMARK    1  A    between atoms: C_1  and  C_2
REMARK    2  A    between atoms: C_2  and  C_4
REMARK    3  A    between atoms: C_8  and  N_9
REMARK    4  A    between atoms: C_13  and  C_14
REMARK    5  A    between atoms: C_14  and  N_15
REMARK    6  A    between atoms: C_17  and  C_18
REMARK    7  A    between atoms: C_19  and  C_20
REMARK    8  A    between atoms: C_21  and  C_22
REMARK                            x       y       z     vdW  Elec       q    Type
REMARK                         _______ _______ _______ _____ _____    ______ ____
ROOT
ATOM      1  N   UNL     1       6.757   4.667  16.237  0.00  0.00    +0.000 N 
ATOM      2  C   UNL     1       7.757   4.420  17.150  0.00  0.00    +0.000 A 
ATOM      3  N   UNL     1       7.374   4.738  18.361  0.00  0.00    +0.000 NA
ATOM      4  N   UNL     1       6.086   5.173  18.279  0.00  0.00    +0.000 NA
ATOM      5  C   UNL     1       5.690   5.091  17.019  0.00  0.00    +0.000 A 
ENDROOT
BRANCH   1  10
ATOM      6  C   UNL     1       6.210   3.633  12.690  0.00  0.00    +0.000 A 
ATOM      7  C   UNL     1       7.109   4.490  12.041  0.00  0.00    +0.000 A 
ATOM      8  C   UNL     1       7.905   5.366  12.776  0.00  0.00    +0.000 A 
ATOM      9  C   UNL     1       7.797   5.402  14.164  0.00  0.00    +0.000 A 
ATOM     10  C   UNL     1       6.911   4.540  14.831  0.00  0.00    +0.000 A 
ATOM     11  C   UNL     1       6.124   3.646  14.092  0.00  0.00    +0.000 A 
BRANCH   6  13
ATOM     12  C   UNL     1       4.024   3.323  11.336  0.00  0.00    +0.000 C 
ATOM     13  C   UNL     1       5.335   2.774  11.834  0.00  0.00    +0.000 C 
ATOM     14  O   UNL     1       5.712   1.648  11.510  0.00  0.00    +0.000 OA
ENDBRANCH   6  13
ENDBRANCH   1  10
BRANCH   5  15
ATOM     15  C   UNL     1       4.272   5.277  16.610  0.00  0.00    +0.000 C 
BRANCH  15  16
ATOM     16  N   UNL     1       3.323   4.746  17.582  0.00  0.00    +0.000 N 
ATOM     17  N   UNL     1       3.012   3.436  17.510  0.00  0.00    +0.000 NA
ATOM     18  C   UNL     1       2.133   3.246  18.498  0.00  0.00    +0.000 A 
ATOM     19  C   UNL     1       1.554   1.899  18.732  0.00  0.00    +0.000 C 
ATOM     20  C   UNL     1       1.879   4.444  19.216  0.00  0.00    +0.000 A 
ATOM     21  C   UNL     1       0.990   4.628  20.390  0.00  0.00    +0.000 C 
ATOM     22  C   UNL     1       2.630   5.411  18.566  0.00  0.00    +0.000 A 
ATOM     23  C   UNL     1       2.716   6.876  18.810  0.00  0.00    +0.000 C 
ENDBRANCH  15  16
ENDBRANCH   5  15
TORSDOF 4
ENDMDL
MODEL 2
REMARK VINA RESULT:      -8.3      2.367      4.563
REMARK  Name = 
REMARK  8 active torsions:
REMARK  status: ('A' for Active; 'I' for Inactive)
REMARK    1  A    between atoms: C_1  and  C_2
REMARK    2  A    between atoms: C_2  and  C_4
REMARK    3  A    between atoms: C_8  and  N_9
REMARK    4  A    between atoms: C_13  and  C_14
REMARK    5  A    between atoms: C_14  and  N_15
REMARK    6  A    between atoms: C_17  and  C_18
REMARK    7  A    between atoms: C_19  and  C_20
REMARK    8  A    between atoms: C_21  and  C_22
REMARK                            x       y       z     vdW  Elec       q    Type
REMARK                         _______ _______ _______ _____ _____    ______ ____
ROOT
ATOM      1  N   UNL     1       3.348   4.166  17.927  0.00  0.00    +0.000 N 
ATOM      2  C   UNL     1       2.397   3.422  17.265  0.00  0.00    +0.000 A 
ATOM      3  N   UNL     1       1.270   3.404  17.932  0.00  0.00    +0.000 NA
ATOM      4  N   UNL     1       1.443   4.173  19.043  0.00  0.00    +0.000 NA
ATOM      5  C   UNL     1       2.668   4.672  19.028  0.00  0.00    +0.000 A 
ENDROOT
BRANCH   1  10
ATOM      6  C   UNL     1       6.389   4.516  15.787  0.00  0.00    +0.000 A 
ATOM      7  C   UNL     1       7.366   4.699  16.774  0.00  0.00    +0.000 A 
ATOM      8  C   UNL     1       7.021   4.668  18.124  0.00  0.00    +0.000 A 
ATOM      9  C   UNL     1       5.694   4.470  18.496  0.00  0.00    +0.000 A 
ATOM     10  C   UNL     1       4.704   4.272  17.519  0.00  0.00    +0.000 A 
ATOM     11  C   UNL     1       5.055   4.284  16.162  0.00  0.00    +0.000 A 
BRANCH   6  13
ATOM     12  C   UNL     1       6.147   3.783  13.315  0.00  0.00    +0.000 C 
ATOM     13  C   UNL     1       6.818   4.636  14.359  0.00  0.00    +0.000 C 
ATOM     14  O   UNL     1       7.680   5.456  14.047  0.00  0.00    +0.000 OA
ENDBRANCH   6  13
ENDBRANCH   1  10
BRANCH   5  15
ATOM     15  C   UNL     1       3.115   5.728  19.974  0.00  0.00    +0.000 C 
BRANCH  15  16
ATOM     16  N   UNL     1       2.371   6.974  19.834  0.00  0.00    +0.000 N 
ATOM     17  N   UNL     1       1.502   7.303  20.812  0.00  0.00    +0.000 NA
ATOM     18  C   UNL     1       0.974   8.464  20.414  0.00  0.00    +0.000 A 
ATOM     19  C   UNL     1      -0.045   9.146  21.250  0.00  0.00    +0.000 C 
ATOM     20  C   UNL     1       1.511   8.889  19.170  0.00  0.00    +0.000 A 
ATOM     21  C   UNL     1       1.197  10.132  18.422  0.00  0.00    +0.000 C 
ATOM     22  C   UNL     1       2.379   7.875  18.796  0.00  0.00    +0.000 A 
ATOM     23  C   UNL     1       3.180   7.715  17.552  0.00  0.00    +0.000 C 
ENDBRANCH  15  16
ENDBRANCH   5  15
TORSDOF 4
ENDMDL
MODEL 3
REMARK VINA RESULT:      -8.1      0.700      1.722
REMARK  Name = 
REMARK  8 active torsions:
REMARK  status: ('A' for Active; 'I' for Inactive)
REMARK    1  A    between atoms: C_1  and  C_2
REMARK    2  A    between atoms: C_2  and  C_4
REMARK    3  A    between atoms: C_8  and  N_9
REMARK    4  A    between atoms: C_13  and  C_14
REMARK    5  A    between atoms: C_14  and  N_15
REMARK    6  A    between atoms: C_17  and  C_18
REMARK    7  A    between atoms: C_19  and  C_20
REMARK    8  A    between atoms: C_21  and  C_22
REMARK                            x       y       z     vdW  Elec       q    Type
REMARK                         _______ _______ _______ _____ _____    ______ ____
ROOT
ATOM      1  N   UNL     1       6.768   4.645  16.253  0.00  0.00    +0.000 N 
ATOM      2  C   UNL     1       7.767   4.379  17.162  0.00  0.00    +0.000 A 
ATOM      3  N   UNL     1       7.392   4.696  18.375  0.00  0.00    +0.000 NA
ATOM      4  N   UNL     1       6.110   5.150  18.299  0.00  0.00    +0.000 NA
ATOM      5  C   UNL     1       5.709   5.081  17.040  0.00  0.00    +0.000 A 
ENDROOT
BRANCH   1  10
ATOM      6  C   UNL     1       6.202   3.631  12.703  0.00  0.00    +0.000 A 
ATOM      7  C   UNL     1       7.104   4.485  12.055  0.00  0.00    +0.000 A 
ATOM      8  C   UNL     1       7.908   5.353  12.791  0.00  0.00    +0.000 A 
ATOM      9  C   UNL     1       7.805   5.384  14.179  0.00  0.00    +0.000 A 
ATOM     10  C   UNL     1       6.916   4.524  14.846  0.00  0.00    +0.000 A 
ATOM     11  C   UNL     1       6.122   3.638  14.106  0.00  0.00    +0.000 A 
BRANCH   6  13
ATOM     12  C   UNL     1       4.001   3.332  11.373  0.00  0.00    +0.000 C 
ATOM     13  C   UNL     1       5.319   2.781  11.846  0.00  0.00    +0.000 C 
ATOM     14  O   UNL     1       5.696   1.662  11.501  0.00  0.00    +0.000 OA
ENDBRANCH   6  13
ENDBRANCH   1  10
BRANCH   5  15
ATOM     15  C   UNL     1       4.294   5.291  16.636  0.00  0.00    +0.000 C 
BRANCH  15  16
ATOM     16  N   UNL     1       3.367   5.252  17.761  0.00  0.00    +0.000 N 
ATOM     17  N   UNL     1       3.181   6.387  18.465  0.00  0.00    +0.000 NA
ATOM     18  C   UNL     1       2.305   6.051  19.417  0.00  0.00    +0.000 A 
ATOM     19  C   UNL     1       1.853   7.062  20.405  0.00  0.00    +0.000 C 
ATOM     20  C   UNL     1       1.920   4.688  19.322  0.00  0.00    +0.000 A 
ATOM     21  C   UNL     1       0.951   3.956  20.176  0.00  0.00    +0.000 C 
ATOM     22  C   UNL     1       2.664   4.184  18.267  0.00  0.00    +0.000 A 
ATOM     23  C   UNL     1       2.750   2.796  17.737  0.00  0.00    +0.000 C 
ENDBRANCH  15  16
ENDBRANCH   5  15
TORSDOF 4
ENDMDL
MODEL 4
REMARK VINA RESULT:      -7.8      4.196      7.504
REMARK  Name = 
REMARK  8 active torsions:
REMARK  status: ('A' for Active; 'I' for Inactive)
REMARK    1  A    between atoms: C_1  and  C_2
REMARK    2  A    between atoms: C_2  and  C_4
REMARK    3  A    between atoms: C_8  and  N_9
REMARK    4  A    between atoms: C_13  and  C_14
REMARK    5  A    between atoms: C_14  and  N_15
REMARK    6  A    between atoms: C_17  and  C_18
REMARK    7  A    between atoms: C_19  and  C_20
REMARK    8  A    between atoms: C_21  and  C_22
REMARK                            x       y       z     vdW  Elec       q    Type
REMARK                         _______ _______ _______ _____ _____    ______ ____
ROOT
ATOM      1  N   UNL     1       2.781   4.585  19.620  0.00  0.00    +0.000 N 
ATOM      2  C   UNL     1       2.524   3.761  20.692  0.00  0.00    +0.000 A 
ATOM      3  N   UNL     1       2.949   2.545  20.460  0.00  0.00    +0.000 NA
ATOM      4  N   UNL     1       3.536   2.547  19.231  0.00  0.00    +0.000 NA
ATOM      5  C   UNL     1       3.482   3.773  18.737  0.00  0.00    +0.000 A 
ENDROOT
BRANCH   1  10
ATOM      6  C   UNL     1       1.501   7.972  20.533  0.00  0.00    +0.000 A 
ATOM      7  C   UNL     1       1.660   8.635  19.309  0.00  0.00    +0.000 A 
ATOM      8  C   UNL     1       2.149   7.955  18.196  0.00  0.00    +0.000 A 
ATOM      9  C   UNL     1       2.497   6.611  18.303  0.00  0.00    +0.000 A 
ATOM     10  C   UNL     1       2.331   5.928  19.519  0.00  0.00    +0.000 A 
ATOM     11  C   UNL     1       1.821   6.608  20.633  0.00  0.00    +0.000 A 
BRANCH   6  13
ATOM     12  C   UNL     1      -0.422   8.811  22.051  0.00  0.00    +0.000 C 
ATOM     13  C   UNL     1       1.043   8.783  21.703  0.00  0.00    +0.000 C 
ATOM     14  O   UNL     1       1.867   9.381  22.394  0.00  0.00    +0.000 OA
ENDBRANCH   6  13
ENDBRANCH   1  10
BRANCH   5  15
ATOM     15  C   UNL     1       4.221   4.176  17.512  0.00  0.00    +0.000 C 
BRANCH  15  16
ATOM     16  N   UNL     1       5.381   5.014  17.793  0.00  0.00    +0.000 N 
ATOM     17  N   UNL     1       6.148   4.694  18.855  0.00  0.00    +0.000 NA
ATOM     18  C   UNL     1       7.108   5.624  18.867  0.00  0.00    +0.000 A 
ATOM     19  C   UNL     1       8.158   5.598  19.916  0.00  0.00    +0.000 C 
ATOM     20  C   UNL     1       6.960   6.549  17.800  0.00  0.00    +0.000 A 
ATOM     21  C   UNL     1       7.839   7.698  17.466  0.00  0.00    +0.000 C 
ATOM     22  C   UNL     1       5.802   6.155  17.150  0.00  0.00    +0.000 A 
ATOM     23  C   UNL     1       5.092   6.780  16.002  0.00  0.00    +0.000 C 
ENDBRANCH  15  16
ENDBRANCH   5  15
TORSDOF 4
ENDMDL
MODEL 5
REMARK VINA RESULT:      -7.6      3.224      5.410
REMARK  Name = 
REMARK  8 active torsions:
REMARK  status: ('A' for Active; 'I' for Inactive)
REMARK    1  A    between atoms: C_1  and  C_2
REMARK    2  A    between atoms: C_2  and  C_4
REMARK    3  A    between atoms: C_8  and  N_9
REMARK    4  A    between atoms: C_13  and  C_14
REMARK    5  A    between atoms: C_14  and  N_15
REMARK    6  A    between atoms: C_17  and  C_18
REMARK    7  A    between atoms: C_19  and  C_20
REMARK    8  A    between atoms: C_21  and  C_22
REMARK                            x       y       z     vdW  Elec       q    Type
REMARK                         _______ _______ _______ _____ _____    ______ ____
ROOT
ATOM      1  N   UNL     1       3.163   4.550  17.840  0.00  0.00    +0.000 N 
ATOM      2  C   UNL     1       2.207   3.775  17.223  0.00  0.00    +0.000 A 
ATOM      3  N   UNL     1       1.162   3.616  17.995  0.00  0.00    +0.000 NA
ATOM      4  N   UNL     1       1.392   4.321  19.139  0.00  0.00    +0.000 NA
ATOM      5  C   UNL     1       2.566   4.921  19.039  0.00  0.00    +0.000 A 
ENDROOT
BRANCH   1  10
ATOM      6  C   UNL     1       6.640   5.852  17.436  0.00  0.00    +0.000 A 
ATOM      7  C   UNL     1       7.065   5.085  16.343  0.00  0.00    +0.000 A 
ATOM      8  C   UNL     1       6.198   4.181  15.734  0.00  0.00    +0.000 A 
ATOM      9  C   UNL     1       4.903   4.027  16.222  0.00  0.00    +0.000 A 
ATOM     10  C   UNL     1       4.456   4.798  17.308  0.00  0.00    +0.000 A 
ATOM     11  C   UNL     1       5.323   5.720  17.909  0.00  0.00    +0.000 A 
BRANCH   6  13
ATOM     12  C   UNL     1       7.833   8.147  17.565  0.00  0.00    +0.000 C 
ATOM     13  C   UNL     1       7.647   6.746  18.086  0.00  0.00    +0.000 C 
ATOM     14  O   UNL     1       8.278   6.348  19.064  0.00  0.00    +0.000 OA
ENDBRANCH   6  13
ENDBRANCH   1  10
BRANCH   5  15
ATOM     15  C   UNL     1       3.028   5.945  20.013  0.00  0.00    +0.000 C 
BRANCH  15  16
ATOM     16  N   UNL     1       2.181   7.132  20.041  0.00  0.00    +0.000 N 
ATOM     17  N   UNL     1       1.371   7.304  21.105  0.00  0.00    +0.000 NA
ATOM     18  C   UNL     1       0.725   8.446  20.852  0.00  0.00    +0.000 A 
ATOM     19  C   UNL     1      -0.273   8.969  21.819  0.00  0.00    +0.000 C 
ATOM     20  C   UNL     1       1.126   9.017  19.615  0.00  0.00    +0.000 A 
ATOM     21  C   UNL     1       0.658  10.287  19.007  0.00  0.00    +0.000 C 
ATOM     22  C   UNL     1       2.037   8.114  19.090  0.00  0.00    +0.000 A 
ATOM     23  C   UNL     1       2.744   8.125  17.781  0.00  0.00    +0.000 C 
ENDBRANCH  15  16
ENDBRANCH   5  15
TORSDOF 4
ENDMDL
MODEL 6
REMARK VINA RESULT:      -7.5      3.312      6.903
REMARK  Name = 
REMARK  8 active torsions:
REMARK  status: ('A' for Active; 'I' for Inactive)
REMARK    1  A    between atoms: C_1  and  C_2
REMARK    2  A    between atoms: C_2  and  C_4
REMARK    3  A    between atoms: C_8  and  N_9
REMARK    4  A    between atoms: C_13  and  C_14
REMARK    5  A    between atoms: C_14  and  N_15
REMARK    6  A    between atoms: C_17  and  C_18
REMARK    7  A    between atoms: C_19  and  C_20
REMARK    8  A    between atoms: C_21  and  C_22
REMARK                            x       y       z     vdW  Elec       q    Type
REMARK                         _______ _______ _______ _____ _____    ______ ____
ROOT
ATOM      1  N   UNL     1       2.539   3.982  18.938  0.00  0.00    +0.000 N 
ATOM      2  C   UNL     1       1.548   3.080  18.627  0.00  0.00    +0.000 A 
ATOM      3  N   UNL     1       2.056   1.978  18.135  0.00  0.00    +0.000 NA
ATOM      4  N   UNL     1       3.411   2.117  18.143  0.00  0.00    +0.000 NA
ATOM      5  C   UNL     1       3.714   3.294  18.664  0.00  0.00    +0.000 A 
ENDROOT
BRANCH   1  10
ATOM      6  C   UNL     1       2.037   7.683  18.918  0.00  0.00    +0.000 A 
ATOM      7  C   UNL     1       1.606   7.882  20.236  0.00  0.00    +0.000 A 
ATOM      8  C   UNL     1       1.521   6.809  21.120  0.00  0.00    +0.000 A 
ATOM      9  C   UNL     1       1.852   5.527  20.689  0.00  0.00    +0.000 A 
ATOM     10  C   UNL     1       2.299   5.313  19.374  0.00  0.00    +0.000 A 
ATOM     11  C   UNL     1       2.402   6.396  18.491  0.00  0.00    +0.000 A 
BRANCH   6  13
ATOM     12  C   UNL     1       1.104  10.018  18.295  0.00  0.00    +0.000 C 
ATOM     13  C   UNL     1       2.032   8.867  18.004  0.00  0.00    +0.000 C 
ATOM     14  O   UNL     1       2.812   8.910  17.054  0.00  0.00    +0.000 OA
ENDBRANCH   6  13
ENDBRANCH   1  10
BRANCH   5  15
ATOM     15  C   UNL     1       5.105   3.677  19.024  0.00  0.00    +0.000 C 
BRANCH  15  16
ATOM     16  N   UNL     1       5.605   4.809  18.252  0.00  0.00    +0.000 N 
ATOM     17  N   UNL     1       5.029   5.062  17.059  0.00  0.00    +0.000 NA
ATOM     18  C   UNL     1       5.686   6.127  16.590  0.00  0.00    +0.000 A 
ATOM     19  C   UNL     1       5.325   6.705  15.271  0.00  0.00    +0.000 C 
ATOM     20  C   UNL     1       6.692   6.566  17.490  0.00  0.00    +0.000 A 
ATOM     21  C   UNL     1       7.606   7.725  17.337  0.00  0.00    +0.000 C 
ATOM     22  C   UNL     1       6.646   5.660  18.538  0.00  0.00    +0.000 A 
ATOM     23  C   UNL     1       7.509   5.553  19.746  0.00  0.00    +0.000 C 
ENDBRANCH  15  16
ENDBRANCH   5  15
TORSDOF 4
ENDMDL
MODEL 7
REMARK VINA RESULT:      -7.5      1.344      1.593
REMARK  Name = 
REMARK  8 active torsions:
REMARK  status: ('A' for Active; 'I' for Inactive)
REMARK    1  A    between atoms: C_1  and  C_2
REMARK    2  A    between atoms: C_2  and  C_4
REMARK    3  A    between atoms: C_8  and  N_9
REMARK    4  A    between atoms: C_13  and  C_14
REMARK    5  A    between atoms: C_14  and  N_15
REMARK    6  A    between atoms: C_17  and  C_18
REMARK    7  A    between atoms: C_19  and  C_20
REMARK    8  A    between atoms: C_21  and  C_22
REMARK                            x       y       z     vdW  Elec       q    Type
REMARK                         _______ _______ _______ _____ _____    ______ ____
ROOT
ATOM      1  N   UNL     1       6.167   5.371  15.899  0.00  0.00    +0.000 N 
ATOM      2  C   UNL     1       6.756   6.441  16.533  0.00  0.00    +0.000 A 
ATOM      3  N   UNL     1       6.148   6.709  17.661  0.00  0.00    +0.000 NA
ATOM      4  N   UNL     1       5.155   5.789  17.817  0.00  0.00    +0.000 NA
ATOM      5  C   UNL     1       5.186   4.954  16.791  0.00  0.00    +0.000 A 
ENDROOT
BRANCH   1  10
ATOM      6  C   UNL     1       6.033   3.660  12.582  0.00  0.00    +0.000 A 
ATOM      7  C   UNL     1       7.154   4.230  11.964  0.00  0.00    +0.000 A 
ATOM      8  C   UNL     1       7.956   5.136  12.654  0.00  0.00    +0.000 A 
ATOM      9  C   UNL     1       7.634   5.491  13.961  0.00  0.00    +0.000 A 
ATOM     10  C   UNL     1       6.522   4.919  14.600  0.00  0.00    +0.000 A 
ATOM     11  C   UNL     1       5.726   3.992  13.912  0.00  0.00    +0.000 A 
BRANCH   6  13
ATOM     12  C   UNL     1       3.848   3.252  11.254  0.00  0.00    +0.000 C 
ATOM     13  C   UNL     1       5.176   2.753  11.757  0.00  0.00    +0.000 C 
ATOM     14  O   UNL     1       5.582   1.630  11.461  0.00  0.00    +0.000 OA
ENDBRANCH   6  13
ENDBRANCH   1  10
BRANCH   5  15
ATOM     15  C   UNL     1       4.386   3.701  16.752  0.00  0.00    +0.000 C 
BRANCH  15  16
ATOM     16  N   UNL     1       3.757   3.385  18.029  0.00  0.00    +0.000 N 
ATOM     17  N   UNL     1       4.467   2.665  18.921  0.00  0.00    +0.000 NA
ATOM     18  C   UNL     1       3.648   2.527  19.968  0.00  0.00    +0.000 A 
ATOM     19  C   UNL     1       4.092   1.775  21.168  0.00  0.00    +0.000 C 
ATOM     20  C   UNL     1       2.400   3.168  19.749  0.00  0.00    +0.000 A 
ATOM     21  C   UNL     1       1.250   3.259  20.683  0.00  0.00    +0.000 C 
ATOM     22  C   UNL     1       2.485   3.674  18.462  0.00  0.00    +0.000 A 
ATOM     23  C   UNL     1       1.461   4.382  17.646  0.00  0.00    +0.000 C 
ENDBRANCH  15  16
ENDBRANCH   5  15
TORSDOF 4
ENDMDL
MODEL 8
REMARK VINA RESULT:      -7.4      2.579      6.525
REMARK  Name = 
REMARK  8 active torsions:
REMARK  status: ('A' for Active; 'I' for Inactive)
REMARK    1  A    between atoms: C_1  and  C_2
REMARK    2  A    between atoms: C_2  and  C_4
REMARK    3  A    between atoms: C_8  and  N_9
REMARK    4  A    between atoms: C_13  and  C_14
REMARK    5  A    between atoms: C_14  and  N_15
REMARK    6  A    between atoms: C_17  and  C_18
REMARK    7  A    between atoms: C_19  and  C_20
REMARK    8  A    between atoms: C_21  and  C_22
REMARK                            x       y       z     vdW  Elec       q    Type
REMARK                         _______ _______ _______ _____ _____    ______ ____
ROOT
ATOM      1  N   UNL     1       5.881   6.488  17.628  0.00  0.00    +0.000 N 
ATOM      2  C   UNL     1       5.977   7.857  17.723  0.00  0.00    +0.000 A 
ATOM      3  N   UNL     1       7.176   8.266  17.395  0.00  0.00    +0.000 NA
ATOM      4  N   UNL     1       7.897   7.166  17.037  0.00  0.00    +0.000 NA
ATOM      5  C   UNL     1       7.117   6.101  17.129  0.00  0.00    +0.000 A 
ENDROOT
BRANCH   1  10
ATOM      6  C   UNL     1       3.724   3.989  19.376  0.00  0.00    +0.000 A 
ATOM      7  C   UNL     1       2.457   4.432  18.974  0.00  0.00    +0.000 A 
ATOM      8  C   UNL     1       2.329   5.517  18.110  0.00  0.00    +0.000 A 
ATOM      9  C   UNL     1       3.467   6.177  17.654  0.00  0.00    +0.000 A 
ATOM     10  C   UNL     1       4.745   5.737  18.036  0.00  0.00    +0.000 A 
ATOM     11  C   UNL     1       4.874   4.634  18.890  0.00  0.00    +0.000 A 
BRANCH   6  13
ATOM     12  C   UNL     1       2.638   2.669  21.322  0.00  0.00    +0.000 C 
ATOM     13  C   UNL     1       3.782   2.867  20.363  0.00  0.00    +0.000 C 
ATOM     14  O   UNL     1       4.739   2.093  20.354  0.00  0.00    +0.000 OA
ENDBRANCH   6  13
ENDBRANCH   1  10
BRANCH   5  15
ATOM     15  C   UNL     1       7.517   4.768  16.604  0.00  0.00    +0.000 C 
BRANCH  15  16
ATOM     16  N   UNL     1       7.126   4.560  15.215  0.00  0.00    +0.000 N 
ATOM     17  N   UNL     1       7.828   5.201  14.258  0.00  0.00    +0.000 NA
ATOM     18  C   UNL     1       7.247   4.832  13.113  0.00  0.00    +0.000 A 
ATOM     19  C   UNL     1       7.756   5.349  11.818  0.00  0.00    +0.000 C 
ATOM     20  C   UNL     1       6.163   3.941  13.333  0.00  0.00    +0.000 A 
ATOM     21  C   UNL     1       5.296   3.296  12.316  0.00  0.00    +0.000 C 
ATOM     22  C   UNL     1       6.079   3.823  14.712  0.00  0.00    +0.000 A 
ATOM     23  C   UNL     1       5.094   3.086  15.548  0.00  0.00    +0.000 C 
ENDBRANCH  15  16
ENDBRANCH   5  15
TORSDOF 4
ENDMDL
MODEL 9
REMARK VINA RESULT:      -7.3      3.354      6.683
REMARK  Name = 
REMARK  8 active torsions:
REMARK  status: ('A' for Active; 'I' for Inactive)
REMARK    1  A    between atoms: C_1  and  C_2
REMARK    2  A    between atoms: C_2  and  C_4
REMARK    3  A    between atoms: C_8  and  N_9
REMARK    4  A    between atoms: C_13  and  C_14
REMARK    5  A    between atoms: C_14  and  N_15
REMARK    6  A    between atoms: C_17  and  C_18
REMARK    7  A    between atoms: C_19  and  C_20
REMARK    8  A    between atoms: C_21  and  C_22
REMARK                            x       y       z     vdW  Elec       q    Type
REMARK                         _______ _______ _______ _____ _____    ______ ____
ROOT
ATOM      1  N   UNL     1       3.041   3.786  18.947  0.00  0.00    +0.000 N 
ATOM      2  C   UNL     1       2.819   2.650  19.692  0.00  0.00    +0.000 A 
ATOM      3  N   UNL     1       3.165   1.579  19.025  0.00  0.00    +0.000 NA
ATOM      4  N   UNL     1       3.662   1.990  17.825  0.00  0.00    +0.000 NA
ATOM      5  C   UNL     1       3.636   3.312  17.785  0.00  0.00    +0.000 A 
ENDROOT
BRANCH   1  10
ATOM      6  C   UNL     1       2.145   7.410  18.833  0.00  0.00    +0.000 A 
ATOM      7  C   UNL     1       1.675   7.590  20.141  0.00  0.00    +0.000 A 
ATOM      8  C   UNL     1       1.691   6.534  21.049  0.00  0.00    +0.000 A 
ATOM      9  C   UNL     1       2.164   5.286  20.652  0.00  0.00    +0.000 A 
ATOM     10  C   UNL     1       2.653   5.092  19.349  0.00  0.00    +0.000 A 
ATOM     11  C   UNL     1       2.653   6.161  18.442  0.00  0.00    +0.000 A 
BRANCH   6  13
ATOM     12  C   UNL     1       0.966   9.608  18.133  0.00  0.00    +0.000 C 
ATOM     13  C   UNL     1       2.028   8.567  17.892  0.00  0.00    +0.000 C 
ATOM     14  O   UNL     1       2.823   8.681  16.961  0.00  0.00    +0.000 OA
ENDBRANCH   6  13
ENDBRANCH   1  10
BRANCH   5  15
ATOM     15  C   UNL     1       4.306   4.095  16.714  0.00  0.00    +0.000 C 
BRANCH  15  16
ATOM     16  N   UNL     1       5.371   4.955  17.216  0.00  0.00    +0.000 N 
ATOM     17  N   UNL     1       6.030   4.563  18.325  0.00  0.00    +0.000 NA
ATOM     18  C   UNL     1       6.923   5.532  18.545  0.00  0.00    +0.000 A 
ATOM     19  C   UNL     1       7.846   5.448  19.705  0.00  0.00    +0.000 C 
ATOM     20  C   UNL     1       6.841   6.558  17.567  0.00  0.00    +0.000 A 
ATOM     21  C   UNL     1       7.678   7.779  17.457  0.00  0.00    +0.000 C 
ATOM     22  C   UNL     1       5.791   6.178  16.745  0.00  0.00    +0.000 A 
ATOM     23  C   UNL     1       5.179   6.886  15.588  0.00  0.00    +0.000 C 
ENDBRANCH  15  16
ENDBRANCH   5  15
TORSDOF 4
ENDMDL
