MODEL 1
REMARK VINA RESULT:      -8.6      0.000      0.000
REMARK  Name = 
REMARK  7 active torsions:
REMARK  status: ('A' for Active; 'I' for Inactive)
REMARK    1  A    between atoms: C_1  and  O_2
REMARK    2  A    between atoms: O_2  and  C_3
REMARK    3  A    between atoms: C_6  and  C_7
REMARK    4  A    between atoms: C_7  and  N_8
REMARK    5  A    between atoms: C_15  and  S_16
REMARK    6  A    between atoms: S_16  and  N_19
REMARK    7  A    between atoms: C_23  and  C_24
REMARK                            x       y       z     vdW  Elec       q    Type
REMARK                         _______ _______ _______ _____ _____    ______ ____
ROOT
ATOM      1  N   UNL     1       3.155   3.792  18.790  0.00  0.00    +0.000 N 
ATOM      2  C   UNL     1       3.305   3.129  20.026  0.00  0.00    +0.000 C 
ATOM      3  O   UNL     1       4.046   2.219  20.326  0.00  0.00    +0.000 OA
ATOM      4  C   UNL     1       2.443   3.888  21.008  0.00  0.00    +0.000 C 
ATOM      5  O   UNL     1       2.124   3.521  22.126  0.00  0.00    +0.000 OA
ATOM      6  C   UNL     1       2.099   5.139  20.370  0.00  0.00    +0.000 A 
ATOM      7  C   UNL     1       1.504   6.215  21.018  0.00  0.00    +0.000 A 
ATOM      8  C   UNL     1       1.516   7.431  20.354  0.00  0.00    +0.000 A 
ATOM      9  C   UNL     1       2.128   7.503  19.071  0.00  0.00    +0.000 A 
ATOM     10  C   UNL     1       2.668   6.330  18.413  0.00  0.00    +0.000 A 
ATOM     11  C   UNL     1       2.634   5.109  19.070  0.00  0.00    +0.000 A 
ENDROOT
BRANCH   8  12
ATOM     12  S   UNL     1       0.969   8.865  21.309  0.00  0.00    +0.000 S 
ATOM     13  O   UNL     1      -0.322   8.510  21.863  0.00  0.00    +0.000 OA
ATOM     14  O   UNL     1       2.063   9.276  22.162  0.00  0.00    +0.000 OA
BRANCH  12  15
ATOM     15  N   UNL     1       0.695  10.114  20.156  0.00  0.00    +0.000 NA
ATOM     16  C   UNL     1       1.148  11.476  20.530  0.00  0.00    +0.000 C 
ATOM     17  C   UNL     1      -0.085  12.161  21.094  0.00  0.00    +0.000 C 
ATOM     18  C   UNL     1      -1.239  11.617  20.275  0.00  0.00    +0.000 C 
ATOM     19  C   UNL     1      -0.744  10.286  19.683  0.00  0.00    +0.000 C 
BRANCH  19  20
ATOM     20  C   UNL     1      -0.813  10.354  18.146  0.00  0.00    +0.000 C 
ATOM     21  F   UNL     1       0.133   9.534  17.602  0.00  0.00    +0.000 F 
ENDBRANCH  19  20
ENDBRANCH  12  15
ENDBRANCH   8  12
BRANCH   1  22
ATOM     22  C   UNL     1       3.861   3.195  17.664  0.00  0.00    +0.000 C 
BRANCH  22  26
ATOM     23  C   UNL     1       7.038   5.168  15.389  0.00  0.00    +0.000 A 
ATOM     24  C   UNL     1       6.016   4.444  14.783  0.00  0.00    +0.000 A 
ATOM     25  C   UNL     1       5.029   3.817  15.552  0.00  0.00    +0.000 A 
ATOM     26  C   UNL     1       5.041   3.858  16.963  0.00  0.00    +0.000 A 
ATOM     27  C   UNL     1       6.028   4.651  17.561  0.00  0.00    +0.000 A 
ATOM     28  C   UNL     1       7.027   5.292  16.778  0.00  0.00    +0.000 A 
BRANCH  23  30
ATOM     29  C   UNL     1       7.893   5.257  13.149  0.00  0.00    +0.000 C 
ATOM     30  O   UNL     1       7.964   5.656  14.510  0.00  0.00    +0.000 OA
ENDBRANCH  23  30
ENDBRANCH  22  26
ENDBRANCH   1  22
TORSDOF 6
ENDMDL
MODEL 2
REMARK VINA RESULT:      -7.8      3.232      9.081
REMARK  Name = 
REMARK  7 active torsions:
REMARK  status: ('A' for Active; 'I' for Inactive)
REMARK    1  A    between atoms: C_1  and  O_2
REMARK    2  A    between atoms: O_2  and  C_3
REMARK    3  A    between atoms: C_6  and  C_7
REMARK    4  A    between atoms: C_7  and  N_8
REMARK    5  A    between atoms: C_15  and  S_16
REMARK    6  A    between atoms: S_16  and  N_19
REMARK    7  A    between atoms: C_23  and  C_24
REMARK                            x       y       z     vdW  Elec       q    Type
REMARK                         _______ _______ _______ _____ _____    ______ ____
ROOT
ATOM      1  N   UNL     1       0.358  10.357  19.650  0.00  0.00    +0.000 N 
ATOM      2  C   UNL     1       0.020   9.854  20.923  0.00  0.00    +0.000 C 
ATOM      3  O   UNL     1      -0.946  10.094  21.614  0.00  0.00    +0.000 OA
ATOM      4  C   UNL     1       1.049   8.792  21.234  0.00  0.00    +0.000 C 
ATOM      5  O   UNL     1       1.244   8.267  22.316  0.00  0.00    +0.000 OA
ATOM      6  C   UNL     1       1.730   8.507  19.992  0.00  0.00    +0.000 A 
ATOM      7  C   UNL     1       2.594   7.435  19.796  0.00  0.00    +0.000 A 
ATOM      8  C   UNL     1       2.924   7.128  18.486  0.00  0.00    +0.000 A 
ATOM      9  C   UNL     1       2.369   7.914  17.438  0.00  0.00    +0.000 A 
ATOM     10  C   UNL     1       1.531   9.066  17.707  0.00  0.00    +0.000 A 
ATOM     11  C   UNL     1       1.220   9.387  19.020  0.00  0.00    +0.000 A 
ENDROOT
BRANCH   8  12
ATOM     12  S   UNL     1       3.838   5.588  18.235  0.00  0.00    +0.000 S 
ATOM     13  O   UNL     1       4.363   5.216  19.534  0.00  0.00    +0.000 OA
ATOM     14  O   UNL     1       2.991   4.685  17.484  0.00  0.00    +0.000 OA
BRANCH  12  15
ATOM     15  N   UNL     1       5.184   6.002  17.247  0.00  0.00    +0.000 NA
ATOM     16  C   UNL     1       5.269   5.334  15.924  0.00  0.00    +0.000 C 
ATOM     17  C   UNL     1       6.194   4.149  16.139  0.00  0.00    +0.000 C 
ATOM     18  C   UNL     1       7.216   4.632  17.147  0.00  0.00    +0.000 C 
ATOM     19  C   UNL     1       6.561   5.817  17.877  0.00  0.00    +0.000 C 
BRANCH  19  20
ATOM     20  C   UNL     1       7.425   7.076  17.686  0.00  0.00    +0.000 C 
ATOM     21  F   UNL     1       8.326   7.182  18.706  0.00  0.00    +0.000 F 
ENDBRANCH  19  20
ENDBRANCH  12  15
ENDBRANCH   8  12
BRANCH   1  22
ATOM     22  C   UNL     1      -0.474  11.449  19.162  0.00  0.00    +0.000 C 
BRANCH  22  26
ATOM     23  C   UNL     1      -4.611  11.221  17.747  0.00  0.00    +0.000 A 
ATOM     24  C   UNL     1      -4.226  12.016  18.822  0.00  0.00    +0.000 A 
ATOM     25  C   UNL     1      -2.893  12.045  19.249  0.00  0.00    +0.000 A 
ATOM     26  C   UNL     1      -1.894  11.256  18.640  0.00  0.00    +0.000 A 
ATOM     27  C   UNL     1      -2.275  10.518  17.513  0.00  0.00    +0.000 A 
ATOM     28  C   UNL     1      -3.628  10.493  17.076  0.00  0.00    +0.000 A 
BRANCH  23  30
ATOM     29  C   UNL     1      -6.854  11.096  18.589  0.00  0.00    +0.000 C 
ATOM     30  O   UNL     1      -5.955  11.242  17.499  0.00  0.00    +0.000 OA
ENDBRANCH  23  30
ENDBRANCH  22  26
ENDBRANCH   1  22
TORSDOF 6
ENDMDL
MODEL 3
REMARK VINA RESULT:      -7.6      3.656      9.705
REMARK  Name = 
REMARK  7 active torsions:
REMARK  status: ('A' for Active; 'I' for Inactive)
REMARK    1  A    between atoms: C_1  and  O_2
REMARK    2  A    between atoms: O_2  and  C_3
REMARK    3  A    between atoms: C_6  and  C_7
REMARK    4  A    between atoms: C_7  and  N_8
REMARK    5  A    between atoms: C_15  and  S_16
REMARK    6  A    between atoms: S_16  and  N_19
REMARK    7  A    between atoms: C_23  and  C_24
REMARK                            x       y       z     vdW  Elec       q    Type
REMARK                         _______ _______ _______ _____ _____    ______ ____
ROOT
ATOM      1  N   UNL     1       0.620  10.320  20.563  0.00  0.00    +0.000 N 
ATOM      2  C   UNL     1       1.197  11.130  19.564  0.00  0.00    +0.000 C 
ATOM      3  O   UNL     1       1.399  12.325  19.562  0.00  0.00    +0.000 OA
ATOM      4  C   UNL     1       1.684  10.181  18.493  0.00  0.00    +0.000 C 
ATOM      5  O   UNL     1       2.047  10.480  17.370  0.00  0.00    +0.000 OA
ATOM      6  C   UNL     1       1.660   8.858  19.078  0.00  0.00    +0.000 A 
ATOM      7  C   UNL     1       2.238   7.733  18.503  0.00  0.00    +0.000 A 
ATOM      8  C   UNL     1       2.391   6.622  19.316  0.00  0.00    +0.000 A 
ATOM      9  C   UNL     1       1.954   6.699  20.668  0.00  0.00    +0.000 A 
ATOM     10  C   UNL     1       1.291   7.876  21.192  0.00  0.00    +0.000 A 
ATOM     11  C   UNL     1       1.117   8.980  20.370  0.00  0.00    +0.000 A 
ENDROOT
BRANCH   8  12
ATOM     12  S   UNL     1       3.368   5.263  18.633  0.00  0.00    +0.000 S 
ATOM     13  O   UNL     1       2.725   4.892  17.388  0.00  0.00    +0.000 OA
ATOM     14  O   UNL     1       4.762   5.654  18.668  0.00  0.00    +0.000 OA
BRANCH  12  15
ATOM     15  N   UNL     1       3.157   3.946  19.720  0.00  0.00    +0.000 NA
ATOM     16  C   UNL     1       4.118   2.822  19.599  0.00  0.00    +0.000 C 
ATOM     17  C   UNL     1       3.418   1.798  18.722  0.00  0.00    +0.000 C 
ATOM     18  C   UNL     1       1.954   1.902  19.097  0.00  0.00    +0.000 C 
ATOM     19  C   UNL     1       1.778   3.295  19.726  0.00  0.00    +0.000 C 
BRANCH  19  20
ATOM     20  C   UNL     1       1.248   3.144  21.163  0.00  0.00    +0.000 C 
ATOM     21  F   UNL     1       2.140   3.678  22.047  0.00  0.00    +0.000 F 
ENDBRANCH  19  20
ENDBRANCH  12  15
ENDBRANCH   8  12
BRANCH   1  22
ATOM     22  C   UNL     1       0.023  11.033  21.685  0.00  0.00    +0.000 C 
BRANCH  22  26
ATOM     23  C   UNL     1      -3.952  12.854  21.909  0.00  0.00    +0.000 A 
ATOM     24  C   UNL     1      -3.281  12.373  23.028  0.00  0.00    +0.000 A 
ATOM     25  C   UNL     1      -2.017  11.784  22.906  0.00  0.00    +0.000 A 
ATOM     26  C   UNL     1      -1.384  11.621  21.655  0.00  0.00    +0.000 A 
ATOM     27  C   UNL     1      -2.032  12.176  20.545  0.00  0.00    +0.000 A 
ATOM     28  C   UNL     1      -3.314  12.778  20.671  0.00  0.00    +0.000 A 
BRANCH  23  30
ATOM     29  C   UNL     1      -5.789  13.040  23.440  0.00  0.00    +0.000 C 
ATOM     30  O   UNL     1      -5.204  13.331  22.179  0.00  0.00    +0.000 OA
ENDBRANCH  23  30
ENDBRANCH  22  26
ENDBRANCH   1  22
TORSDOF 6
ENDMDL
MODEL 4
REMARK VINA RESULT:      -7.5      3.179      9.099
REMARK  Name = 
REMARK  7 active torsions:
REMARK  status: ('A' for Active; 'I' for Inactive)
REMARK    1  A    between atoms: C_1  and  O_2
REMARK    2  A    between atoms: O_2  and  C_3
REMARK    3  A    between atoms: C_6  and  C_7
REMARK    4  A    between atoms: C_7  and  N_8
REMARK    5  A    between atoms: C_15  and  S_16
REMARK    6  A    between atoms: S_16  and  N_19
REMARK    7  A    between atoms: C_23  and  C_24
REMARK                            x       y       z     vdW  Elec       q    Type
REMARK                         _______ _______ _______ _____ _____    ______ ____
ROOT
ATOM      1  N   UNL     1       0.279  10.740  19.780  0.00  0.00    +0.000 N 
ATOM      2  C   UNL     1      -0.044  10.347  21.095  0.00  0.00    +0.000 C 
ATOM      3  O   UNL     1      -0.961  10.704  21.802  0.00  0.00    +0.000 OA
ATOM      4  C   UNL     1       0.915   9.231  21.439  0.00  0.00    +0.000 C 
ATOM      5  O   UNL     1       1.115   8.762  22.546  0.00  0.00    +0.000 OA
ATOM      6  C   UNL     1       1.522   8.815  20.194  0.00  0.00    +0.000 A 
ATOM      7  C   UNL     1       2.295   7.670  20.040  0.00  0.00    +0.000 A 
ATOM      8  C   UNL     1       2.548   7.255  18.743  0.00  0.00    +0.000 A 
ATOM      9  C   UNL     1       2.010   8.013  17.665  0.00  0.00    +0.000 A 
ATOM     10  C   UNL     1       1.272   9.241  17.887  0.00  0.00    +0.000 A 
ATOM     11  C   UNL     1       1.040   9.668  19.185  0.00  0.00    +0.000 A 
ENDROOT
BRANCH   8  12
ATOM     12  S   UNL     1       3.334   5.637  18.562  0.00  0.00    +0.000 S 
ATOM     13  O   UNL     1       3.519   5.129  19.907  0.00  0.00    +0.000 OA
ATOM     14  O   UNL     1       2.587   4.887  17.574  0.00  0.00    +0.000 OA
BRANCH  12  15
ATOM     15  N   UNL     1       4.900   5.949  17.922  0.00  0.00    +0.000 NA
ATOM     16  C   UNL     1       4.961   6.444  16.524  0.00  0.00    +0.000 C 
ATOM     17  C   UNL     1       5.208   5.207  15.678  0.00  0.00    +0.000 C 
ATOM     18  C   UNL     1       6.101   4.327  16.528  0.00  0.00    +0.000 C 
ATOM     19  C   UNL     1       5.891   4.791  17.980  0.00  0.00    +0.000 C 
BRANCH  19  20
ATOM     20  C   UNL     1       7.237   5.250  18.569  0.00  0.00    +0.000 C 
ATOM     21  F   UNL     1       7.055   5.714  19.840  0.00  0.00    +0.000 F 
ENDBRANCH  19  20
ENDBRANCH  12  15
ENDBRANCH   8  12
BRANCH   1  22
ATOM     22  C   UNL     1      -0.489  11.859  19.250  0.00  0.00    +0.000 C 
BRANCH  22  26
ATOM     23  C   UNL     1      -4.735  11.316  18.330  0.00  0.00    +0.000 A 
ATOM     24  C   UNL     1      -3.731  10.574  17.716  0.00  0.00    +0.000 A 
ATOM     25  C   UNL     1      -2.385  10.793  18.031  0.00  0.00    +0.000 A 
ATOM     26  C   UNL     1      -1.982  11.786  18.949  0.00  0.00    +0.000 A 
ATOM     27  C   UNL     1      -3.002  12.475  19.618  0.00  0.00    +0.000 A 
ATOM     28  C   UNL     1      -4.369  12.248  19.301  0.00  0.00    +0.000 A 
BRANCH  23  30
ATOM     29  C   UNL     1      -6.928  10.438  18.743  0.00  0.00    +0.000 C 
ATOM     30  O   UNL     1      -5.990  11.039  17.864  0.00  0.00    +0.000 OA
ENDBRANCH  23  30
ENDBRANCH  22  26
ENDBRANCH   1  22
TORSDOF 6
ENDMDL
MODEL 5
REMARK VINA RESULT:      -7.5      3.295      8.752
REMARK  Name = 
REMARK  7 active torsions:
REMARK  status: ('A' for Active; 'I' for Inactive)
REMARK    1  A    between atoms: C_1  and  O_2
REMARK    2  A    between atoms: O_2  and  C_3
REMARK    3  A    between atoms: C_6  and  C_7
REMARK    4  A    between atoms: C_7  and  N_8
REMARK    5  A    between atoms: C_15  and  S_16
REMARK    6  A    between atoms: S_16  and  N_19
REMARK    7  A    between atoms: C_23  and  C_24
REMARK                            x       y       z     vdW  Elec       q    Type
REMARK                         _______ _______ _______ _____ _____    ______ ____
ROOT
ATOM      1  N   UNL     1       0.351  10.911  19.426  0.00  0.00    +0.000 N 
ATOM      2  C   UNL     1      -0.364  10.720  20.627  0.00  0.00    +0.000 C 
ATOM      3  O   UNL     1      -1.389  11.245  21.004  0.00  0.00    +0.000 OA
ATOM      4  C   UNL     1       0.322   9.577  21.339  0.00  0.00    +0.000 C 
ATOM      5  O   UNL     1       0.153   9.239  22.497  0.00  0.00    +0.000 OA
ATOM      6  C   UNL     1       1.191   8.953  20.367  0.00  0.00    +0.000 A 
ATOM      7  C   UNL     1       1.832   7.734  20.553  0.00  0.00    +0.000 A 
ATOM      8  C   UNL     1       2.379   7.135  19.430  0.00  0.00    +0.000 A 
ATOM      9  C   UNL     1       2.252   7.792  18.174  0.00  0.00    +0.000 A 
ATOM     10  C   UNL     1       1.635   9.099  18.054  0.00  0.00    +0.000 A 
ATOM     11  C   UNL     1       1.110   9.708  19.183  0.00  0.00    +0.000 A 
ENDROOT
BRANCH   8  12
ATOM     12  S   UNL     1       2.981   5.443  19.643  0.00  0.00    +0.000 S 
ATOM     13  O   UNL     1       4.387   5.557  19.973  0.00  0.00    +0.000 OA
ATOM     14  O   UNL     1       2.060   4.748  20.517  0.00  0.00    +0.000 OA
BRANCH  12  15
ATOM     15  N   UNL     1       2.887   4.717  18.085  0.00  0.00    +0.000 NA
ATOM     16  C   UNL     1       1.640   3.977  17.771  0.00  0.00    +0.000 C 
ATOM     17  C   UNL     1       1.956   2.524  18.080  0.00  0.00    +0.000 C 
ATOM     18  C   UNL     1       3.412   2.353  17.699  0.00  0.00    +0.000 C 
ATOM     19  C   UNL     1       4.021   3.765  17.719  0.00  0.00    +0.000 C 
BRANCH  19  20
ATOM     20  C   UNL     1       4.588   4.097  16.327  0.00  0.00    +0.000 C 
ATOM     21  F   UNL     1       4.646   5.450  16.158  0.00  0.00    +0.000 F 
ENDBRANCH  19  20
ENDBRANCH  12  15
ENDBRANCH   8  12
BRANCH   1  22
ATOM     22  C   UNL     1      -0.102  12.015  18.591  0.00  0.00    +0.000 C 
BRANCH  22  26
ATOM     23  C   UNL     1       1.656  16.022  18.743  0.00  0.00    +0.000 A 
ATOM     24  C   UNL     1       0.317  15.777  19.027  0.00  0.00    +0.000 A 
ATOM     25  C   UNL     1      -0.205  14.480  18.951  0.00  0.00    +0.000 A 
ATOM     26  C   UNL     1       0.582  13.378  18.555  0.00  0.00    +0.000 A 
ATOM     27  C   UNL     1       1.945  13.621  18.345  0.00  0.00    +0.000 A 
ATOM     28  C   UNL     1       2.476  14.938  18.428  0.00  0.00    +0.000 A 
BRANCH  23  30
ATOM     29  C   UNL     1       0.971  18.319  18.662  0.00  0.00    +0.000 C 
ATOM     30  O   UNL     1       1.996  17.345  18.789  0.00  0.00    +0.000 OA
ENDBRANCH  23  30
ENDBRANCH  22  26
ENDBRANCH   1  22
TORSDOF 6
ENDMDL
MODEL 6
REMARK VINA RESULT:      -7.5      3.335      8.486
REMARK  Name = 
REMARK  7 active torsions:
REMARK  status: ('A' for Active; 'I' for Inactive)
REMARK    1  A    between atoms: C_1  and  O_2
REMARK    2  A    between atoms: O_2  and  C_3
REMARK    3  A    between atoms: C_6  and  C_7
REMARK    4  A    between atoms: C_7  and  N_8
REMARK    5  A    between atoms: C_15  and  S_16
REMARK    6  A    between atoms: S_16  and  N_19
REMARK    7  A    between atoms: C_23  and  C_24
REMARK                            x       y       z     vdW  Elec       q    Type
REMARK                         _______ _______ _______ _____ _____    ______ ____
ROOT
ATOM      1  N   UNL     1       0.577  11.034  19.381  0.00  0.00    +0.000 N 
ATOM      2  C   UNL     1      -0.175  10.894  20.566  0.00  0.00    +0.000 C 
ATOM      3  O   UNL     1      -1.164  11.493  20.926  0.00  0.00    +0.000 OA
ATOM      4  C   UNL     1       0.409   9.700  21.285  0.00  0.00    +0.000 C 
ATOM      5  O   UNL     1       0.192   9.371  22.438  0.00  0.00    +0.000 OA
ATOM      6  C   UNL     1       1.248   9.015  20.327  0.00  0.00    +0.000 A 
ATOM      7  C   UNL     1       1.791   7.750  20.519  0.00  0.00    +0.000 A 
ATOM      8  C   UNL     1       2.312   7.116  19.403  0.00  0.00    +0.000 A 
ATOM      9  C   UNL     1       2.260   7.786  18.149  0.00  0.00    +0.000 A 
ATOM     10  C   UNL     1       1.747   9.136  18.023  0.00  0.00    +0.000 A 
ATOM     11  C   UNL     1       1.247   9.779  19.145  0.00  0.00    +0.000 A 
ENDROOT
BRANCH   8  12
ATOM     12  S   UNL     1       2.781   5.383  19.618  0.00  0.00    +0.000 S 
ATOM     13  O   UNL     1       4.113   5.395  20.188  0.00  0.00    +0.000 OA
ATOM     14  O   UNL     1       1.689   4.704  20.283  0.00  0.00    +0.000 OA
BRANCH  12  15
ATOM     15  N   UNL     1       2.919   4.738  18.028  0.00  0.00    +0.000 NA
ATOM     16  C   UNL     1       1.812   3.866  17.566  0.00  0.00    +0.000 C 
ATOM     17  C   UNL     1       2.285   2.449  17.840  0.00  0.00    +0.000 C 
ATOM     18  C   UNL     1       3.779   2.483  17.590  0.00  0.00    +0.000 C 
ATOM     19  C   UNL     1       4.195   3.958  17.729  0.00  0.00    +0.000 C 
BRANCH  19  20
ATOM     20  C   UNL     1       4.834   4.435  16.412  0.00  0.00    +0.000 C 
ATOM     21  F   UNL     1       4.491   5.734  16.172  0.00  0.00    +0.000 F 
ENDBRANCH  19  20
ENDBRANCH  12  15
ENDBRANCH   8  12
BRANCH   1  22
ATOM     22  C   UNL     1       0.225  12.173  18.543  0.00  0.00    +0.000 C 
BRANCH  22  26
ATOM     23  C   UNL     1       2.514  15.901  18.374  0.00  0.00    +0.000 A 
ATOM     24  C   UNL     1       3.036  14.679  17.966  0.00  0.00    +0.000 A 
ATOM     25  C   UNL     1       2.272  13.509  18.053  0.00  0.00    +0.000 A 
ATOM     26  C   UNL     1       0.964  13.507  18.582  0.00  0.00    +0.000 A 
ATOM     27  C   UNL     1       0.419  14.752  18.918  0.00  0.00    +0.000 A 
ATOM     28  C   UNL     1       1.194  15.940  18.826  0.00  0.00    +0.000 A 
BRANCH  23  30
ATOM     29  C   UNL     1       4.746  16.712  18.708  0.00  0.00    +0.000 C 
ATOM     30  O   UNL     1       3.405  16.935  18.298  0.00  0.00    +0.000 OA
ENDBRANCH  23  30
ENDBRANCH  22  26
ENDBRANCH   1  22
TORSDOF 6
ENDMDL
MODEL 7
REMARK VINA RESULT:      -7.5      4.418      7.693
REMARK  Name = 
REMARK  7 active torsions:
REMARK  status: ('A' for Active; 'I' for Inactive)
REMARK    1  A    between atoms: C_1  and  O_2
REMARK    2  A    between atoms: O_2  and  C_3
REMARK    3  A    between atoms: C_6  and  C_7
REMARK    4  A    between atoms: C_7  and  N_8
REMARK    5  A    between atoms: C_15  and  S_16
REMARK    6  A    between atoms: S_16  and  N_19
REMARK    7  A    between atoms: C_23  and  C_24
REMARK                            x       y       z     vdW  Elec       q    Type
REMARK                         _______ _______ _______ _____ _____    ______ ____
ROOT
ATOM      1  N   UNL     1      -0.374  11.312  19.081  0.00  0.00    +0.000 N 
ATOM      2  C   UNL     1      -1.450  10.989  18.229  0.00  0.00    +0.000 C 
ATOM      3  O   UNL     1      -1.493  10.206  17.305  0.00  0.00    +0.000 OA
ATOM      4  C   UNL     1      -2.652  11.715  18.789  0.00  0.00    +0.000 C 
ATOM      5  O   UNL     1      -3.725  11.875  18.235  0.00  0.00    +0.000 OA
ATOM      6  C   UNL     1      -2.283  12.153  20.116  0.00  0.00    +0.000 A 
ATOM      7  C   UNL     1      -3.174  12.663  21.052  0.00  0.00    +0.000 A 
ATOM      8  C   UNL     1      -2.727  12.752  22.360  0.00  0.00    +0.000 A 
ATOM      9  C   UNL     1      -1.403  12.322  22.662  0.00  0.00    +0.000 A 
ATOM     10  C   UNL     1      -0.494  11.867  21.629  0.00  0.00    +0.000 A 
ATOM     11  C   UNL     1      -0.936  11.800  20.316  0.00  0.00    +0.000 A 
ENDROOT
BRANCH   8  12
ATOM     12  S   UNL     1      -3.971  13.175  23.602  0.00  0.00    +0.000 S 
ATOM     13  O   UNL     1      -4.265  11.947  24.311  0.00  0.00    +0.000 OA
ATOM     14  O   UNL     1      -3.516  14.356  24.305  0.00  0.00    +0.000 OA
BRANCH  12  15
ATOM     15  N   UNL     1      -5.387  13.596  22.716  0.00  0.00    +0.000 NA
ATOM     16  C   UNL     1      -5.960  14.939  22.978  0.00  0.00    +0.000 C 
ATOM     17  C   UNL     1      -7.054  14.708  24.005  0.00  0.00    +0.000 C 
ATOM     18  C   UNL     1      -7.643  13.358  23.648  0.00  0.00    +0.000 C 
ATOM     19  C   UNL     1      -6.561  12.630  22.831  0.00  0.00    +0.000 C 
BRANCH  19  20
ATOM     20  C   UNL     1      -7.120  12.279  21.441  0.00  0.00    +0.000 C 
ATOM     21  F   UNL     1      -6.255  11.449  20.787  0.00  0.00    +0.000 F 
ENDBRANCH  19  20
ENDBRANCH  12  15
ENDBRANCH   8  12
BRANCH   1  22
ATOM     22  C   UNL     1       0.920  10.762  18.698  0.00  0.00    +0.000 C 
BRANCH  22  26
ATOM     23  C   UNL     1       2.464   6.736  19.457  0.00  0.00    +0.000 A 
ATOM     24  C   UNL     1       2.634   7.391  18.241  0.00  0.00    +0.000 A 
ATOM     25  C   UNL     1       2.110   8.672  18.038  0.00  0.00    +0.000 A 
ATOM     26  C   UNL     1       1.363   9.342  19.032  0.00  0.00    +0.000 A 
ATOM     27  C   UNL     1       1.262   8.708  20.277  0.00  0.00    +0.000 A 
ATOM     28  C   UNL     1       1.800   7.408  20.483  0.00  0.00    +0.000 A 
BRANCH  23  30
ATOM     29  C   UNL     1       4.375   5.287  19.416  0.00  0.00    +0.000 C 
ATOM     30  O   UNL     1       2.968   5.466  19.474  0.00  0.00    +0.000 OA
ENDBRANCH  23  30
ENDBRANCH  22  26
ENDBRANCH   1  22
TORSDOF 6
ENDMDL
MODEL 8
REMARK VINA RESULT:      -7.5      3.490      8.480
REMARK  Name = 
REMARK  7 active torsions:
REMARK  status: ('A' for Active; 'I' for Inactive)
REMARK    1  A    between atoms: C_1  and  O_2
REMARK    2  A    between atoms: O_2  and  C_3
REMARK    3  A    between atoms: C_6  and  C_7
REMARK    4  A    between atoms: C_7  and  N_8
REMARK    5  A    between atoms: C_15  and  S_16
REMARK    6  A    between atoms: S_16  and  N_19
REMARK    7  A    between atoms: C_23  and  C_24
REMARK                            x       y       z     vdW  Elec       q    Type
REMARK                         _______ _______ _______ _____ _____    ______ ____
ROOT
ATOM      1  N   UNL     1       0.499  11.230  19.493  0.00  0.00    +0.000 N 
ATOM      2  C   UNL     1      -0.413  11.009  20.546  0.00  0.00    +0.000 C 
ATOM      3  O   UNL     1      -1.441  11.593  20.809  0.00  0.00    +0.000 OA
ATOM      4  C   UNL     1       0.060   9.755  21.244  0.00  0.00    +0.000 C 
ATOM      5  O   UNL     1      -0.319   9.341  22.325  0.00  0.00    +0.000 OA
ATOM      6  C   UNL     1       1.023   9.134  20.362  0.00  0.00    +0.000 A 
ATOM      7  C   UNL     1       1.530   7.851  20.529  0.00  0.00    +0.000 A 
ATOM      8  C   UNL     1       2.201   7.297  19.452  0.00  0.00    +0.000 A 
ATOM      9  C   UNL     1       2.329   8.063  18.258  0.00  0.00    +0.000 A 
ATOM     10  C   UNL     1       1.843   9.426  18.168  0.00  0.00    +0.000 A 
ATOM     11  C   UNL     1       1.191   9.987  19.256  0.00  0.00    +0.000 A 
ENDROOT
BRANCH   8  12
ATOM     12  S   UNL     1       2.630   5.546  19.593  0.00  0.00    +0.000 S 
ATOM     13  O   UNL     1       3.932   5.502  20.228  0.00  0.00    +0.000 OA
ATOM     14  O   UNL     1       1.494   4.854  20.165  0.00  0.00    +0.000 OA
BRANCH  12  15
ATOM     15  N   UNL     1       2.837   4.986  17.979  0.00  0.00    +0.000 NA
ATOM     16  C   UNL     1       1.849   3.994  17.487  0.00  0.00    +0.000 C 
ATOM     17  C   UNL     1       2.506   2.642  17.705  0.00  0.00    +0.000 C 
ATOM     18  C   UNL     1       3.981   2.882  17.451  0.00  0.00    +0.000 C 
ATOM     19  C   UNL     1       4.201   4.392  17.645  0.00  0.00    +0.000 C 
BRANCH  19  20
ATOM     20  C   UNL     1       4.761   4.998  16.346  0.00  0.00    +0.000 C 
ATOM     21  F   UNL     1       4.806   4.046  15.369  0.00  0.00    +0.000 F 
ENDBRANCH  19  20
ENDBRANCH  12  15
ENDBRANCH   8  12
BRANCH   1  22
ATOM     22  C   UNL     1       0.273  12.435  18.706  0.00  0.00    +0.000 C 
BRANCH  22  26
ATOM     23  C   UNL     1       3.103  15.769  18.504  0.00  0.00    +0.000 A 
ATOM     24  C   UNL     1       1.776  15.930  18.891  0.00  0.00    +0.000 A 
ATOM     25  C   UNL     1       0.903  14.837  18.926  0.00  0.00    +0.000 A 
ATOM     26  C   UNL     1       1.310  13.541  18.543  0.00  0.00    +0.000 A 
ATOM     27  C   UNL     1       2.664  13.374  18.229  0.00  0.00    +0.000 A 
ATOM     28  C   UNL     1       3.552  14.484  18.199  0.00  0.00    +0.000 A 
BRANCH  23  30
ATOM     29  C   UNL     1       5.177  16.931  18.823  0.00  0.00    +0.000 C 
ATOM     30  O   UNL     1       3.807  16.939  18.449  0.00  0.00    +0.000 OA
ENDBRANCH  23  30
ENDBRANCH  22  26
ENDBRANCH   1  22
TORSDOF 6
ENDMDL
MODEL 9
REMARK VINA RESULT:      -7.4      3.506      8.800
REMARK  Name = 
REMARK  7 active torsions:
REMARK  status: ('A' for Active; 'I' for Inactive)
REMARK    1  A    between atoms: C_1  and  O_2
REMARK    2  A    between atoms: O_2  and  C_3
REMARK    3  A    between atoms: C_6  and  C_7
REMARK    4  A    between atoms: C_7  and  N_8
REMARK    5  A    between atoms: C_15  and  S_16
REMARK    6  A    between atoms: S_16  and  N_19
REMARK    7  A    between atoms: C_23  and  C_24
REMARK                            x       y       z     vdW  Elec       q    Type
REMARK                         _______ _______ _______ _____ _____    ______ ____
ROOT
ATOM      1  N   UNL     1       0.435  10.530  19.589  0.00  0.00    +0.000 N 
ATOM      2  C   UNL     1       0.084  10.177  20.909  0.00  0.00    +0.000 C 
ATOM      3  O   UNL     1      -0.852  10.548  21.582  0.00  0.00    +0.000 OA
ATOM      4  C   UNL     1       1.045   9.082  21.312  0.00  0.00    +0.000 C 
ATOM      5  O   UNL     1       1.222   8.652  22.438  0.00  0.00    +0.000 OA
ATOM      6  C   UNL     1       1.686   8.632  20.097  0.00  0.00    +0.000 A 
ATOM      7  C   UNL     1       2.473   7.491  19.998  0.00  0.00    +0.000 A 
ATOM      8  C   UNL     1       2.761   7.036  18.722  0.00  0.00    +0.000 A 
ATOM      9  C   UNL     1       2.242   7.753  17.607  0.00  0.00    +0.000 A 
ATOM     10  C   UNL     1       1.487   8.980  17.771  0.00  0.00    +0.000 A 
ATOM     11  C   UNL     1       1.220   9.447  19.048  0.00  0.00    +0.000 A 
ENDROOT
BRANCH   8  12
ATOM     12  S   UNL     1       3.565   5.421  18.614  0.00  0.00    +0.000 S 
ATOM     13  O   UNL     1       3.851   5.208  17.209  0.00  0.00    +0.000 OA
ATOM     14  O   UNL     1       4.617   5.379  19.607  0.00  0.00    +0.000 OA
BRANCH  12  15
ATOM     15  N   UNL     1       2.364   4.272  19.062  0.00  0.00    +0.000 NA
ATOM     16  C   UNL     1       1.438   4.669  20.152  0.00  0.00    +0.000 C 
ATOM     17  C   UNL     1       2.033   4.066  21.413  0.00  0.00    +0.000 C 
ATOM     18  C   UNL     1       2.640   2.752  20.966  0.00  0.00    +0.000 C 
ATOM     19  C   UNL     1       2.871   2.888  19.452  0.00  0.00    +0.000 C 
BRANCH  19  20
ATOM     20  C   UNL     1       2.087   1.788  18.713  0.00  0.00    +0.000 C 
ATOM     21  F   UNL     1       2.102   2.027  17.370  0.00  0.00    +0.000 F 
ENDBRANCH  19  20
ENDBRANCH  12  15
ENDBRANCH   8  12
BRANCH   1  22
ATOM     22  C   UNL     1      -0.331  11.623  19.004  0.00  0.00    +0.000 C 
BRANCH  22  26
ATOM     23  C   UNL     1      -4.590  11.060  18.164  0.00  0.00    +0.000 A 
ATOM     24  C   UNL     1      -3.601  10.258  17.606  0.00  0.00    +0.000 A 
ATOM     25  C   UNL     1      -2.249  10.485  17.891  0.00  0.00    +0.000 A 
ATOM     26  C   UNL     1      -1.827  11.545  18.722  0.00  0.00    +0.000 A 
ATOM     27  C   UNL     1      -2.832  12.299  19.340  0.00  0.00    +0.000 A 
ATOM     28  C   UNL     1      -4.205  12.065  19.053  0.00  0.00    +0.000 A 
BRANCH  23  30
ATOM     29  C   UNL     1      -6.950  11.024  18.593  0.00  0.00    +0.000 C 
ATOM     30  O   UNL     1      -5.852  10.762  17.732  0.00  0.00    +0.000 OA
ENDBRANCH  23  30
ENDBRANCH  22  26
ENDBRANCH   1  22
TORSDOF 6
ENDMDL
