MODEL 1
REMARK VINA RESULT:     -10.4      0.000      0.000
REMARK  Name = 
REMARK  4 active torsions:
REMARK  status: ('A' for Active; 'I' for Inactive)
REMARK    1  A    between atoms: C_2  and  C_3
REMARK    2  A    between atoms: C_6  and  N_7
REMARK    3  A    between atoms: C_16  and  O_18
REMARK    4  A    between atoms: O_18  and  C_19
REMARK                            x       y       z     vdW  Elec       q    Type
REMARK                         _______ _______ _______ _____ _____    ______ ____
ROOT
ATOM      1  N   UNL     1       2.195   6.536  19.285  0.00  0.00    +0.000 N 
ATOM      2  C   UNL     1       3.015   6.022  18.290  0.00  0.00    +0.000 C 
ATOM      3  O   UNL     1       4.128   6.413  17.965  0.00  0.00    +0.000 OA
ATOM      4  C   UNL     1       2.325   4.761  17.843  0.00  0.00    +0.000 C 
ATOM      5  C   UNL     1       2.937   3.558  17.150  0.00  0.00    +0.000 C 
ATOM      6  C   UNL     1       2.406   2.396  18.029  0.00  0.00    +0.000 C 
ATOM      7  C   UNL     1       2.976   3.015  19.315  0.00  0.00    +0.000 C 
ATOM      8  C   UNL     1       4.507   3.106  18.835  0.00  0.00    +0.000 C 
ATOM      9  N   UNL     1       4.350   3.517  17.426  0.00  0.00    +0.000 N 
ATOM     10  C   UNL     1       5.208   4.141  16.545  0.00  0.00    +0.000 C 
ATOM     11  O   UNL     1       4.789   4.719  15.541  0.00  0.00    +0.000 OA
ATOM     12  N   UNL     1       2.265   4.322  19.211  0.00  0.00    +0.000 N 
ATOM     13  C   UNL     1       1.902   5.400  20.033  0.00  0.00    +0.000 C 
ATOM     14  O   UNL     1       1.452   5.256  21.155  0.00  0.00    +0.000 OA
ENDROOT
BRANCH   1  18
ATOM     15  C   UNL     1       1.302  10.711  18.889  0.00  0.00    +0.000 A 
ATOM     16  C   UNL     1       1.919   9.976  17.898  0.00  0.00    +0.000 A 
ATOM     17  C   UNL     1       2.204   8.646  18.127  0.00  0.00    +0.000 A 
ATOM     18  C   UNL     1       1.906   7.950  19.343  0.00  0.00    +0.000 A 
ATOM     19  C   UNL     1       1.263   8.713  20.383  0.00  0.00    +0.000 A 
ATOM     20  C   UNL     1       0.833   8.231  21.645  0.00  0.00    +0.000 A 
ATOM     21  C   UNL     1       0.187   9.040  22.587  0.00  0.00    +0.000 A 
ATOM     22  C   UNL     1      -0.068  10.376  22.313  0.00  0.00    +0.000 A 
ATOM     23  C   UNL     1       0.318  10.899  21.104  0.00  0.00    +0.000 A 
ATOM     24  C   UNL     1       0.962  10.106  20.124  0.00  0.00    +0.000 A 
BRANCH  15  26
ATOM     25  N   UNL     1       0.806  13.192  18.326  0.00  0.00    +0.000 NA
ATOM     26  C   UNL     1       1.026  12.085  18.578  0.00  0.00    +0.000 C 
ENDBRANCH  15  26
ENDBRANCH   1  18
BRANCH  10  27
ATOM     27  O   UNL     1       6.546   3.923  16.815  0.00  0.00    +0.000 OA
BRANCH  27  28
ATOM     28  C   UNL     1       7.140   5.111  17.273  0.00  0.00    +0.000 A 
ATOM     29  C   UNL     1       7.118   6.249  16.465  0.00  0.00    +0.000 A 
ATOM     30  C   UNL     1       7.584   7.463  16.987  0.00  0.00    +0.000 A 
ATOM     31  C   UNL     1       8.061   7.519  18.296  0.00  0.00    +0.000 A 
ATOM     32  F   UNL     1       8.471   8.689  18.803  0.00  0.00    +0.000 F 
ATOM     33  C   UNL     1       8.105   6.384  19.094  0.00  0.00    +0.000 A 
ATOM     34  C   UNL     1       7.634   5.179  18.585  0.00  0.00    +0.000 A 
ENDBRANCH  27  28
ENDBRANCH  10  27
TORSDOF 4
ENDMDL
MODEL 2
REMARK VINA RESULT:      -8.7      1.007      2.324
REMARK  Name = 
REMARK  4 active torsions:
REMARK  status: ('A' for Active; 'I' for Inactive)
REMARK    1  A    between atoms: C_2  and  C_3
REMARK    2  A    between atoms: C_6  and  N_7
REMARK    3  A    between atoms: C_16  and  O_18
REMARK    4  A    between atoms: O_18  and  C_19
REMARK                            x       y       z     vdW  Elec       q    Type
REMARK                         _______ _______ _______ _____ _____    ______ ____
ROOT
ATOM      1  N   UNL     1       1.979   5.819  19.817  0.00  0.00    +0.000 N 
ATOM      2  C   UNL     1       2.850   5.612  18.756  0.00  0.00    +0.000 C 
ATOM      3  O   UNL     1       3.900   6.196  18.528  0.00  0.00    +0.000 OA
ATOM      4  C   UNL     1       2.323   4.382  18.066  0.00  0.00    +0.000 C 
ATOM      5  C   UNL     1       3.077   3.421  17.166  0.00  0.00    +0.000 C 
ATOM      6  C   UNL     1       2.707   2.055  17.800  0.00  0.00    +0.000 C 
ATOM      7  C   UNL     1       3.205   2.484  19.189  0.00  0.00    +0.000 C 
ATOM      8  C   UNL     1       4.707   2.859  18.760  0.00  0.00    +0.000 C 
ATOM      9  N   UNL     1       4.487   3.509  17.453  0.00  0.00    +0.000 N 
ATOM     10  C   UNL     1       5.251   4.392  16.720  0.00  0.00    +0.000 C 
ATOM     11  O   UNL     1       4.753   5.094  15.838  0.00  0.00    +0.000 OA
ATOM     12  N   UNL     1       2.331   3.687  19.324  0.00  0.00    +0.000 N 
ATOM     13  C   UNL     1       1.840   4.533  20.330  0.00  0.00    +0.000 C 
ATOM     14  O   UNL     1       1.422   4.122  21.397  0.00  0.00    +0.000 OA
ENDROOT
BRANCH   1  18
ATOM     15  C   UNL     1       0.667   9.616  21.314  0.00  0.00    +0.000 A 
ATOM     16  C   UNL     1       0.551   8.444  22.031  0.00  0.00    +0.000 A 
ATOM     17  C   UNL     1       0.964   7.260  21.455  0.00  0.00    +0.000 A 
ATOM     18  C   UNL     1       1.513   7.148  20.138  0.00  0.00    +0.000 A 
ATOM     19  C   UNL     1       1.635   8.369  19.381  0.00  0.00    +0.000 A 
ATOM     20  C   UNL     1       2.188   8.511  18.084  0.00  0.00    +0.000 A 
ATOM     21  C   UNL     1       2.293   9.747  17.434  0.00  0.00    +0.000 A 
ATOM     22  C   UNL     1       1.854  10.909  18.053  0.00  0.00    +0.000 A 
ATOM     23  C   UNL     1       1.316  10.836  19.314  0.00  0.00    +0.000 A 
ATOM     24  C   UNL     1       1.206   9.605  20.004  0.00  0.00    +0.000 A 
BRANCH  15  26
ATOM     25  N   UNL     1      -0.127  11.772  22.514  0.00  0.00    +0.000 NA
ATOM     26  C   UNL     1       0.228  10.810  21.979  0.00  0.00    +0.000 C 
ENDBRANCH  15  26
ENDBRANCH   1  18
BRANCH  10  27
ATOM     27  O   UNL     1       6.608   4.299  16.965  0.00  0.00    +0.000 OA
BRANCH  27  28
ATOM     28  C   UNL     1       7.073   5.497  17.533  0.00  0.00    +0.000 A 
ATOM     29  C   UNL     1       7.676   5.476  18.792  0.00  0.00    +0.000 A 
ATOM     30  C   UNL     1       8.263   6.648  19.284  0.00  0.00    +0.000 A 
ATOM     31  C   UNL     1       8.236   7.814  18.519  0.00  0.00    +0.000 A 
ATOM     32  F   UNL     1       8.831   8.922  18.978  0.00  0.00    +0.000 F 
ATOM     33  C   UNL     1       7.616   7.843  17.278  0.00  0.00    +0.000 A 
ATOM     34  C   UNL     1       7.041   6.680  16.778  0.00  0.00    +0.000 A 
ENDBRANCH  27  28
ENDBRANCH  10  27
TORSDOF 4
ENDMDL
MODEL 3
REMARK VINA RESULT:      -8.5      2.130      2.608
REMARK  Name = 
REMARK  4 active torsions:
REMARK  status: ('A' for Active; 'I' for Inactive)
REMARK    1  A    between atoms: C_2  and  C_3
REMARK    2  A    between atoms: C_6  and  N_7
REMARK    3  A    between atoms: C_16  and  O_18
REMARK    4  A    between atoms: O_18  and  C_19
REMARK                            x       y       z     vdW  Elec       q    Type
REMARK                         _______ _______ _______ _____ _____    ______ ____
ROOT
ATOM      1  N   UNL     1       2.265   6.552  19.403  0.00  0.00    +0.000 N 
ATOM      2  C   UNL     1       2.876   6.001  18.284  0.00  0.00    +0.000 C 
ATOM      3  O   UNL     1       3.863   6.417  17.693  0.00  0.00    +0.000 OA
ATOM      4  C   UNL     1       2.183   4.680  18.085  0.00  0.00    +0.000 C 
ATOM      5  C   UNL     1       2.699   3.457  17.350  0.00  0.00    +0.000 C 
ATOM      6  C   UNL     1       2.447   2.342  18.398  0.00  0.00    +0.000 C 
ATOM      7  C   UNL     1       3.248   3.082  19.481  0.00  0.00    +0.000 C 
ATOM      8  C   UNL     1       4.627   3.206  18.665  0.00  0.00    +0.000 C 
ATOM      9  N   UNL     1       4.139   3.502  17.304  0.00  0.00    +0.000 N 
ATOM     10  C   UNL     1       4.742   4.095  16.216  0.00  0.00    +0.000 C 
ATOM     11  O   UNL     1       4.077   4.576  15.296  0.00  0.00    +0.000 OA
ATOM     12  N   UNL     1       2.453   4.344  19.456  0.00  0.00    +0.000 N 
ATOM     13  C   UNL     1       2.214   5.463  20.268  0.00  0.00    +0.000 C 
ATOM     14  O   UNL     1       2.033   5.385  21.469  0.00  0.00    +0.000 OA
ENDROOT
BRANCH   1  18
ATOM     15  C   UNL     1       1.182  10.673  18.926  0.00  0.00    +0.000 A 
ATOM     16  C   UNL     1       1.842   9.951  17.953  0.00  0.00    +0.000 A 
ATOM     17  C   UNL     1       2.186   8.639  18.208  0.00  0.00    +0.000 A 
ATOM     18  C   UNL     1       1.911   7.952  19.433  0.00  0.00    +0.000 A 
ATOM     19  C   UNL     1       1.223   8.701  20.455  0.00  0.00    +0.000 A 
ATOM     20  C   UNL     1       0.805   8.221  21.721  0.00  0.00    +0.000 A 
ATOM     21  C   UNL     1       0.113   9.016  22.644  0.00  0.00    +0.000 A 
ATOM     22  C   UNL     1      -0.201  10.333  22.344  0.00  0.00    +0.000 A 
ATOM     23  C   UNL     1       0.170  10.853  21.129  0.00  0.00    +0.000 A 
ATOM     24  C   UNL     1       0.859  10.074  20.169  0.00  0.00    +0.000 A 
BRANCH  15  26
ATOM     25  N   UNL     1       0.574  13.117  18.316  0.00  0.00    +0.000 NA
ATOM     26  C   UNL     1       0.845  12.027  18.589  0.00  0.00    +0.000 C 
ENDBRANCH  15  26
ENDBRANCH   1  18
BRANCH  10  27
ATOM     27  O   UNL     1       6.117   3.960  16.192  0.00  0.00    +0.000 OA
BRANCH  27  28
ATOM     28  C   UNL     1       6.592   4.151  14.884  0.00  0.00    +0.000 A 
ATOM     29  C   UNL     1       6.080   3.376  13.843  0.00  0.00    +0.000 A 
ATOM     30  C   UNL     1       6.455   3.672  12.526  0.00  0.00    +0.000 A 
ATOM     31  C   UNL     1       7.330   4.729  12.273  0.00  0.00    +0.000 A 
ATOM     32  F   UNL     1       7.657   5.031  11.010  0.00  0.00    +0.000 F 
ATOM     33  C   UNL     1       7.859   5.486  13.309  0.00  0.00    +0.000 A 
ATOM     34  C   UNL     1       7.482   5.204  14.617  0.00  0.00    +0.000 A 
ENDBRANCH  27  28
ENDBRANCH  10  27
TORSDOF 4
ENDMDL
MODEL 4
REMARK VINA RESULT:      -8.5      6.774     11.698
REMARK  Name = 
REMARK  4 active torsions:
REMARK  status: ('A' for Active; 'I' for Inactive)
REMARK    1  A    between atoms: C_2  and  C_3
REMARK    2  A    between atoms: C_6  and  N_7
REMARK    3  A    between atoms: C_16  and  O_18
REMARK    4  A    between atoms: O_18  and  C_19
REMARK                            x       y       z     vdW  Elec       q    Type
REMARK                         _______ _______ _______ _____ _____    ______ ____
ROOT
ATOM      1  N   UNL     1      -2.327  12.936  21.372  0.00  0.00    +0.000 N 
ATOM      2  C   UNL     1      -3.497  13.321  20.731  0.00  0.00    +0.000 C 
ATOM      3  O   UNL     1      -4.345  12.596  20.228  0.00  0.00    +0.000 OA
ATOM      4  C   UNL     1      -3.591  14.803  20.971  0.00  0.00    +0.000 C 
ATOM      5  C   UNL     1      -4.830  15.679  20.933  0.00  0.00    +0.000 C 
ATOM      6  C   UNL     1      -4.708  16.439  22.279  0.00  0.00    +0.000 C 
ATOM      7  C   UNL     1      -4.614  15.135  23.088  0.00  0.00    +0.000 C 
ATOM      8  C   UNL     1      -5.994  14.485  22.585  0.00  0.00    +0.000 C 
ATOM      9  N   UNL     1      -5.996  14.862  21.158  0.00  0.00    +0.000 N 
ATOM     10  C   UNL     1      -6.647  14.334  20.064  0.00  0.00    +0.000 C 
ATOM     11  O   UNL     1      -6.254  14.550  18.916  0.00  0.00    +0.000 OA
ATOM     12  N   UNL     1      -3.426  14.575  22.380  0.00  0.00    +0.000 N 
ATOM     13  C   UNL     1      -2.428  13.610  22.585  0.00  0.00    +0.000 C 
ATOM     14  O   UNL     1      -1.850  13.468  23.646  0.00  0.00    +0.000 OA
ENDROOT
BRANCH   1  18
ATOM     15  C   UNL     1       0.488  10.602  19.133  0.00  0.00    +0.000 A 
ATOM     16  C   UNL     1      -0.246  11.631  18.579  0.00  0.00    +0.000 A 
ATOM     17  C   UNL     1      -1.159  12.303  19.365  0.00  0.00    +0.000 A 
ATOM     18  C   UNL     1      -1.415  12.009  20.742  0.00  0.00    +0.000 A 
ATOM     19  C   UNL     1      -0.653  10.934  21.327  0.00  0.00    +0.000 A 
ATOM     20  C   UNL     1      -0.701  10.496  22.674  0.00  0.00    +0.000 A 
ATOM     21  C   UNL     1       0.101   9.457  23.164  0.00  0.00    +0.000 A 
ATOM     22  C   UNL     1       0.998   8.805  22.330  0.00  0.00    +0.000 A 
ATOM     23  C   UNL     1       1.095   9.190  21.016  0.00  0.00    +0.000 A 
ATOM     24  C   UNL     1       0.309  10.243  20.492  0.00  0.00    +0.000 A 
BRANCH  15  26
ATOM     25  N   UNL     1       2.182   9.434  17.557  0.00  0.00    +0.000 NA
ATOM     26  C   UNL     1       1.426   9.955  18.261  0.00  0.00    +0.000 C 
ENDBRANCH  15  26
ENDBRANCH   1  18
BRANCH  10  27
ATOM     27  O   UNL     1      -7.831  13.691  20.371  0.00  0.00    +0.000 OA
BRANCH  27  28
ATOM     28  C   UNL     1      -7.700  12.313  20.134  0.00  0.00    +0.000 A 
ATOM     29  C   UNL     1      -7.243  11.865  18.894  0.00  0.00    +0.000 A 
ATOM     30  C   UNL     1      -6.980  10.501  18.718  0.00  0.00    +0.000 A 
ATOM     31  C   UNL     1      -7.179   9.612  19.774  0.00  0.00    +0.000 A 
ATOM     32  F   UNL     1      -6.891   8.314  19.612  0.00  0.00    +0.000 F 
ATOM     33  C   UNL     1      -7.655  10.051  21.002  0.00  0.00    +0.000 A 
ATOM     34  C   UNL     1      -7.908  11.406  21.186  0.00  0.00    +0.000 A 
ENDBRANCH  27  28
ENDBRANCH  10  27
TORSDOF 4
ENDMDL
MODEL 5
REMARK VINA RESULT:      -8.3      4.245      8.661
REMARK  Name = 
REMARK  4 active torsions:
REMARK  status: ('A' for Active; 'I' for Inactive)
REMARK    1  A    between atoms: C_2  and  C_3
REMARK    2  A    between atoms: C_6  and  N_7
REMARK    3  A    between atoms: C_16  and  O_18
REMARK    4  A    between atoms: O_18  and  C_19
REMARK                            x       y       z     vdW  Elec       q    Type
REMARK                         _______ _______ _______ _____ _____    ______ ____
ROOT
ATOM      1  N   UNL     1       1.476   8.862  20.081  0.00  0.00    +0.000 N 
ATOM      2  C   UNL     1       0.707   9.818  19.431  0.00  0.00    +0.000 C 
ATOM      3  O   UNL     1      -0.187   9.628  18.617  0.00  0.00    +0.000 OA
ATOM      4  C   UNL     1       1.074  11.118  20.095  0.00  0.00    +0.000 C 
ATOM      5  C   UNL     1       0.264  12.399  20.152  0.00  0.00    +0.000 C 
ATOM      6  C   UNL     1       0.305  12.719  21.668  0.00  0.00    +0.000 C 
ATOM      7  C   UNL     1      -0.259  11.340  22.046  0.00  0.00    +0.000 C 
ATOM      8  C   UNL     1      -1.610  11.429  21.181  0.00  0.00    +0.000 C 
ATOM      9  N   UNL     1      -1.129  12.089  19.951  0.00  0.00    +0.000 N 
ATOM     10  C   UNL     1      -1.631  12.129  18.668  0.00  0.00    +0.000 C 
ATOM     11  O   UNL     1      -0.918  12.424  17.707  0.00  0.00    +0.000 OA
ATOM     12  N   UNL     1       0.798  10.528  21.376  0.00  0.00    +0.000 N 
ATOM     13  C   UNL     1       1.319   9.226  21.416  0.00  0.00    +0.000 C 
ATOM     14  O   UNL     1       1.532   8.627  22.454  0.00  0.00    +0.000 OA
ENDROOT
BRANCH   1  18
ATOM     15  C   UNL     1       3.784   6.171  17.670  0.00  0.00    +0.000 A 
ATOM     16  C   UNL     1       3.636   7.510  17.372  0.00  0.00    +0.000 A 
ATOM     17  C   UNL     1       2.842   8.294  18.183  0.00  0.00    +0.000 A 
ATOM     18  C   UNL     1       2.138   7.818  19.335  0.00  0.00    +0.000 A 
ATOM     19  C   UNL     1       2.286   6.419  19.651  0.00  0.00    +0.000 A 
ATOM     20  C   UNL     1       1.728   5.737  20.760  0.00  0.00    +0.000 A 
ATOM     21  C   UNL     1       1.950   4.376  21.005  0.00  0.00    +0.000 A 
ATOM     22  C   UNL     1       2.749   3.627  20.153  0.00  0.00    +0.000 A 
ATOM     23  C   UNL     1       3.325   4.234  19.066  0.00  0.00    +0.000 A 
ATOM     24  C   UNL     1       3.131   5.610  18.795  0.00  0.00    +0.000 A 
BRANCH  15  26
ATOM     25  N   UNL     1       5.317   4.811  16.083  0.00  0.00    +0.000 NA
ATOM     26  C   UNL     1       4.632   5.418  16.790  0.00  0.00    +0.000 C 
ENDBRANCH  15  26
ENDBRANCH   1  18
BRANCH  10  27
ATOM     27  O   UNL     1      -3.002  11.962  18.595  0.00  0.00    +0.000 OA
BRANCH  27  28
ATOM     28  C   UNL     1      -3.339  11.309  17.398  0.00  0.00    +0.000 A 
ATOM     29  C   UNL     1      -4.410  11.775  16.635  0.00  0.00    +0.000 A 
ATOM     30  C   UNL     1      -4.647  11.208  15.376  0.00  0.00    +0.000 A 
ATOM     31  C   UNL     1      -3.818  10.190  14.905  0.00  0.00    +0.000 A 
ATOM     32  F   UNL     1      -4.026   9.676  13.686  0.00  0.00    +0.000 F 
ATOM     33  C   UNL     1      -2.766   9.709  15.672  0.00  0.00    +0.000 A 
ATOM     34  C   UNL     1      -2.519  10.275  16.917  0.00  0.00    +0.000 A 
ENDBRANCH  27  28
ENDBRANCH  10  27
TORSDOF 4
ENDMDL
MODEL 6
REMARK VINA RESULT:      -8.3      4.260      9.573
REMARK  Name = 
REMARK  4 active torsions:
REMARK  status: ('A' for Active; 'I' for Inactive)
REMARK    1  A    between atoms: C_2  and  C_3
REMARK    2  A    between atoms: C_6  and  N_7
REMARK    3  A    between atoms: C_16  and  O_18
REMARK    4  A    between atoms: O_18  and  C_19
REMARK                            x       y       z     vdW  Elec       q    Type
REMARK                         _______ _______ _______ _____ _____    ______ ____
ROOT
ATOM      1  N   UNL     1       1.471   8.971  19.289  0.00  0.00    +0.000 N 
ATOM      2  C   UNL     1       0.712   9.605  20.262  0.00  0.00    +0.000 C 
ATOM      3  O   UNL     1       0.997   9.770  21.441  0.00  0.00    +0.000 OA
ATOM      4  C   UNL     1      -0.437  10.219  19.508  0.00  0.00    +0.000 C 
ATOM      5  C   UNL     1      -1.310  11.388  19.925  0.00  0.00    +0.000 C 
ATOM      6  C   UNL     1      -1.253  12.278  18.657  0.00  0.00    +0.000 C 
ATOM      7  C   UNL     1       0.283  12.320  18.669  0.00  0.00    +0.000 C 
ATOM      8  C   UNL     1       0.459  12.914  20.151  0.00  0.00    +0.000 C 
ATOM      9  N   UNL     1      -0.599  12.193  20.885  0.00  0.00    +0.000 N 
ATOM     10  C   UNL     1      -0.769  11.917  22.225  0.00  0.00    +0.000 C 
ATOM     11  O   UNL     1      -1.511  11.010  22.606  0.00  0.00    +0.000 OA
ATOM     12  N   UNL     1       0.499  10.844  18.614  0.00  0.00    +0.000 N 
ATOM     13  C   UNL     1       1.513   9.933  18.284  0.00  0.00    +0.000 C 
ATOM     14  O   UNL     1       2.231  10.063  17.310  0.00  0.00    +0.000 OA
ENDROOT
BRANCH   1  18
ATOM     15  C   UNL     1       2.590   4.940  20.231  0.00  0.00    +0.000 A 
ATOM     16  C   UNL     1       1.664   5.655  20.963  0.00  0.00    +0.000 A 
ATOM     17  C   UNL     1       1.394   6.962  20.611  0.00  0.00    +0.000 A 
ATOM     18  C   UNL     1       2.016   7.653  19.523  0.00  0.00    +0.000 A 
ATOM     19  C   UNL     1       2.985   6.913  18.755  0.00  0.00    +0.000 A 
ATOM     20  C   UNL     1       3.689   7.369  17.612  0.00  0.00    +0.000 A 
ATOM     21  C   UNL     1       4.596   6.567  16.908  0.00  0.00    +0.000 A 
ATOM     22  C   UNL     1       4.841   5.261  17.309  0.00  0.00    +0.000 A 
ATOM     23  C   UNL     1       4.182   4.759  18.403  0.00  0.00    +0.000 A 
ATOM     24  C   UNL     1       3.251   5.539  19.131  0.00  0.00    +0.000 A 
BRANCH  15  26
ATOM     25  N   UNL     1       2.994   2.493  20.982  0.00  0.00    +0.000 NA
ATOM     26  C   UNL     1       2.813   3.585  20.646  0.00  0.00    +0.000 C 
ENDBRANCH  15  26
ENDBRANCH   1  18
BRANCH  10  27
ATOM     27  O   UNL     1      -0.165  12.831  23.068  0.00  0.00    +0.000 OA
BRANCH  27  28
ATOM     28  C   UNL     1      -1.011  13.937  23.257  0.00  0.00    +0.000 A 
ATOM     29  C   UNL     1      -0.589  15.206  22.856  0.00  0.00    +0.000 A 
ATOM     30  C   UNL     1      -1.493  16.274  22.916  0.00  0.00    +0.000 A 
ATOM     31  C   UNL     1      -2.793  16.060  23.375  0.00  0.00    +0.000 A 
ATOM     32  F   UNL     1      -3.664  17.076  23.397  0.00  0.00    +0.000 F 
ATOM     33  C   UNL     1      -3.208  14.804  23.796  0.00  0.00    +0.000 A 
ATOM     34  C   UNL     1      -2.318  13.737  23.728  0.00  0.00    +0.000 A 
ENDBRANCH  27  28
ENDBRANCH  10  27
TORSDOF 4
ENDMDL
MODEL 7
REMARK VINA RESULT:      -8.1      5.183      9.770
REMARK  Name = 
REMARK  4 active torsions:
REMARK  status: ('A' for Active; 'I' for Inactive)
REMARK    1  A    between atoms: C_2  and  C_3
REMARK    2  A    between atoms: C_6  and  N_7
REMARK    3  A    between atoms: C_16  and  O_18
REMARK    4  A    between atoms: O_18  and  C_19
REMARK                            x       y       z     vdW  Elec       q    Type
REMARK                         _______ _______ _______ _____ _____    ______ ____
ROOT
ATOM      1  N   UNL     1       1.080   9.369  19.957  0.00  0.00    +0.000 N 
ATOM      2  C   UNL     1       0.040  10.029  19.316  0.00  0.00    +0.000 C 
ATOM      3  O   UNL     1      -0.908   9.530  18.725  0.00  0.00    +0.000 OA
ATOM      4  C   UNL     1       0.227  11.477  19.681  0.00  0.00    +0.000 C 
ATOM      5  C   UNL     1      -0.814  12.581  19.682  0.00  0.00    +0.000 C 
ATOM      6  C   UNL     1      -0.611  13.192  21.092  0.00  0.00    +0.000 C 
ATOM      7  C   UNL     1      -0.813  11.836  21.786  0.00  0.00    +0.000 C 
ATOM      8  C   UNL     1      -2.268  11.515  21.184  0.00  0.00    +0.000 C 
ATOM      9  N   UNL     1      -2.126  11.997  19.797  0.00  0.00    +0.000 N 
ATOM     10  C   UNL     1      -2.814  11.699  18.640  0.00  0.00    +0.000 C 
ATOM     11  O   UNL     1      -2.331  11.923  17.529  0.00  0.00    +0.000 OA
ATOM     12  N   UNL     1       0.276  11.108  21.070  0.00  0.00    +0.000 N 
ATOM     13  C   UNL     1       1.055   9.951  21.221  0.00  0.00    +0.000 C 
ATOM     14  O   UNL     1       1.542   9.613  22.284  0.00  0.00    +0.000 OA
ENDROOT
BRANCH   1  18
ATOM     15  C   UNL     1       3.609   6.712  17.736  0.00  0.00    +0.000 A 
ATOM     16  C   UNL     1       3.390   8.024  17.371  0.00  0.00    +0.000 A 
ATOM     17  C   UNL     1       2.529   8.796  18.123  0.00  0.00    +0.000 A 
ATOM     18  C   UNL     1       1.823   8.332  19.278  0.00  0.00    +0.000 A 
ATOM     19  C   UNL     1       2.044   6.961  19.665  0.00  0.00    +0.000 A 
ATOM     20  C   UNL     1       1.496   6.299  20.791  0.00  0.00    +0.000 A 
ATOM     21  C   UNL     1       1.791   4.967  21.107  0.00  0.00    +0.000 A 
ATOM     22  C   UNL     1       2.657   4.228  20.313  0.00  0.00    +0.000 A 
ATOM     23  C   UNL     1       3.226   4.818  19.212  0.00  0.00    +0.000 A 
ATOM     24  C   UNL     1       2.959   6.166  18.871  0.00  0.00    +0.000 A 
BRANCH  15  26
ATOM     25  N   UNL     1       5.263   5.375  16.256  0.00  0.00    +0.000 NA
ATOM     26  C   UNL     1       4.524   5.971  16.915  0.00  0.00    +0.000 C 
ENDBRANCH  15  26
ENDBRANCH   1  18
BRANCH  10  27
ATOM     27  O   UNL     1      -4.115  11.282  18.852  0.00  0.00    +0.000 OA
BRANCH  27  28
ATOM     28  C   UNL     1      -5.001  12.344  18.611  0.00  0.00    +0.000 A 
ATOM     29  C   UNL     1      -5.725  12.383  17.418  0.00  0.00    +0.000 A 
ATOM     30  C   UNL     1      -6.709  13.366  17.250  0.00  0.00    +0.000 A 
ATOM     31  C   UNL     1      -6.950  14.289  18.268  0.00  0.00    +0.000 A 
ATOM     32  F   UNL     1      -7.916  15.204  18.118  0.00  0.00    +0.000 F 
ATOM     33  C   UNL     1      -6.215  14.267  19.446  0.00  0.00    +0.000 A 
ATOM     34  C   UNL     1      -5.245  13.287  19.622  0.00  0.00    +0.000 A 
ENDBRANCH  27  28
ENDBRANCH  10  27
TORSDOF 4
ENDMDL
MODEL 8
REMARK VINA RESULT:      -8.1      7.026     12.163
REMARK  Name = 
REMARK  4 active torsions:
REMARK  status: ('A' for Active; 'I' for Inactive)
REMARK    1  A    between atoms: C_2  and  C_3
REMARK    2  A    between atoms: C_6  and  N_7
REMARK    3  A    between atoms: C_16  and  O_18
REMARK    4  A    between atoms: O_18  and  C_19
REMARK                            x       y       z     vdW  Elec       q    Type
REMARK                         _______ _______ _______ _____ _____    ______ ____
ROOT
ATOM      1  N   UNL     1      -2.115  13.487  21.543  0.00  0.00    +0.000 N 
ATOM      2  C   UNL     1      -3.301  13.951  20.989  0.00  0.00    +0.000 C 
ATOM      3  O   UNL     1      -4.251  13.286  20.598  0.00  0.00    +0.000 OA
ATOM      4  C   UNL     1      -3.244  15.444  21.165  0.00  0.00    +0.000 C 
ATOM      5  C   UNL     1      -4.400  16.426  21.194  0.00  0.00    +0.000 C 
ATOM      6  C   UNL     1      -4.090  17.225  22.486  0.00  0.00    +0.000 C 
ATOM      7  C   UNL     1      -4.036  15.952  23.345  0.00  0.00    +0.000 C 
ATOM      8  C   UNL     1      -5.508  15.409  22.996  0.00  0.00    +0.000 C 
ATOM      9  N   UNL     1      -5.607  15.728  21.559  0.00  0.00    +0.000 N 
ATOM     10  C   UNL     1      -6.399  15.218  20.552  0.00  0.00    +0.000 C 
ATOM     11  O   UNL     1      -6.094  15.351  19.365  0.00  0.00    +0.000 OA
ATOM     12  N   UNL     1      -2.970  15.258  22.564  0.00  0.00    +0.000 N 
ATOM     13  C   UNL     1      -2.045  14.216  22.726  0.00  0.00    +0.000 C 
ATOM     14  O   UNL     1      -1.387  14.065  23.739  0.00  0.00    +0.000 OA
ENDROOT
BRANCH   1  18
ATOM     15  C   UNL     1       0.330  10.838  19.221  0.00  0.00    +0.000 A 
ATOM     16  C   UNL     1      -0.245  11.980  18.703  0.00  0.00    +0.000 A 
ATOM     17  C   UNL     1      -1.051  12.753  19.513  0.00  0.00    +0.000 A 
ATOM     18  C   UNL     1      -1.348  12.457  20.882  0.00  0.00    +0.000 A 
ATOM     19  C   UNL     1      -0.752  11.264  21.430  0.00  0.00    +0.000 A 
ATOM     20  C   UNL     1      -0.863  10.797  22.763  0.00  0.00    +0.000 A 
ATOM     21  C   UNL     1      -0.223   9.637  23.217  0.00  0.00    +0.000 A 
ATOM     22  C   UNL     1       0.569   8.887  22.359  0.00  0.00    +0.000 A 
ATOM     23  C   UNL     1       0.723   9.294  21.058  0.00  0.00    +0.000 A 
ATOM     24  C   UNL     1       0.099  10.467  20.569  0.00  0.00    +0.000 A 
BRANCH  15  26
ATOM     25  N   UNL     1       1.834   9.483  17.603  0.00  0.00    +0.000 NA
ATOM     26  C   UNL     1       1.163  10.088  18.326  0.00  0.00    +0.000 C 
ENDBRANCH  15  26
ENDBRANCH   1  18
BRANCH  10  27
ATOM     27  O   UNL     1      -7.601  14.698  20.992  0.00  0.00    +0.000 OA
BRANCH  27  28
ATOM     28  C   UNL     1      -7.560  13.295  20.941  0.00  0.00    +0.000 A 
ATOM     29  C   UNL     1      -7.818  12.554  22.095  0.00  0.00    +0.000 A 
ATOM     30  C   UNL     1      -7.916  11.160  22.001  0.00  0.00    +0.000 A 
ATOM     31  C   UNL     1      -7.754  10.533  20.766  0.00  0.00    +0.000 A 
ATOM     32  F   UNL     1      -7.885   9.203  20.675  0.00  0.00    +0.000 F 
ATOM     33  C   UNL     1      -7.474  11.265  19.621  0.00  0.00    +0.000 A 
ATOM     34  C   UNL     1      -7.386  12.651  19.706  0.00  0.00    +0.000 A 
ENDBRANCH  27  28
ENDBRANCH  10  27
TORSDOF 4
ENDMDL
MODEL 9
REMARK VINA RESULT:      -7.8      7.544     12.457
REMARK  Name = 
REMARK  4 active torsions:
REMARK  status: ('A' for Active; 'I' for Inactive)
REMARK    1  A    between atoms: C_2  and  C_3
REMARK    2  A    between atoms: C_6  and  N_7
REMARK    3  A    between atoms: C_16  and  O_18
REMARK    4  A    between atoms: O_18  and  C_19
REMARK                            x       y       z     vdW  Elec       q    Type
REMARK                         _______ _______ _______ _____ _____    ______ ____
ROOT
ATOM      1  N   UNL     1      -3.004  13.725  22.787  0.00  0.00    +0.000 N 
ATOM      2  C   UNL     1      -3.917  14.089  21.806  0.00  0.00    +0.000 C 
ATOM      3  O   UNL     1      -4.538  13.350  21.054  0.00  0.00    +0.000 OA
ATOM      4  C   UNL     1      -4.126  15.565  22.010  0.00  0.00    +0.000 C 
ATOM      5  C   UNL     1      -5.311  16.409  21.581  0.00  0.00    +0.000 C 
ATOM      6  C   UNL     1      -5.649  17.154  22.898  0.00  0.00    +0.000 C 
ATOM      7  C   UNL     1      -5.783  15.842  23.687  0.00  0.00    +0.000 C 
ATOM      8  C   UNL     1      -6.909  15.163  22.765  0.00  0.00    +0.000 C 
ATOM      9  N   UNL     1      -6.463  15.560  21.415  0.00  0.00    +0.000 N 
ATOM     10  C   UNL     1      -6.714  15.030  20.167  0.00  0.00    +0.000 C 
ATOM     11  O   UNL     1      -5.979  15.272  19.207  0.00  0.00    +0.000 OA
ATOM     12  N   UNL     1      -4.415  15.322  23.397  0.00  0.00    +0.000 N 
ATOM     13  C   UNL     1      -3.508  14.380  23.906  0.00  0.00    +0.000 C 
ATOM     14  O   UNL     1      -3.297  14.239  25.097  0.00  0.00    +0.000 OA
ENDROOT
BRANCH   1  18
ATOM     15  C   UNL     1      -0.096  10.656  22.076  0.00  0.00    +0.000 A 
ATOM     16  C   UNL     1      -1.060  10.566  23.059  0.00  0.00    +0.000 A 
ATOM     17  C   UNL     1      -1.931  11.620  23.243  0.00  0.00    +0.000 A 
ATOM     18  C   UNL     1      -1.912  12.831  22.480  0.00  0.00    +0.000 A 
ATOM     19  C   UNL     1      -0.906  12.932  21.452  0.00  0.00    +0.000 A 
ATOM     20  C   UNL     1      -0.726  14.007  20.546  0.00  0.00    +0.000 A 
ATOM     21  C   UNL     1       0.265  14.007  19.556  0.00  0.00    +0.000 A 
ATOM     22  C   UNL     1       1.124  12.926  19.417  0.00  0.00    +0.000 A 
ATOM     23  C   UNL     1       0.993  11.851  20.261  0.00  0.00    +0.000 A 
ATOM     24  C   UNL     1      -0.005  11.814  21.264  0.00  0.00    +0.000 A 
BRANCH  15  26
ATOM     25  N   UNL     1       1.466   8.603  21.821  0.00  0.00    +0.000 NA
ATOM     26  C   UNL     1       0.769   9.519  21.933  0.00  0.00    +0.000 C 
ENDBRANCH  15  26
ENDBRANCH   1  18
BRANCH  10  27
ATOM     27  O   UNL     1      -7.915  14.353  20.075  0.00  0.00    +0.000 OA
BRANCH  27  28
ATOM     28  C   UNL     1      -7.677  12.995  19.807  0.00  0.00    +0.000 A 
ATOM     29  C   UNL     1      -7.296  12.600  18.524  0.00  0.00    +0.000 A 
ATOM     30  C   UNL     1      -6.923  11.268  18.304  0.00  0.00    +0.000 A 
ATOM     31  C   UNL     1      -6.938  10.358  19.361  0.00  0.00    +0.000 A 
ATOM     32  F   UNL     1      -6.546   9.095  19.155  0.00  0.00    +0.000 F 
ATOM     33  C   UNL     1      -7.339  10.743  20.633  0.00  0.00    +0.000 A 
ATOM     34  C   UNL     1      -7.700  12.066  20.860  0.00  0.00    +0.000 A 
ENDBRANCH  27  28
ENDBRANCH  10  27
TORSDOF 4
ENDMDL
