MODEL 1
REMARK VINA RESULT:      -7.8      0.000      0.000
REMARK  Name = 
REMARK  1 active torsions:
REMARK  status: ('A' for Active; 'I' for Inactive)
REMARK    1  A    between atoms: C_1  and  C_2
REMARK                            x       y       z     vdW  Elec       q    Type
REMARK                         _______ _______ _______ _____ _____    ______ ____
ROOT
ATOM      1  C   UNL     1       6.428   4.380  14.130  0.00  0.00    +0.000 C 
ATOM      2  C   UNL     1       5.630   4.784  15.335  0.00  0.00    +0.000 A 
ATOM      3  C   UNL     1       5.524   6.127  15.709  0.00  0.00    +0.000 A 
ATOM      4  C   UNL     1       4.799   6.515  16.840  0.00  0.00    +0.000 A 
ATOM      5  C   UNL     1       4.176   5.510  17.590  0.00  0.00    +0.000 A 
ATOM      6  N   UNL     1       3.418   5.598  18.733  0.00  0.00    +0.000 N 
ATOM      7  C   UNL     1       2.982   4.355  19.110  0.00  0.00    +0.000 A 
ATOM      8  C   UNL     1       3.457   3.430  18.194  0.00  0.00    +0.000 A 
ATOM      9  C   UNL     1       4.240   4.162  17.243  0.00  0.00    +0.000 A 
ATOM     10  C   UNL     1       4.981   3.798  16.097  0.00  0.00    +0.000 A 
ATOM     11  C   UNL     1       3.179   1.953  18.141  0.00  0.00    +0.000 C 
ATOM     12  N   UNL     1       2.012   1.524  18.930  0.00  0.00    +0.000 NA
ATOM     13  C   UNL     1       0.857   2.414  18.802  0.00  0.00    +0.000 C 
ATOM     14  C   UNL     1       0.787   3.461  19.928  0.00  0.00    +0.000 C 
ATOM     15  C   UNL     1       2.115   4.128  20.298  0.00  0.00    +0.000 C 
ATOM     16  H   UNL     1       3.202   6.462  19.208  0.00  0.00    +0.000 HD
ATOM     17  H   UNL     1       2.286   1.446  19.905  0.00  0.00    +0.000 HD
ENDROOT
TORSDOF 0
ENDMDL
MODEL 2
REMARK VINA RESULT:      -7.2      1.937      5.450
REMARK  Name = 
REMARK  1 active torsions:
REMARK  status: ('A' for Active; 'I' for Inactive)
REMARK    1  A    between atoms: C_1  and  C_2
REMARK                            x       y       z     vdW  Elec       q    Type
REMARK                         _______ _______ _______ _____ _____    ______ ____
ROOT
ATOM      1  C   UNL     1       0.706   4.022  20.442  0.00  0.00    +0.000 C 
ATOM      2  C   UNL     1       2.132   3.853  20.009  0.00  0.00    +0.000 A 
ATOM      3  C   UNL     1       2.924   2.825  20.528  0.00  0.00    +0.000 A 
ATOM      4  C   UNL     1       4.261   2.669  20.146  0.00  0.00    +0.000 A 
ATOM      5  C   UNL     1       4.783   3.580  19.220  0.00  0.00    +0.000 A 
ATOM      6  N   UNL     1       6.044   3.670  18.681  0.00  0.00    +0.000 N 
ATOM      7  C   UNL     1       6.105   4.705  17.786  0.00  0.00    +0.000 A 
ATOM      8  C   UNL     1       4.857   5.306  17.730  0.00  0.00    +0.000 A 
ATOM      9  C   UNL     1       4.025   4.607  18.663  0.00  0.00    +0.000 A 
ATOM     10  C   UNL     1       2.679   4.743  19.069  0.00  0.00    +0.000 A 
ATOM     11  C   UNL     1       4.411   6.432  16.838  0.00  0.00    +0.000 C 
ATOM     12  N   UNL     1       5.283   6.671  15.676  0.00  0.00    +0.000 NA
ATOM     13  C   UNL     1       5.727   5.444  15.013  0.00  0.00    +0.000 C 
ATOM     14  C   UNL     1       7.107   4.970  15.503  0.00  0.00    +0.000 C 
ATOM     15  C   UNL     1       7.334   5.039  17.016  0.00  0.00    +0.000 C 
ATOM     16  H   UNL     1       6.804   3.044  18.902  0.00  0.00    +0.000 HD
ATOM     17  H   UNL     1       6.086   7.215  15.975  0.00  0.00    +0.000 HD
ENDROOT
TORSDOF 0
ENDMDL
MODEL 3
REMARK VINA RESULT:      -7.1      1.561      2.687
REMARK  Name = 
REMARK  1 active torsions:
REMARK  status: ('A' for Active; 'I' for Inactive)
REMARK    1  A    between atoms: C_1  and  C_2
REMARK                            x       y       z     vdW  Elec       q    Type
REMARK                         _______ _______ _______ _____ _____    ______ ____
ROOT
ATOM      1  C   UNL     1       7.483   7.183  17.325  0.00  0.00    +0.000 C 
ATOM      2  C   UNL     1       6.417   6.132  17.227  0.00  0.00    +0.000 A 
ATOM      3  C   UNL     1       6.547   5.059  16.340  0.00  0.00    +0.000 A 
ATOM      4  C   UNL     1       5.551   4.083  16.226  0.00  0.00    +0.000 A 
ATOM      5  C   UNL     1       4.416   4.214  17.034  0.00  0.00    +0.000 A 
ATOM      6  N   UNL     1       3.297   3.421  17.124  0.00  0.00    +0.000 N 
ATOM      7  C   UNL     1       2.442   3.913  18.075  0.00  0.00    +0.000 A 
ATOM      8  C   UNL     1       3.012   5.050  18.626  0.00  0.00    +0.000 A 
ATOM      9  C   UNL     1       4.254   5.256  17.944  0.00  0.00    +0.000 A 
ATOM     10  C   UNL     1       5.274   6.230  18.037  0.00  0.00    +0.000 A 
ATOM     11  C   UNL     1       2.488   5.892  19.757  0.00  0.00    +0.000 C 
ATOM     12  N   UNL     1       1.457   5.238  20.579  0.00  0.00    +0.000 NA
ATOM     13  C   UNL     1       1.752   3.837  20.885  0.00  0.00    +0.000 C 
ATOM     14  C   UNL     1       1.084   2.860  19.901  0.00  0.00    +0.000 C 
ATOM     15  C   UNL     1       1.153   3.256  18.423  0.00  0.00    +0.000 C 
ATOM     16  H   UNL     1       3.145   2.586  16.579  0.00  0.00    +0.000 HD
ATOM     17  H   UNL     1       0.564   5.309  20.101  0.00  0.00    +0.000 HD
ENDROOT
TORSDOF 0
ENDMDL
MODEL 4
REMARK VINA RESULT:      -7.0      1.929      5.057
REMARK  Name = 
REMARK  1 active torsions:
REMARK  status: ('A' for Active; 'I' for Inactive)
REMARK    1  A    between atoms: C_1  and  C_2
REMARK                            x       y       z     vdW  Elec       q    Type
REMARK                         _______ _______ _______ _____ _____    ______ ____
ROOT
ATOM      1  C   UNL     1       1.161   2.895  21.215  0.00  0.00    +0.000 C 
ATOM      2  C   UNL     1       1.827   3.971  20.409  0.00  0.00    +0.000 A 
ATOM      3  C   UNL     1       1.632   5.322  20.713  0.00  0.00    +0.000 A 
ATOM      4  C   UNL     1       2.232   6.334  19.958  0.00  0.00    +0.000 A 
ATOM      5  C   UNL     1       3.040   5.951  18.881  0.00  0.00    +0.000 A 
ATOM      6  N   UNL     1       3.736   6.718  17.979  0.00  0.00    +0.000 N 
ATOM      7  C   UNL     1       4.423   5.918  17.104  0.00  0.00    +0.000 A 
ATOM      8  C   UNL     1       4.179   4.596  17.441  0.00  0.00    +0.000 A 
ATOM      9  C   UNL     1       3.277   4.617  18.554  0.00  0.00    +0.000 A 
ATOM     10  C   UNL     1       2.657   3.615  19.333  0.00  0.00    +0.000 A 
ATOM     11  C   UNL     1       4.770   3.359  16.823  0.00  0.00    +0.000 C 
ATOM     12  N   UNL     1       5.985   3.596  16.026  0.00  0.00    +0.000 NA
ATOM     13  C   UNL     1       6.923   4.532  16.649  0.00  0.00    +0.000 C 
ATOM     14  C   UNL     1       6.741   5.976  16.151  0.00  0.00    +0.000 C 
ATOM     15  C   UNL     1       5.292   6.458  16.024  0.00  0.00    +0.000 C 
ATOM     16  H   UNL     1       3.751   7.727  17.981  0.00  0.00    +0.000 HD
ATOM     17  H   UNL     1       5.714   3.936  15.108  0.00  0.00    +0.000 HD
ENDROOT
TORSDOF 0
ENDMDL
MODEL 5
REMARK VINA RESULT:      -7.0      1.967      2.802
REMARK  Name = 
REMARK  1 active torsions:
REMARK  status: ('A' for Active; 'I' for Inactive)
REMARK    1  A    between atoms: C_1  and  C_2
REMARK                            x       y       z     vdW  Elec       q    Type
REMARK                         _______ _______ _______ _____ _____    ______ ____
ROOT
ATOM      1  C   UNL     1       8.088   6.156  18.983  0.00  0.00    +0.000 C 
ATOM      2  C   UNL     1       6.894   5.462  18.399  0.00  0.00    +0.000 A 
ATOM      3  C   UNL     1       6.967   4.833  17.152  0.00  0.00    +0.000 A 
ATOM      4  C   UNL     1       5.856   4.199  16.588  0.00  0.00    +0.000 A 
ATOM      5  C   UNL     1       4.660   4.211  17.316  0.00  0.00    +0.000 A 
ATOM      6  N   UNL     1       3.430   3.682  17.009  0.00  0.00    +0.000 N 
ATOM      7  C   UNL     1       2.547   3.905  18.033  0.00  0.00    +0.000 A 
ATOM      8  C   UNL     1       3.212   4.590  19.038  0.00  0.00    +0.000 A 
ATOM      9  C   UNL     1       4.548   4.808  18.570  0.00  0.00    +0.000 A 
ATOM     10  C   UNL     1       5.686   5.444  19.115  0.00  0.00    +0.000 A 
ATOM     11  C   UNL     1       2.686   4.989  20.389  0.00  0.00    +0.000 C 
ATOM     12  N   UNL     1       1.469   4.273  20.807  0.00  0.00    +0.000 NA
ATOM     13  C   UNL     1       1.502   2.839  20.513  0.00  0.00    +0.000 C 
ATOM     14  C   UNL     1       0.822   2.490  19.177  0.00  0.00    +0.000 C 
ATOM     15  C   UNL     1       1.139   3.426  18.006  0.00  0.00    +0.000 C 
ATOM     16  H   UNL     1       3.221   3.183  16.157  0.00  0.00    +0.000 HD
ATOM     17  H   UNL     1       0.666   4.701  20.357  0.00  0.00    +0.000 HD
ENDROOT
TORSDOF 0
ENDMDL
MODEL 6
REMARK VINA RESULT:      -6.9      1.812      4.973
REMARK  Name = 
REMARK  1 active torsions:
REMARK  status: ('A' for Active; 'I' for Inactive)
REMARK    1  A    between atoms: C_1  and  C_2
REMARK                            x       y       z     vdW  Elec       q    Type
REMARK                         _______ _______ _______ _____ _____    ______ ____
ROOT
ATOM      1  C   UNL     1       0.566   2.044  18.941  0.00  0.00    +0.000 C 
ATOM      2  C   UNL     1       1.455   3.253  18.927  0.00  0.00    +0.000 A 
ATOM      3  C   UNL     1       1.246   4.308  19.820  0.00  0.00    +0.000 A 
ATOM      4  C   UNL     1       2.056   5.448  19.805  0.00  0.00    +0.000 A 
ATOM      5  C   UNL     1       3.090   5.499  18.862  0.00  0.00    +0.000 A 
ATOM      6  N   UNL     1       4.020   6.482  18.619  0.00  0.00    +0.000 N 
ATOM      7  C   UNL     1       4.868   6.095  17.615  0.00  0.00    +0.000 A 
ATOM      8  C   UNL     1       4.494   4.830  17.192  0.00  0.00    +0.000 A 
ATOM      9  C   UNL     1       3.345   4.463  17.967  0.00  0.00    +0.000 A 
ATOM     10  C   UNL     1       2.510   3.324  18.003  0.00  0.00    +0.000 A 
ATOM     11  C   UNL     1       5.168   3.959  16.168  0.00  0.00    +0.000 C 
ATOM     12  N   UNL     1       6.551   4.350  15.851  0.00  0.00    +0.000 NA
ATOM     13  C   UNL     1       7.343   4.715  17.027  0.00  0.00    +0.000 C 
ATOM     14  C   UNL     1       7.351   6.231  17.292  0.00  0.00    +0.000 C 
ATOM     15  C   UNL     1       6.000   6.938  17.143  0.00  0.00    +0.000 C 
ATOM     16  H   UNL     1       4.075   7.352  19.128  0.00  0.00    +0.000 HD
ATOM     17  H   UNL     1       6.530   5.123  15.193  0.00  0.00    +0.000 HD
ENDROOT
TORSDOF 0
ENDMDL
MODEL 7
REMARK VINA RESULT:      -6.9      1.896      5.496
REMARK  Name = 
REMARK  1 active torsions:
REMARK  status: ('A' for Active; 'I' for Inactive)
REMARK    1  A    between atoms: C_1  and  C_2
REMARK                            x       y       z     vdW  Elec       q    Type
REMARK                         _______ _______ _______ _____ _____    ______ ____
ROOT
ATOM      1  C   UNL     1       1.413   2.950  21.322  0.00  0.00    +0.000 C 
ATOM      2  C   UNL     1       2.216   2.981  20.054  0.00  0.00    +0.000 A 
ATOM      3  C   UNL     1       1.783   2.299  18.913  0.00  0.00    +0.000 A 
ATOM      4  C   UNL     1       2.532   2.306  17.732  0.00  0.00    +0.000 A 
ATOM      5  C   UNL     1       3.734   3.023  17.727  0.00  0.00    +0.000 A 
ATOM      6  N   UNL     1       4.660   3.193  16.726  0.00  0.00    +0.000 N 
ATOM      7  C   UNL     1       5.679   4.003  17.154  0.00  0.00    +0.000 A 
ATOM      8  C   UNL     1       5.416   4.378  18.462  0.00  0.00    +0.000 A 
ATOM      9  C   UNL     1       4.193   3.732  18.835  0.00  0.00    +0.000 A 
ATOM     10  C   UNL     1       3.419   3.706  20.016  0.00  0.00    +0.000 A 
ATOM     11  C   UNL     1       6.203   5.321  19.330  0.00  0.00    +0.000 C 
ATOM     12  N   UNL     1       7.136   6.191  18.596  0.00  0.00    +0.000 NA
ATOM     13  C   UNL     1       6.575   6.747  17.364  0.00  0.00    +0.000 C 
ATOM     14  C   UNL     1       6.930   5.914  16.120  0.00  0.00    +0.000 C 
ATOM     15  C   UNL     1       6.821   4.395  16.285  0.00  0.00    +0.000 C 
ATOM     16  H   UNL     1       4.581   2.793  15.803  0.00  0.00    +0.000 HD
ATOM     17  H   UNL     1       7.980   5.666  18.387  0.00  0.00    +0.000 HD
ENDROOT
TORSDOF 0
ENDMDL
MODEL 8
REMARK VINA RESULT:      -6.8      1.758      2.824
REMARK  Name = 
REMARK  1 active torsions:
REMARK  status: ('A' for Active; 'I' for Inactive)
REMARK    1  A    between atoms: C_1  and  C_2
REMARK                            x       y       z     vdW  Elec       q    Type
REMARK                         _______ _______ _______ _____ _____    ______ ____
ROOT
ATOM      1  C   UNL     1       7.435   8.001  17.476  0.00  0.00    +0.000 C 
ATOM      2  C   UNL     1       6.760   6.674  17.291  0.00  0.00    +0.000 A 
ATOM      3  C   UNL     1       7.391   5.638  16.595  0.00  0.00    +0.000 A 
ATOM      4  C   UNL     1       6.764   4.403  16.400  0.00  0.00    +0.000 A 
ATOM      5  C   UNL     1       5.479   4.235  16.928  0.00  0.00    +0.000 A 
ATOM      6  N   UNL     1       4.637   3.149  16.881  0.00  0.00    +0.000 N 
ATOM      7  C   UNL     1       3.479   3.417  17.562  0.00  0.00    +0.000 A 
ATOM      8  C   UNL     1       3.561   4.703  18.071  0.00  0.00    +0.000 A 
ATOM      9  C   UNL     1       4.822   5.233  17.644  0.00  0.00    +0.000 A 
ATOM     10  C   UNL     1       5.477   6.471  17.824  0.00  0.00    +0.000 A 
ATOM     11  C   UNL     1       2.570   5.415  18.951  0.00  0.00    +0.000 C 
ATOM     12  N   UNL     1       1.598   4.531  19.615  0.00  0.00    +0.000 NA
ATOM     13  C   UNL     1       2.190   3.304  20.151  0.00  0.00    +0.000 C 
ATOM     14  C   UNL     1       2.076   2.115  19.181  0.00  0.00    +0.000 C 
ATOM     15  C   UNL     1       2.380   2.424  17.712  0.00  0.00    +0.000 C 
ATOM     16  H   UNL     1       4.859   2.276  16.427  0.00  0.00    +0.000 HD
ATOM     17  H   UNL     1       0.861   4.301  18.955  0.00  0.00    +0.000 HD
ENDROOT
TORSDOF 0
ENDMDL
MODEL 9
REMARK VINA RESULT:      -6.7      1.553      5.414
REMARK  Name = 
REMARK  1 active torsions:
REMARK  status: ('A' for Active; 'I' for Inactive)
REMARK    1  A    between atoms: C_1  and  C_2
REMARK                            x       y       z     vdW  Elec       q    Type
REMARK                         _______ _______ _______ _____ _____    ______ ____
ROOT
ATOM      1  C   UNL     1       1.473   2.745  22.042  0.00  0.00    +0.000 C 
ATOM      2  C   UNL     1       1.852   2.940  20.604  0.00  0.00    +0.000 A 
ATOM      3  C   UNL     1       1.011   2.507  19.574  0.00  0.00    +0.000 A 
ATOM      4  C   UNL     1       1.362   2.666  18.230  0.00  0.00    +0.000 A 
ATOM      5  C   UNL     1       2.588   3.278  17.945  0.00  0.00    +0.000 A 
ATOM      6  N   UNL     1       3.182   3.552  16.736  0.00  0.00    +0.000 N 
ATOM      7  C   UNL     1       4.378   4.192  16.929  0.00  0.00    +0.000 A 
ATOM      8  C   UNL     1       4.574   4.348  18.293  0.00  0.00    +0.000 A 
ATOM      9  C   UNL     1       3.448   3.741  18.939  0.00  0.00    +0.000 A 
ATOM     10  C   UNL     1       3.070   3.565  20.288  0.00  0.00    +0.000 A 
ATOM     11  C   UNL     1       5.700   5.058  18.991  0.00  0.00    +0.000 C 
ATOM     12  N   UNL     1       6.472   5.971  18.131  0.00  0.00    +0.000 NA
ATOM     13  C   UNL     1       5.641   6.779  17.237  0.00  0.00    +0.000 C 
ATOM     14  C   UNL     1       5.493   6.155  15.838  0.00  0.00    +0.000 C 
ATOM     15  C   UNL     1       5.245   4.643  15.807  0.00  0.00    +0.000 C 
ATOM     16  H   UNL     1       2.778   3.329  15.839  0.00  0.00    +0.000 HD
ATOM     17  H   UNL     1       7.138   5.427  17.590  0.00  0.00    +0.000 HD
ENDROOT
TORSDOF 0
ENDMDL
