MODEL 1
REMARK VINA RESULT:      -8.2      0.000      0.000
REMARK  Name = 
REMARK  7 active torsions:
REMARK  status: ('A' for Active; 'I' for Inactive)
REMARK    1  A    between atoms: C_1  and  C_2
REMARK    2  A    between atoms: C_2  and  C_4
REMARK    3  A    between atoms: C_9  and  N_10
REMARK    4  A    between atoms: C_11  and  C_13
REMARK    5  A    between atoms: C_20  and  O_21
REMARK    6  A    between atoms: C_22  and  C_23
REMARK    7  A    between atoms: C_22  and  C_24
REMARK                            x       y       z     vdW  Elec       q    Type
REMARK                         _______ _______ _______ _____ _____    ______ ____
ROOT
ATOM      1  C   UNL     1       5.762   4.593  16.290  0.00  0.00    +0.000 A 
ATOM      2  C   UNL     1       4.730   3.672  16.257  0.00  0.00    +0.000 A 
ATOM      3  C   UNL     1       3.938   3.701  17.441  0.00  0.00    +0.000 A 
ATOM      4  C   UNL     1       4.371   4.641  18.330  0.00  0.00    +0.000 A 
ATOM      5  S   UNL     1       5.795   5.418  17.793  0.00  0.00    +0.000 S 
ATOM      6  C   UNL     1       3.727   5.014  19.605  0.00  0.00    +0.000 C 
ATOM      7  C   UNL     1       2.580   4.045  19.967  0.00  0.00    +0.000 C 
ATOM      8  C   UNL     1       2.177   2.963  18.896  0.00  0.00    +0.000 C 
ATOM      9  C   UNL     1       2.303   1.534  19.459  0.00  0.00    +0.000 C 
ATOM     10  C   UNL     1       0.697   3.186  18.523  0.00  0.00    +0.000 C 
ATOM     11  O   UNL     1       2.850   2.931  17.615  0.00  0.00    +0.000 OA
ENDROOT
BRANCH   6  12
ATOM     12  N   UNL     1       3.242   6.377  19.463  0.00  0.00    +0.000 N 
ATOM     13  C   UNL     1       2.113   6.807  20.117  0.00  0.00    +0.000 C 
ATOM     14  O   UNL     1       1.478   6.087  20.879  0.00  0.00    +0.000 OA
ATOM     15  H   UNL     1       3.722   7.000  18.824  0.00  0.00    +0.000 HD
BRANCH  13  16
ATOM     16  C   UNL     1       1.669   8.203  19.867  0.00  0.00    +0.000 A 
ATOM     17  C   UNL     1       1.786   8.710  18.565  0.00  0.00    +0.000 A 
ATOM     18  C   UNL     1       1.395  10.019  18.279  0.00  0.00    +0.000 A 
ATOM     19  C   UNL     1       0.883  10.832  19.289  0.00  0.00    +0.000 A 
ATOM     20  C   UNL     1       0.760  10.335  20.585  0.00  0.00    +0.000 A 
ATOM     21  C   UNL     1       1.152   9.028  20.866  0.00  0.00    +0.000 A 
ATOM     22  F   UNL     1       1.023   8.594  22.130  0.00  0.00    +0.000 F 
ENDBRANCH  13  16
ENDBRANCH   6  12
BRANCH   1  24
ATOM     23  C   UNL     1       6.603   4.296  13.921  0.00  0.00    +0.000 C 
ATOM     24  C   UNL     1       6.756   4.940  15.279  0.00  0.00    +0.000 C 
ATOM     25  O   UNL     1       7.686   5.728  15.467  0.00  0.00    +0.000 OA
ENDBRANCH   1  24
BRANCH   7  26
ATOM     26  O   UNL     1       2.836   3.429  21.250  0.00  0.00    +0.000 OA
ATOM     27  H   UNL     1       3.657   2.913  21.188  0.00  0.00    +0.000 HD
ENDBRANCH   7  26
TORSDOF 4
ENDMDL
MODEL 2
REMARK VINA RESULT:      -8.1      0.953      1.353
REMARK  Name = 
REMARK  7 active torsions:
REMARK  status: ('A' for Active; 'I' for Inactive)
REMARK    1  A    between atoms: C_1  and  C_2
REMARK    2  A    between atoms: C_2  and  C_4
REMARK    3  A    between atoms: C_9  and  N_10
REMARK    4  A    between atoms: C_11  and  C_13
REMARK    5  A    between atoms: C_20  and  O_21
REMARK    6  A    between atoms: C_22  and  C_23
REMARK    7  A    between atoms: C_22  and  C_24
REMARK                            x       y       z     vdW  Elec       q    Type
REMARK                         _______ _______ _______ _____ _____    ______ ____
ROOT
ATOM      1  C   UNL     1       5.761   4.687  16.402  0.00  0.00    +0.000 A 
ATOM      2  C   UNL     1       4.720   3.781  16.293  0.00  0.00    +0.000 A 
ATOM      3  C   UNL     1       3.929   3.718  17.476  0.00  0.00    +0.000 A 
ATOM      4  C   UNL     1       4.371   4.575  18.441  0.00  0.00    +0.000 A 
ATOM      5  S   UNL     1       5.802   5.382  17.969  0.00  0.00    +0.000 S 
ATOM      6  C   UNL     1       3.731   4.846  19.743  0.00  0.00    +0.000 C 
ATOM      7  C   UNL     1       2.575   3.860  20.024  0.00  0.00    +0.000 C 
ATOM      8  C   UNL     1       2.162   2.876  18.866  0.00  0.00    +0.000 C 
ATOM      9  C   UNL     1       2.275   1.404  19.307  0.00  0.00    +0.000 C 
ATOM     10  C   UNL     1       0.684   3.144  18.515  0.00  0.00    +0.000 C 
ATOM     11  O   UNL     1       2.834   2.946  17.587  0.00  0.00    +0.000 OA
ENDROOT
BRANCH   6  12
ATOM     12  N   UNL     1       3.259   6.220  19.717  0.00  0.00    +0.000 N 
ATOM     13  C   UNL     1       2.064   6.578  20.293  0.00  0.00    +0.000 C 
ATOM     14  O   UNL     1       1.353   5.777  20.888  0.00  0.00    +0.000 OA
ATOM     15  H   UNL     1       3.803   6.912  19.215  0.00  0.00    +0.000 HD
BRANCH  13  16
ATOM     16  C   UNL     1       1.644   7.999  20.169  0.00  0.00    +0.000 A 
ATOM     17  C   UNL     1       1.261   8.677  21.336  0.00  0.00    +0.000 A 
ATOM     18  C   UNL     1       0.846  10.007  21.275  0.00  0.00    +0.000 A 
ATOM     19  C   UNL     1       0.812  10.674  20.050  0.00  0.00    +0.000 A 
ATOM     20  C   UNL     1       1.196  10.009  18.887  0.00  0.00    +0.000 A 
ATOM     21  C   UNL     1       1.608   8.680  18.953  0.00  0.00    +0.000 A 
ATOM     22  F   UNL     1       1.962   8.076  17.806  0.00  0.00    +0.000 F 
ENDBRANCH  13  16
ENDBRANCH   6  12
BRANCH   1  24
ATOM     23  C   UNL     1       6.674   4.481  14.051  0.00  0.00    +0.000 C 
ATOM     24  C   UNL     1       6.757   5.108  15.422  0.00  0.00    +0.000 C 
ATOM     25  O   UNL     1       7.635   5.945  15.647  0.00  0.00    +0.000 OA
ENDBRANCH   1  24
BRANCH   7  26
ATOM     26  O   UNL     1       2.827   3.137  21.250  0.00  0.00    +0.000 OA
ATOM     27  H   UNL     1       2.826   3.768  21.990  0.00  0.00    +0.000 HD
ENDBRANCH   7  26
TORSDOF 4
ENDMDL
MODEL 3
REMARK VINA RESULT:      -8.1      2.086      4.640
REMARK  Name = 
REMARK  7 active torsions:
REMARK  status: ('A' for Active; 'I' for Inactive)
REMARK    1  A    between atoms: C_1  and  C_2
REMARK    2  A    between atoms: C_2  and  C_4
REMARK    3  A    between atoms: C_9  and  N_10
REMARK    4  A    between atoms: C_11  and  C_13
REMARK    5  A    between atoms: C_20  and  O_21
REMARK    6  A    between atoms: C_22  and  C_23
REMARK    7  A    between atoms: C_22  and  C_24
REMARK                            x       y       z     vdW  Elec       q    Type
REMARK                         _______ _______ _______ _____ _____    ______ ____
ROOT
ATOM      1  C   UNL     1       3.305   3.718  20.026  0.00  0.00    +0.000 A 
ATOM      2  C   UNL     1       4.661   3.790  19.758  0.00  0.00    +0.000 A 
ATOM      3  C   UNL     1       4.968   4.766  18.767  0.00  0.00    +0.000 A 
ATOM      4  C   UNL     1       3.855   5.416  18.319  0.00  0.00    +0.000 A 
ATOM      5  S   UNL     1       2.426   4.782  19.008  0.00  0.00    +0.000 S 
ATOM      6  C   UNL     1       3.814   6.552  17.376  0.00  0.00    +0.000 C 
ATOM      7  C   UNL     1       5.199   6.813  16.741  0.00  0.00    +0.000 C 
ATOM      8  C   UNL     1       6.419   5.983  17.293  0.00  0.00    +0.000 C 
ATOM      9  C   UNL     1       7.103   5.172  16.175  0.00  0.00    +0.000 C 
ATOM     10  C   UNL     1       7.460   6.977  17.849  0.00  0.00    +0.000 C 
ATOM     11  O   UNL     1       6.224   5.050  18.380  0.00  0.00    +0.000 OA
ENDROOT
BRANCH   6  12
ATOM     12  N   UNL     1       3.345   7.711  18.115  0.00  0.00    +0.000 N 
ATOM     13  C   UNL     1       2.053   8.163  17.994  0.00  0.00    +0.000 C 
ATOM     14  O   UNL     1       1.220   7.599  17.294  0.00  0.00    +0.000 OA
ATOM     15  H   UNL     1       4.006   8.224  18.688  0.00  0.00    +0.000 HD
BRANCH  13  16
ATOM     16  C   UNL     1       1.683   9.387  18.752  0.00  0.00    +0.000 A 
ATOM     17  C   UNL     1       1.930  10.632  18.154  0.00  0.00    +0.000 A 
ATOM     18  C   UNL     1       1.613  11.813  18.827  0.00  0.00    +0.000 A 
ATOM     19  C   UNL     1       1.045  11.762  20.100  0.00  0.00    +0.000 A 
ATOM     20  C   UNL     1       0.793  10.529  20.699  0.00  0.00    +0.000 A 
ATOM     21  C   UNL     1       1.113   9.353  20.024  0.00  0.00    +0.000 A 
ATOM     22  F   UNL     1       0.859   8.187  20.641  0.00  0.00    +0.000 F 
ENDBRANCH  13  16
ENDBRANCH   6  12
BRANCH   1  24
ATOM     23  C   UNL     1       1.066   2.912  20.889  0.00  0.00    +0.000 C 
ATOM     24  C   UNL     1       2.572   2.916  21.001  0.00  0.00    +0.000 C 
ATOM     25  O   UNL     1       3.110   2.243  21.883  0.00  0.00    +0.000 OA
ENDBRANCH   1  24
BRANCH   7  26
ATOM     26  O   UNL     1       5.112   6.708  15.302  0.00  0.00    +0.000 OA
ATOM     27  H   UNL     1       4.872   5.794  15.071  0.00  0.00    +0.000 HD
ENDBRANCH   7  26
TORSDOF 4
ENDMDL
MODEL 4
REMARK VINA RESULT:      -7.8      2.347      4.835
REMARK  Name = 
REMARK  7 active torsions:
REMARK  status: ('A' for Active; 'I' for Inactive)
REMARK    1  A    between atoms: C_1  and  C_2
REMARK    2  A    between atoms: C_2  and  C_4
REMARK    3  A    between atoms: C_9  and  N_10
REMARK    4  A    between atoms: C_11  and  C_13
REMARK    5  A    between atoms: C_20  and  O_21
REMARK    6  A    between atoms: C_22  and  C_23
REMARK    7  A    between atoms: C_22  and  C_24
REMARK                            x       y       z     vdW  Elec       q    Type
REMARK                         _______ _______ _______ _____ _____    ______ ____
ROOT
ATOM      1  C   UNL     1       3.217   3.778  19.917  0.00  0.00    +0.000 A 
ATOM      2  C   UNL     1       4.571   3.850  19.639  0.00  0.00    +0.000 A 
ATOM      3  C   UNL     1       4.878   4.865  18.689  0.00  0.00    +0.000 A 
ATOM      4  C   UNL     1       3.767   5.544  18.280  0.00  0.00    +0.000 A 
ATOM      5  S   UNL     1       2.339   4.893  18.955  0.00  0.00    +0.000 S 
ATOM      6  C   UNL     1       3.729   6.720  17.389  0.00  0.00    +0.000 C 
ATOM      7  C   UNL     1       5.109   6.996  16.752  0.00  0.00    +0.000 C 
ATOM      8  C   UNL     1       6.327   6.132  17.254  0.00  0.00    +0.000 C 
ATOM      9  C   UNL     1       6.992   5.364  16.096  0.00  0.00    +0.000 C 
ATOM     10  C   UNL     1       7.382   7.090  17.843  0.00  0.00    +0.000 C 
ATOM     11  O   UNL     1       6.133   5.153  18.302  0.00  0.00    +0.000 OA
ENDROOT
BRANCH   6  12
ATOM     12  N   UNL     1       3.278   7.851  18.182  0.00  0.00    +0.000 N 
ATOM     13  C   UNL     1       2.003   8.348  18.060  0.00  0.00    +0.000 C 
ATOM     14  O   UNL     1       1.169   7.850  17.312  0.00  0.00    +0.000 OA
ATOM     15  H   UNL     1       3.941   8.309  18.796  0.00  0.00    +0.000 HD
BRANCH  13  16
ATOM     16  C   UNL     1       1.653   9.539  18.877  0.00  0.00    +0.000 A 
ATOM     17  C   UNL     1       1.016   9.329  20.109  0.00  0.00    +0.000 A 
ATOM     18  C   UNL     1       0.654  10.412  20.911  0.00  0.00    +0.000 A 
ATOM     19  C   UNL     1       0.926  11.714  20.491  0.00  0.00    +0.000 A 
ATOM     20  C   UNL     1       1.563  11.931  19.270  0.00  0.00    +0.000 A 
ATOM     21  C   UNL     1       1.921  10.847  18.473  0.00  0.00    +0.000 A 
ATOM     22  F   UNL     1       2.525  11.103  17.301  0.00  0.00    +0.000 F 
ENDBRANCH  13  16
ENDBRANCH   6  12
BRANCH   1  24
ATOM     23  C   UNL     1       1.027   2.689  20.567  0.00  0.00    +0.000 C 
ATOM     24  C   UNL     1       2.486   2.941  20.863  0.00  0.00    +0.000 C 
ATOM     25  O   UNL     1       2.993   2.427  21.863  0.00  0.00    +0.000 OA
ENDBRANCH   1  24
BRANCH   7  26
ATOM     26  O   UNL     1       5.008   6.954  15.310  0.00  0.00    +0.000 OA
ATOM     27  H   UNL     1       5.901   7.036  14.934  0.00  0.00    +0.000 HD
ENDBRANCH   7  26
TORSDOF 4
ENDMDL
MODEL 5
REMARK VINA RESULT:      -7.8      0.990      1.058
REMARK  Name = 
REMARK  7 active torsions:
REMARK  status: ('A' for Active; 'I' for Inactive)
REMARK    1  A    between atoms: C_1  and  C_2
REMARK    2  A    between atoms: C_2  and  C_4
REMARK    3  A    between atoms: C_9  and  N_10
REMARK    4  A    between atoms: C_11  and  C_13
REMARK    5  A    between atoms: C_20  and  O_21
REMARK    6  A    between atoms: C_22  and  C_23
REMARK    7  A    between atoms: C_22  and  C_24
REMARK                            x       y       z     vdW  Elec       q    Type
REMARK                         _______ _______ _______ _____ _____    ______ ____
ROOT
ATOM      1  C   UNL     1       6.254   4.447  15.404  0.00  0.00    +0.000 A 
ATOM      2  C   UNL     1       5.339   3.412  15.498  0.00  0.00    +0.000 A 
ATOM      3  C   UNL     1       4.678   3.384  16.759  0.00  0.00    +0.000 A 
ATOM      4  C   UNL     1       5.088   4.392  17.581  0.00  0.00    +0.000 A 
ATOM      5  S   UNL     1       6.346   5.312  16.881  0.00  0.00    +0.000 S 
ATOM      6  C   UNL     1       4.542   4.726  18.911  0.00  0.00    +0.000 C 
ATOM      7  C   UNL     1       3.560   3.642  19.411  0.00  0.00    +0.000 C 
ATOM      8  C   UNL     1       3.178   2.490  18.407  0.00  0.00    +0.000 C 
ATOM      9  C   UNL     1       3.530   1.102  18.977  0.00  0.00    +0.000 C 
ATOM     10  C   UNL     1       1.651   2.530  18.191  0.00  0.00    +0.000 C 
ATOM     11  O   UNL     1       3.712   2.498  17.062  0.00  0.00    +0.000 OA
ENDROOT
BRANCH   6  12
ATOM     12  N   UNL     1       3.888   6.019  18.800  0.00  0.00    +0.000 N 
ATOM     13  C   UNL     1       2.798   6.339  19.572  0.00  0.00    +0.000 C 
ATOM     14  O   UNL     1       2.343   5.578  20.418  0.00  0.00    +0.000 OA
ATOM     15  H   UNL     1       4.215   6.671  18.096  0.00  0.00    +0.000 HD
BRANCH  13  16
ATOM     16  C   UNL     1       2.168   7.667  19.349  0.00  0.00    +0.000 A 
ATOM     17  C   UNL     1       2.296   8.253  18.081  0.00  0.00    +0.000 A 
ATOM     18  C   UNL     1       1.735   9.503  17.821  0.00  0.00    +0.000 A 
ATOM     19  C   UNL     1       1.038  10.179  18.822  0.00  0.00    +0.000 A 
ATOM     20  C   UNL     1       0.902   9.602  20.084  0.00  0.00    +0.000 A 
ATOM     21  C   UNL     1       1.466   8.354  20.339  0.00  0.00    +0.000 A 
ATOM     22  F   UNL     1       1.317   7.839  21.570  0.00  0.00    +0.000 F 
ENDBRANCH  13  16
ENDBRANCH   6  12
BRANCH   1  24
ATOM     23  C   UNL     1       6.740   4.327  12.924  0.00  0.00    +0.000 C 
ATOM     24  C   UNL     1       7.088   4.876  14.286  0.00  0.00    +0.000 C 
ATOM     25  O   UNL     1       8.033   5.661  14.393  0.00  0.00    +0.000 OA
ENDBRANCH   1  24
BRANCH   7  26
ATOM     26  O   UNL     1       4.021   3.097  20.668  0.00  0.00    +0.000 OA
ATOM     27  H   UNL     1       4.980   2.953  20.612  0.00  0.00    +0.000 HD
ENDBRANCH   7  26
TORSDOF 4
ENDMDL
MODEL 6
REMARK VINA RESULT:      -7.7      3.407      5.438
REMARK  Name = 
REMARK  7 active torsions:
REMARK  status: ('A' for Active; 'I' for Inactive)
REMARK    1  A    between atoms: C_1  and  C_2
REMARK    2  A    between atoms: C_2  and  C_4
REMARK    3  A    between atoms: C_9  and  N_10
REMARK    4  A    between atoms: C_11  and  C_13
REMARK    5  A    between atoms: C_20  and  O_21
REMARK    6  A    between atoms: C_22  and  C_23
REMARK    7  A    between atoms: C_22  and  C_24
REMARK                            x       y       z     vdW  Elec       q    Type
REMARK                         _______ _______ _______ _____ _____    ______ ____
ROOT
ATOM      1  C   UNL     1       6.293   4.188  13.628  0.00  0.00    +0.000 A 
ATOM      2  C   UNL     1       7.355   4.560  14.435  0.00  0.00    +0.000 A 
ATOM      3  C   UNL     1       6.940   5.335  15.555  0.00  0.00    +0.000 A 
ATOM      4  C   UNL     1       5.589   5.522  15.583  0.00  0.00    +0.000 A 
ATOM      5  S   UNL     1       4.826   4.858  14.207  0.00  0.00    +0.000 S 
ATOM      6  C   UNL     1       4.810   6.182  16.650  0.00  0.00    +0.000 C 
ATOM      7  C   UNL     1       5.730   6.871  17.682  0.00  0.00    +0.000 C 
ATOM      8  C   UNL     1       7.282   6.634  17.544  0.00  0.00    +0.000 C 
ATOM      9  C   UNL     1       8.044   7.962  17.376  0.00  0.00    +0.000 C 
ATOM     10  C   UNL     1       7.781   5.972  18.845  0.00  0.00    +0.000 C 
ATOM     11  O   UNL     1       7.789   5.767  16.504  0.00  0.00    +0.000 OA
ENDROOT
BRANCH   6  12
ATOM     12  N   UNL     1       3.983   5.164  17.276  0.00  0.00    +0.000 N 
ATOM     13  C   UNL     1       2.908   5.499  18.062  0.00  0.00    +0.000 C 
ATOM     14  O   UNL     1       2.563   6.661  18.247  0.00  0.00    +0.000 OA
ATOM     15  H   UNL     1       4.246   4.191  17.169  0.00  0.00    +0.000 HD
BRANCH  13  16
ATOM     16  C   UNL     1       2.155   4.387  18.700  0.00  0.00    +0.000 A 
ATOM     17  C   UNL     1       1.738   4.551  20.029  0.00  0.00    +0.000 A 
ATOM     18  C   UNL     1       1.039   3.533  20.680  0.00  0.00    +0.000 A 
ATOM     19  C   UNL     1       0.747   2.346  20.009  0.00  0.00    +0.000 A 
ATOM     20  C   UNL     1       1.153   2.178  18.686  0.00  0.00    +0.000 A 
ATOM     21  C   UNL     1       1.852   3.196  18.042  0.00  0.00    +0.000 A 
ATOM     22  F   UNL     1       2.230   2.987  16.770  0.00  0.00    +0.000 F 
ENDBRANCH  13  16
ENDBRANCH   6  12
BRANCH   1  24
ATOM     23  C   UNL     1       4.901   3.070  11.834  0.00  0.00    +0.000 C 
ATOM     24  C   UNL     1       6.259   3.349  12.433  0.00  0.00    +0.000 C 
ATOM     25  O   UNL     1       7.262   2.880  11.891  0.00  0.00    +0.000 OA
ENDBRANCH   1  24
BRANCH   7  26
ATOM     26  O   UNL     1       5.429   8.283  17.751  0.00  0.00    +0.000 OA
ATOM     27  H   UNL     1       5.642   8.689  16.893  0.00  0.00    +0.000 HD
ENDBRANCH   7  26
TORSDOF 4
ENDMDL
MODEL 7
REMARK VINA RESULT:      -7.7      3.102      5.164
REMARK  Name = 
REMARK  7 active torsions:
REMARK  status: ('A' for Active; 'I' for Inactive)
REMARK    1  A    between atoms: C_1  and  C_2
REMARK    2  A    between atoms: C_2  and  C_4
REMARK    3  A    between atoms: C_9  and  N_10
REMARK    4  A    between atoms: C_11  and  C_13
REMARK    5  A    between atoms: C_20  and  O_21
REMARK    6  A    between atoms: C_22  and  C_23
REMARK    7  A    between atoms: C_22  and  C_24
REMARK                            x       y       z     vdW  Elec       q    Type
REMARK                         _______ _______ _______ _____ _____    ______ ____
ROOT
ATOM      1  C   UNL     1       6.244   4.175  13.650  0.00  0.00    +0.000 A 
ATOM      2  C   UNL     1       7.314   4.533  14.453  0.00  0.00    +0.000 A 
ATOM      3  C   UNL     1       6.914   5.314  15.574  0.00  0.00    +0.000 A 
ATOM      4  C   UNL     1       5.566   5.518  15.609  0.00  0.00    +0.000 A 
ATOM      5  S   UNL     1       4.788   4.864  14.236  0.00  0.00    +0.000 S 
ATOM      6  C   UNL     1       4.801   6.188  16.679  0.00  0.00    +0.000 C 
ATOM      7  C   UNL     1       5.735   6.866  17.707  0.00  0.00    +0.000 C 
ATOM      8  C   UNL     1       7.282   6.609  17.562  0.00  0.00    +0.000 C 
ATOM      9  C   UNL     1       8.061   7.927  17.390  0.00  0.00    +0.000 C 
ATOM     10  C   UNL     1       7.779   5.941  18.861  0.00  0.00    +0.000 C 
ATOM     11  O   UNL     1       7.773   5.735  16.520  0.00  0.00    +0.000 OA
ENDROOT
BRANCH   6  12
ATOM     12  N   UNL     1       3.964   5.181  17.309  0.00  0.00    +0.000 N 
ATOM     13  C   UNL     1       2.904   5.530  18.110  0.00  0.00    +0.000 C 
ATOM     14  O   UNL     1       2.581   6.697  18.306  0.00  0.00    +0.000 OA
ATOM     15  H   UNL     1       4.208   4.205  17.194  0.00  0.00    +0.000 HD
BRANCH  13  16
ATOM     16  C   UNL     1       2.139   4.428  18.750  0.00  0.00    +0.000 A 
ATOM     17  C   UNL     1       1.785   3.325  17.960  0.00  0.00    +0.000 A 
ATOM     18  C   UNL     1       1.057   2.269  18.508  0.00  0.00    +0.000 A 
ATOM     19  C   UNL     1       0.676   2.303  19.849  0.00  0.00    +0.000 A 
ATOM     20  C   UNL     1       1.028   3.394  20.643  0.00  0.00    +0.000 A 
ATOM     21  C   UNL     1       1.754   4.447  20.091  0.00  0.00    +0.000 A 
ATOM     22  F   UNL     1       2.064   5.480  20.890  0.00  0.00    +0.000 F 
ENDBRANCH  13  16
ENDBRANCH   6  12
BRANCH   1  24
ATOM     23  C   UNL     1       4.832   3.101  11.846  0.00  0.00    +0.000 C 
ATOM     24  C   UNL     1       6.193   3.337  12.457  0.00  0.00    +0.000 C 
ATOM     25  O   UNL     1       7.185   2.835  11.923  0.00  0.00    +0.000 OA
ENDBRANCH   1  24
BRANCH   7  26
ATOM     26  O   UNL     1       5.452   8.282  17.777  0.00  0.00    +0.000 OA
ATOM     27  H   UNL     1       4.908   8.452  18.564  0.00  0.00    +0.000 HD
ENDBRANCH   7  26
TORSDOF 4
ENDMDL
MODEL 8
REMARK VINA RESULT:      -7.5      1.494      1.890
REMARK  Name = 
REMARK  7 active torsions:
REMARK  status: ('A' for Active; 'I' for Inactive)
REMARK    1  A    between atoms: C_1  and  C_2
REMARK    2  A    between atoms: C_2  and  C_4
REMARK    3  A    between atoms: C_9  and  N_10
REMARK    4  A    between atoms: C_11  and  C_13
REMARK    5  A    between atoms: C_20  and  O_21
REMARK    6  A    between atoms: C_22  and  C_23
REMARK    7  A    between atoms: C_22  and  C_24
REMARK                            x       y       z     vdW  Elec       q    Type
REMARK                         _______ _______ _______ _____ _____    ______ ____
ROOT
ATOM      1  C   UNL     1       6.036   5.360  17.313  0.00  0.00    +0.000 A 
ATOM      2  C   UNL     1       5.132   4.403  16.884  0.00  0.00    +0.000 A 
ATOM      3  C   UNL     1       4.199   4.044  17.897  0.00  0.00    +0.000 A 
ATOM      4  C   UNL     1       4.402   4.735  19.056  0.00  0.00    +0.000 A 
ATOM      5  S   UNL     1       5.779   5.740  18.965  0.00  0.00    +0.000 S 
ATOM      6  C   UNL     1       3.561   4.691  20.269  0.00  0.00    +0.000 C 
ATOM      7  C   UNL     1       2.500   3.571  20.186  0.00  0.00    +0.000 C 
ATOM      8  C   UNL     1       2.368   2.796  18.821  0.00  0.00    +0.000 C 
ATOM      9  C   UNL     1       2.589   1.283  19.006  0.00  0.00    +0.000 C 
ATOM     10  C   UNL     1       0.931   2.995  18.296  0.00  0.00    +0.000 C 
ATOM     11  O   UNL     1       3.196   3.170  17.696  0.00  0.00    +0.000 OA
ENDROOT
BRANCH   6  12
ATOM     12  N   UNL     1       2.941   5.997  20.414  0.00  0.00    +0.000 N 
ATOM     13  C   UNL     1       2.324   6.618  19.355  0.00  0.00    +0.000 C 
ATOM     14  O   UNL     1       2.228   6.097  18.250  0.00  0.00    +0.000 OA
ATOM     15  H   UNL     1       3.017   6.476  21.304  0.00  0.00    +0.000 HD
BRANCH  13  16
ATOM     16  C   UNL     1       1.763   7.975  19.591  0.00  0.00    +0.000 A 
ATOM     17  C   UNL     1       1.301   8.283  20.878  0.00  0.00    +0.000 A 
ATOM     18  C   UNL     1       0.754   9.538  21.150  0.00  0.00    +0.000 A 
ATOM     19  C   UNL     1       0.666  10.496  20.141  0.00  0.00    +0.000 A 
ATOM     20  C   UNL     1       1.127  10.199  18.860  0.00  0.00    +0.000 A 
ATOM     21  C   UNL     1       1.671   8.944  18.592  0.00  0.00    +0.000 A 
ATOM     22  F   UNL     1       2.096   8.700  17.342  0.00  0.00    +0.000 F 
ENDBRANCH  13  16
ENDBRANCH   6  12
BRANCH   1  24
ATOM     23  C   UNL     1       7.696   7.269  17.254  0.00  0.00    +0.000 C 
ATOM     24  C   UNL     1       7.101   6.049  16.592  0.00  0.00    +0.000 C 
ATOM     25  O   UNL     1       7.543   5.684  15.501  0.00  0.00    +0.000 OA
ENDBRANCH   1  24
BRANCH   7  26
ATOM     26  O   UNL     1       2.663   2.650  21.288  0.00  0.00    +0.000 OA
ATOM     27  H   UNL     1       2.257   1.800  21.045  0.00  0.00    +0.000 HD
ENDBRANCH   7  26
TORSDOF 4
ENDMDL
MODEL 9
REMARK VINA RESULT:      -7.4      1.177      1.345
REMARK  Name = 
REMARK  7 active torsions:
REMARK  status: ('A' for Active; 'I' for Inactive)
REMARK    1  A    between atoms: C_1  and  C_2
REMARK    2  A    between atoms: C_2  and  C_4
REMARK    3  A    between atoms: C_9  and  N_10
REMARK    4  A    between atoms: C_11  and  C_13
REMARK    5  A    between atoms: C_20  and  O_21
REMARK    6  A    between atoms: C_22  and  C_23
REMARK    7  A    between atoms: C_22  and  C_24
REMARK                            x       y       z     vdW  Elec       q    Type
REMARK                         _______ _______ _______ _____ _____    ______ ____
ROOT
ATOM      1  C   UNL     1       5.787   5.124  17.432  0.00  0.00    +0.000 A 
ATOM      2  C   UNL     1       4.967   4.020  17.269  0.00  0.00    +0.000 A 
ATOM      3  C   UNL     1       3.882   4.009  18.190  0.00  0.00    +0.000 A 
ATOM      4  C   UNL     1       3.891   5.097  19.014  0.00  0.00    +0.000 A 
ATOM      5  S   UNL     1       5.264   6.080  18.755  0.00  0.00    +0.000 S 
ATOM      6  C   UNL     1       2.863   5.460  20.010  0.00  0.00    +0.000 C 
ATOM      7  C   UNL     1       1.832   4.326  20.202  0.00  0.00    +0.000 C 
ATOM      8  C   UNL     1       1.926   3.087  19.233  0.00  0.00    +0.000 C 
ATOM      9  C   UNL     1       2.117   1.772  20.013  0.00  0.00    +0.000 C 
ATOM     10  C   UNL     1       0.594   2.982  18.462  0.00  0.00    +0.000 C 
ATOM     11  O   UNL     1       2.927   3.063  18.189  0.00  0.00    +0.000 OA
ENDROOT
BRANCH   6  12
ATOM     12  N   UNL     1       2.226   6.682  19.549  0.00  0.00    +0.000 N 
ATOM     13  C   UNL     1       1.754   7.621  20.434  0.00  0.00    +0.000 C 
ATOM     14  O   UNL     1       1.876   7.503  21.648  0.00  0.00    +0.000 OA
ATOM     15  H   UNL     1       2.081   6.810  18.555  0.00  0.00    +0.000 HD
BRANCH  13  16
ATOM     16  C   UNL     1       1.071   8.813  19.867  0.00  0.00    +0.000 A 
ATOM     17  C   UNL     1       1.549   9.332  18.654  0.00  0.00    +0.000 A 
ATOM     18  C   UNL     1       0.953  10.457  18.084  0.00  0.00    +0.000 A 
ATOM     19  C   UNL     1      -0.126  11.073  18.717  0.00  0.00    +0.000 A 
ATOM     20  C   UNL     1      -0.610  10.561  19.920  0.00  0.00    +0.000 A 
ATOM     21  C   UNL     1      -0.011   9.438  20.486  0.00  0.00    +0.000 A 
ATOM     22  F   UNL     1      -0.505   8.984  21.649  0.00  0.00    +0.000 F 
ENDBRANCH  13  16
ENDBRANCH   6  12
BRANCH   1  24
ATOM     23  C   UNL     1       7.532   6.909  17.018  0.00  0.00    +0.000 C 
ATOM     24  C   UNL     1       6.956   5.557  16.672  0.00  0.00    +0.000 C 
ATOM     25  O   UNL     1       7.494   4.883  15.791  0.00  0.00    +0.000 OA
ENDBRANCH   1  24
BRANCH   7  26
ATOM     26  O   UNL     1       1.813   3.900  21.583  0.00  0.00    +0.000 OA
ATOM     27  H   UNL     1       2.244   4.582  22.124  0.00  0.00    +0.000 HD
ENDBRANCH   7  26
TORSDOF 4
ENDMDL
