MODEL 1
REMARK VINA RESULT:      -9.1      0.000      0.000
REMARK  Name = 
REMARK  6 active torsions:
REMARK  status: ('A' for Active; 'I' for Inactive)
REMARK    1  A    between atoms: C_2  and  O_3
REMARK    2  A    between atoms: C_2  and  C_4
REMARK    3  A    between atoms: C_5  and  C_6
REMARK    4  A    between atoms: C_9  and  C_10
REMARK    5  A    between atoms: C_13  and  O_14
REMARK    6  A    between atoms: C_15  and  C_16
REMARK                            x       y       z     vdW  Elec       q    Type
REMARK                         _______ _______ _______ _____ _____    ______ ____
ROOT
ATOM      1  C   UNL     1       2.100   6.901  20.097  0.00  0.00    +0.000 A 
ATOM      2  C   UNL     1       1.574   5.684  20.567  0.00  0.00    +0.000 A 
ATOM      3  C   UNL     1       2.199   4.474  20.324  0.00  0.00    +0.000 A 
ATOM      4  C   UNL     1       3.316   4.441  19.505  0.00  0.00    +0.000 A 
ATOM      5  C   UNL     1       3.835   5.598  18.879  0.00  0.00    +0.000 A 
ATOM      6  C   UNL     1       3.223   6.827  19.218  0.00  0.00    +0.000 A 
ENDROOT
BRANCH   5   7
ATOM      7  C   UNL     1       4.946   5.437  17.837  0.00  0.00    +0.000 C 
ATOM      8  C   UNL     1       4.405   4.473  16.736  0.00  0.00    +0.000 C 
ATOM      9  C   UNL     1       5.414   4.640  15.613  0.00  0.00    +0.000 C 
ATOM     10  C   UNL     1       6.798   4.164  16.130  0.00  0.00    +0.000 C 
ATOM     11  C   UNL     1       7.259   4.986  17.365  0.00  0.00    +0.000 C 
ATOM     12  C   UNL     1       7.113   6.484  17.112  0.00  0.00    +0.000 C 
ATOM     13  C   UNL     1       5.579   6.608  16.932  0.00  0.00    +0.000 C 
ATOM     14  C   UNL     1       5.355   6.158  15.471  0.00  0.00    +0.000 C 
ATOM     15  C   UNL     1       6.229   4.838  18.476  0.00  0.00    +0.000 C 
ENDBRANCH   5   7
BRANCH   1  19
ATOM     16  C   UNL     1       0.259  10.645  21.408  0.00  0.00    +0.000 A 
ATOM     17  C   UNL     1       0.546   9.615  22.302  0.00  0.00    +0.000 A 
ATOM     18  C   UNL     1       1.152   8.420  21.865  0.00  0.00    +0.000 A 
ATOM     19  C   UNL     1       1.459   8.190  20.507  0.00  0.00    +0.000 A 
ATOM     20  C   UNL     1       1.132   9.242  19.612  0.00  0.00    +0.000 A 
ATOM     21 CL   UNL     1       1.306   9.149  17.884  0.00  0.00    +0.000 Cl
ATOM     22  C   UNL     1       0.567  10.447  20.061  0.00  0.00    +0.000 A 
BRANCH  16  24
ATOM     23  C   UNL     1      -1.121  12.096  22.904  0.00  0.00    +0.000 C 
ATOM     24  C   UNL     1      -0.415  11.901  21.779  0.00  0.00    +0.000 C 
BRANCH  23  26
ATOM     25  O   UNL     1      -2.948  13.577  23.073  0.00  0.00    +0.000 OA
ATOM     26  C   UNL     1      -1.767  13.368  23.302  0.00  0.00    +0.000 C 
BRANCH  26  27
ATOM     27  O   UNL     1      -0.966  14.273  23.892  0.00  0.00    +0.000 OA
ATOM     28  H   UNL     1      -1.115  14.405  24.843  0.00  0.00    +0.000 HD
ENDBRANCH  26  27
ENDBRANCH  23  26
ENDBRANCH  16  24
ENDBRANCH   1  19
BRANCH   4  29
ATOM     29  O   UNL     1       3.886   3.215  19.283  0.00  0.00    +0.000 OA
ATOM     30  H   UNL     1       3.640   2.894  18.405  0.00  0.00    +0.000 HD
ENDBRANCH   4  29
TORSDOF 6
ENDMDL
MODEL 2
REMARK VINA RESULT:      -9.0      3.030      9.367
REMARK  Name = 
REMARK  6 active torsions:
REMARK  status: ('A' for Active; 'I' for Inactive)
REMARK    1  A    between atoms: C_2  and  O_3
REMARK    2  A    between atoms: C_2  and  C_4
REMARK    3  A    between atoms: C_5  and  C_6
REMARK    4  A    between atoms: C_9  and  C_10
REMARK    5  A    between atoms: C_13  and  O_14
REMARK    6  A    between atoms: C_15  and  C_16
REMARK                            x       y       z     vdW  Elec       q    Type
REMARK                         _______ _______ _______ _____ _____    ______ ____
ROOT
ATOM      1  C   UNL     1       2.715   6.895  18.768  0.00  0.00    +0.000 A 
ATOM      2  C   UNL     1       2.469   6.269  20.004  0.00  0.00    +0.000 A 
ATOM      3  C   UNL     1       1.615   6.818  20.944  0.00  0.00    +0.000 A 
ATOM      4  C   UNL     1       1.067   8.069  20.714  0.00  0.00    +0.000 A 
ATOM      5  C   UNL     1       1.367   8.830  19.559  0.00  0.00    +0.000 A 
ATOM      6  C   UNL     1       2.175   8.203  18.582  0.00  0.00    +0.000 A 
ENDROOT
BRANCH   5   7
ATOM      7  C   UNL     1       0.875  10.278  19.484  0.00  0.00    +0.000 C 
ATOM      8  C   UNL     1      -0.610  10.233  19.003  0.00  0.00    +0.000 C 
ATOM      9  C   UNL     1      -1.098  11.644  19.279  0.00  0.00    +0.000 C 
ATOM     10  C   UNL     1      -0.268  12.624  18.409  0.00  0.00    +0.000 C 
ATOM     11  C   UNL     1       1.249  12.531  18.734  0.00  0.00    +0.000 C 
ATOM     12  C   UNL     1       1.491  12.595  20.239  0.00  0.00    +0.000 C 
ATOM     13  C   UNL     1       0.765  11.311  20.713  0.00  0.00    +0.000 C 
ATOM     14  C   UNL     1      -0.720  11.738  20.755  0.00  0.00    +0.000 C 
ATOM     15  C   UNL     1       1.727  11.107  18.484  0.00  0.00    +0.000 C 
ENDBRANCH   5   7
BRANCH   1  19
ATOM     16  C   UNL     1       5.199   4.927  15.754  0.00  0.00    +0.000 A 
ATOM     17  C   UNL     1       5.330   6.284  16.042  0.00  0.00    +0.000 A 
ATOM     18  C   UNL     1       4.530   6.899  17.026  0.00  0.00    +0.000 A 
ATOM     19  C   UNL     1       3.538   6.190  17.735  0.00  0.00    +0.000 A 
ATOM     20  C   UNL     1       3.405   4.816  17.405  0.00  0.00    +0.000 A 
ATOM     21 CL   UNL     1       2.181   3.766  18.056  0.00  0.00    +0.000 Cl
ATOM     22  C   UNL     1       4.234   4.200  16.453  0.00  0.00    +0.000 A 
BRANCH  16  24
ATOM     23  C   UNL     1       5.559   4.052  13.441  0.00  0.00    +0.000 C 
ATOM     24  C   UNL     1       5.963   4.223  14.709  0.00  0.00    +0.000 C 
BRANCH  23  26
ATOM     25  O   UNL     1       7.268   3.947  11.819  0.00  0.00    +0.000 OA
ATOM     26  C   UNL     1       6.340   3.381  12.376  0.00  0.00    +0.000 C 
BRANCH  26  27
ATOM     27  O   UNL     1       5.939   2.141  12.046  0.00  0.00    +0.000 OA
ATOM     28  H   UNL     1       6.611   1.446  12.145  0.00  0.00    +0.000 HD
ENDBRANCH  26  27
ENDBRANCH  23  26
ENDBRANCH  16  24
ENDBRANCH   1  19
BRANCH   4  29
ATOM     29  O   UNL     1       0.241   8.573  21.684  0.00  0.00    +0.000 OA
ATOM     30  H   UNL     1       0.091   7.904  22.365  0.00  0.00    +0.000 HD
ENDBRANCH   4  29
TORSDOF 6
ENDMDL
MODEL 3
REMARK VINA RESULT:      -9.0      2.396      3.652
REMARK  Name = 
REMARK  6 active torsions:
REMARK  status: ('A' for Active; 'I' for Inactive)
REMARK    1  A    between atoms: C_2  and  O_3
REMARK    2  A    between atoms: C_2  and  C_4
REMARK    3  A    between atoms: C_5  and  C_6
REMARK    4  A    between atoms: C_9  and  C_10
REMARK    5  A    between atoms: C_13  and  O_14
REMARK    6  A    between atoms: C_15  and  C_16
REMARK                            x       y       z     vdW  Elec       q    Type
REMARK                         _______ _______ _______ _____ _____    ______ ____
ROOT
ATOM      1  C   UNL     1       1.416   8.370  19.926  0.00  0.00    +0.000 A 
ATOM      2  C   UNL     1       2.145   8.862  18.829  0.00  0.00    +0.000 A 
ATOM      3  C   UNL     1       2.802   8.018  17.950  0.00  0.00    +0.000 A 
ATOM      4  C   UNL     1       2.836   6.659  18.213  0.00  0.00    +0.000 A 
ATOM      5  C   UNL     1       2.246   6.092  19.367  0.00  0.00    +0.000 A 
ATOM      6  C   UNL     1       1.511   6.971  20.196  0.00  0.00    +0.000 A 
ENDROOT
BRANCH   5   7
ATOM      7  C   UNL     1       2.503   4.614  19.676  0.00  0.00    +0.000 C 
ATOM      8  C   UNL     1       1.864   4.320  21.070  0.00  0.00    +0.000 C 
ATOM      9  C   UNL     1       1.872   2.802  21.132  0.00  0.00    +0.000 C 
ATOM     10  C   UNL     1       3.347   2.322  21.090  0.00  0.00    +0.000 C 
ATOM     11  C   UNL     1       4.061   2.788  19.791  0.00  0.00    +0.000 C 
ATOM     12  C   UNL     1       3.217   2.479  18.559  0.00  0.00    +0.000 C 
ATOM     13  C   UNL     1       1.968   3.357  18.825  0.00  0.00    +0.000 C 
ATOM     14  C   UNL     1       1.144   2.512  19.822  0.00  0.00    +0.000 C 
ATOM     15  C   UNL     1       4.026   4.309  19.720  0.00  0.00    +0.000 C 
ENDBRANCH   5   7
BRANCH   1  19
ATOM     16  C   UNL     1      -0.870  11.099  22.467  0.00  0.00    +0.000 A 
ATOM     17  C   UNL     1      -0.152  10.030  22.997  0.00  0.00    +0.000 A 
ATOM     18  C   UNL     1       0.590   9.168  22.166  0.00  0.00    +0.000 A 
ATOM     19  C   UNL     1       0.612   9.317  20.763  0.00  0.00    +0.000 A 
ATOM     20  C   UNL     1      -0.149  10.396  20.243  0.00  0.00    +0.000 A 
ATOM     21 CL   UNL     1      -0.372  10.712  18.548  0.00  0.00    +0.000 Cl
ATOM     22  C   UNL     1      -0.852  11.276  21.082  0.00  0.00    +0.000 A 
BRANCH  16  24
ATOM     23  C   UNL     1      -3.032  11.896  23.435  0.00  0.00    +0.000 C 
ATOM     24  C   UNL     1      -1.706  12.013  23.263  0.00  0.00    +0.000 C 
BRANCH  23  26
ATOM     25  O   UNL     1      -3.887  13.995  24.085  0.00  0.00    +0.000 OA
ATOM     26  C   UNL     1      -3.872  12.787  24.267  0.00  0.00    +0.000 C 
BRANCH  26  27
ATOM     27  O   UNL     1      -4.577  12.187  25.242  0.00  0.00    +0.000 OA
ATOM     28  H   UNL     1      -4.271  12.365  26.148  0.00  0.00    +0.000 HD
ENDBRANCH  26  27
ENDBRANCH  23  26
ENDBRANCH  16  24
ENDBRANCH   1  19
BRANCH   4  29
ATOM     29  O   UNL     1       3.514   5.871  17.320  0.00  0.00    +0.000 OA
ATOM     30  H   UNL     1       4.455   6.093  17.336  0.00  0.00    +0.000 HD
ENDBRANCH   4  29
TORSDOF 6
ENDMDL
MODEL 4
REMARK VINA RESULT:      -8.8      0.887      1.136
REMARK  Name = 
REMARK  6 active torsions:
REMARK  status: ('A' for Active; 'I' for Inactive)
REMARK    1  A    between atoms: C_2  and  O_3
REMARK    2  A    between atoms: C_2  and  C_4
REMARK    3  A    between atoms: C_5  and  C_6
REMARK    4  A    between atoms: C_9  and  C_10
REMARK    5  A    between atoms: C_13  and  O_14
REMARK    6  A    between atoms: C_15  and  C_16
REMARK                            x       y       z     vdW  Elec       q    Type
REMARK                         _______ _______ _______ _____ _____    ______ ____
ROOT
ATOM      1  C   UNL     1       2.042   7.037  20.138  0.00  0.00    +0.000 A 
ATOM      2  C   UNL     1       1.600   5.832  20.714  0.00  0.00    +0.000 A 
ATOM      3  C   UNL     1       2.298   4.647  20.559  0.00  0.00    +0.000 A 
ATOM      4  C   UNL     1       3.404   4.616  19.726  0.00  0.00    +0.000 A 
ATOM      5  C   UNL     1       3.840   5.749  18.998  0.00  0.00    +0.000 A 
ATOM      6  C   UNL     1       3.156   6.961  19.247  0.00  0.00    +0.000 A 
ENDROOT
BRANCH   5   7
ATOM      7  C   UNL     1       4.947   5.572  17.955  0.00  0.00    +0.000 C 
ATOM      8  C   UNL     1       4.417   4.557  16.893  0.00  0.00    +0.000 C 
ATOM      9  C   UNL     1       5.414   4.703  15.757  0.00  0.00    +0.000 C 
ATOM     10  C   UNL     1       6.811   4.275  16.279  0.00  0.00    +0.000 C 
ATOM     11  C   UNL     1       7.265   5.151  17.479  0.00  0.00    +0.000 C 
ATOM     12  C   UNL     1       7.086   6.635  17.173  0.00  0.00    +0.000 C 
ATOM     13  C   UNL     1       5.548   6.721  17.001  0.00  0.00    +0.000 C 
ATOM     14  C   UNL     1       5.322   6.214  15.559  0.00  0.00    +0.000 C 
ATOM     15  C   UNL     1       6.247   5.023  18.604  0.00  0.00    +0.000 C 
ENDBRANCH   5   7
BRANCH   1  19
ATOM     16  C   UNL     1      -0.029  10.747  21.174  0.00  0.00    +0.000 A 
ATOM     17  C   UNL     1       0.220   9.755  22.121  0.00  0.00    +0.000 A 
ATOM     18  C   UNL     1       0.899   8.571  21.773  0.00  0.00    +0.000 A 
ATOM     19  C   UNL     1       1.325   8.313  20.453  0.00  0.00    +0.000 A 
ATOM     20  C   UNL     1       1.037   9.325  19.501  0.00  0.00    +0.000 A 
ATOM     21 CL   UNL     1       1.357   9.189  17.797  0.00  0.00    +0.000 Cl
ATOM     22  C   UNL     1       0.396  10.521  19.864  0.00  0.00    +0.000 A 
BRANCH  16  24
ATOM     23  C   UNL     1      -1.798  12.452  20.717  0.00  0.00    +0.000 C 
ATOM     24  C   UNL     1      -0.773  11.987  21.449  0.00  0.00    +0.000 C 
BRANCH  23  26
ATOM     25  O   UNL     1      -2.278  14.408  21.942  0.00  0.00    +0.000 OA
ATOM     26  C   UNL     1      -2.577  13.676  21.011  0.00  0.00    +0.000 C 
BRANCH  26  27
ATOM     27  O   UNL     1      -3.637  13.902  20.216  0.00  0.00    +0.000 OA
ATOM     28  H   UNL     1      -3.514  13.672  19.280  0.00  0.00    +0.000 HD
ENDBRANCH  26  27
ENDBRANCH  23  26
ENDBRANCH  16  24
ENDBRANCH   1  19
BRANCH   4  29
ATOM     29  O   UNL     1       4.048   3.415  19.594  0.00  0.00    +0.000 OA
ATOM     30  H   UNL     1       4.624   3.436  18.818  0.00  0.00    +0.000 HD
ENDBRANCH   4  29
TORSDOF 6
ENDMDL
MODEL 5
REMARK VINA RESULT:      -8.7      0.480      1.220
REMARK  Name = 
REMARK  6 active torsions:
REMARK  status: ('A' for Active; 'I' for Inactive)
REMARK    1  A    between atoms: C_2  and  O_3
REMARK    2  A    between atoms: C_2  and  C_4
REMARK    3  A    between atoms: C_5  and  C_6
REMARK    4  A    between atoms: C_9  and  C_10
REMARK    5  A    between atoms: C_13  and  O_14
REMARK    6  A    between atoms: C_15  and  C_16
REMARK                            x       y       z     vdW  Elec       q    Type
REMARK                         _______ _______ _______ _____ _____    ______ ____
ROOT
ATOM      1  C   UNL     1       1.980   7.014  20.189  0.00  0.00    +0.000 A 
ATOM      2  C   UNL     1       1.594   5.818  20.820  0.00  0.00    +0.000 A 
ATOM      3  C   UNL     1       2.266   4.627  20.604  0.00  0.00    +0.000 A 
ATOM      4  C   UNL     1       3.279   4.582  19.661  0.00  0.00    +0.000 A 
ATOM      5  C   UNL     1       3.643   5.705  18.881  0.00  0.00    +0.000 A 
ATOM      6  C   UNL     1       2.995   6.924  19.188  0.00  0.00    +0.000 A 
ENDROOT
BRANCH   5   7
ATOM      7  C   UNL     1       4.634   5.512  17.729  0.00  0.00    +0.000 C 
ATOM      8  C   UNL     1       4.566   6.798  16.847  0.00  0.00    +0.000 C 
ATOM      9  C   UNL     1       5.789   6.662  15.956  0.00  0.00    +0.000 C 
ATOM     10  C   UNL     1       5.616   5.389  15.086  0.00  0.00    +0.000 C 
ATOM     11  C   UNL     1       5.474   4.114  15.964  0.00  0.00    +0.000 C 
ATOM     12  C   UNL     1       6.562   4.059  17.031  0.00  0.00    +0.000 C 
ATOM     13  C   UNL     1       6.226   5.321  17.865  0.00  0.00    +0.000 C 
ATOM     14  C   UNL     1       6.847   6.470  17.039  0.00  0.00    +0.000 C 
ATOM     15  C   UNL     1       4.264   4.268  16.875  0.00  0.00    +0.000 C 
ENDBRANCH   5   7
BRANCH   1  19
ATOM     16  C   UNL     1       0.038  10.741  21.402  0.00  0.00    +0.000 A 
ATOM     17  C   UNL     1       0.287   9.713  22.309  0.00  0.00    +0.000 A 
ATOM     18  C   UNL     1       0.925   8.523  21.904  0.00  0.00    +0.000 A 
ATOM     19  C   UNL     1       1.306   8.297  20.564  0.00  0.00    +0.000 A 
ATOM     20  C   UNL     1       1.018   9.347  19.654  0.00  0.00    +0.000 A 
ATOM     21 CL   UNL     1       1.286   9.257  17.938  0.00  0.00    +0.000 Cl
ATOM     22  C   UNL     1       0.420  10.546  20.073  0.00  0.00    +0.000 A 
BRANCH  16  24
ATOM     23  C   UNL     1      -1.030  12.364  22.973  0.00  0.00    +0.000 C 
ATOM     24  C   UNL     1      -0.666  11.990  21.737  0.00  0.00    +0.000 C 
BRANCH  23  26
ATOM     25  O   UNL     1      -2.831  13.885  22.930  0.00  0.00    +0.000 OA
ATOM     26  C   UNL     1      -1.701  13.637  23.321  0.00  0.00    +0.000 C 
BRANCH  26  27
ATOM     27  O   UNL     1      -0.978  14.500  24.057  0.00  0.00    +0.000 OA
ATOM     28  H   UNL     1      -1.284  14.628  24.970  0.00  0.00    +0.000 HD
ENDBRANCH  26  27
ENDBRANCH  23  26
ENDBRANCH  16  24
ENDBRANCH   1  19
BRANCH   4  29
ATOM     29  O   UNL     1       3.900   3.375  19.474  0.00  0.00    +0.000 OA
ATOM     30  H   UNL     1       4.464   3.177  20.233  0.00  0.00    +0.000 HD
ENDBRANCH   4  29
TORSDOF 6
ENDMDL
MODEL 6
REMARK VINA RESULT:      -8.6      2.433      3.779
REMARK  Name = 
REMARK  6 active torsions:
REMARK  status: ('A' for Active; 'I' for Inactive)
REMARK    1  A    between atoms: C_2  and  O_3
REMARK    2  A    between atoms: C_2  and  C_4
REMARK    3  A    between atoms: C_5  and  C_6
REMARK    4  A    between atoms: C_9  and  C_10
REMARK    5  A    between atoms: C_13  and  O_14
REMARK    6  A    between atoms: C_15  and  C_16
REMARK                            x       y       z     vdW  Elec       q    Type
REMARK                         _______ _______ _______ _____ _____    ______ ____
ROOT
ATOM      1  C   UNL     1       1.424   8.334  19.863  0.00  0.00    +0.000 A 
ATOM      2  C   UNL     1       2.285   8.858  18.882  0.00  0.00    +0.000 A 
ATOM      3  C   UNL     1       2.941   8.044  17.975  0.00  0.00    +0.000 A 
ATOM      4  C   UNL     1       2.836   6.669  18.098  0.00  0.00    +0.000 A 
ATOM      5  C   UNL     1       2.101   6.052  19.138  0.00  0.00    +0.000 A 
ATOM      6  C   UNL     1       1.375   6.913  19.994  0.00  0.00    +0.000 A 
ENDROOT
BRANCH   5   7
ATOM      7  C   UNL     1       2.203   4.534  19.311  0.00  0.00    +0.000 C 
ATOM      8  C   UNL     1       3.682   4.216  19.696  0.00  0.00    +0.000 C 
ATOM      9  C   UNL     1       3.606   2.773  20.166  0.00  0.00    +0.000 C 
ATOM     10  C   UNL     1       3.147   1.897  18.971  0.00  0.00    +0.000 C 
ATOM     11  C   UNL     1       1.755   2.339  18.440  0.00  0.00    +0.000 C 
ATOM     12  C   UNL     1       0.758   2.496  19.584  0.00  0.00    +0.000 C 
ATOM     13  C   UNL     1       1.409   3.645  20.393  0.00  0.00    +0.000 C 
ATOM     14  C   UNL     1       2.505   2.926  21.212  0.00  0.00    +0.000 C 
ATOM     15  C   UNL     1       1.829   3.794  17.998  0.00  0.00    +0.000 C 
ENDBRANCH   5   7
BRANCH   1  19
ATOM     16  C   UNL     1      -0.818  11.024  22.483  0.00  0.00    +0.000 A 
ATOM     17  C   UNL     1      -0.084   9.951  22.986  0.00  0.00    +0.000 A 
ATOM     18  C   UNL     1       0.643   9.102  22.128  0.00  0.00    +0.000 A 
ATOM     19  C   UNL     1       0.634   9.268  20.727  0.00  0.00    +0.000 A 
ATOM     20  C   UNL     1      -0.142  10.350  20.237  0.00  0.00    +0.000 A 
ATOM     21 CL   UNL     1      -0.401  10.686  18.550  0.00  0.00    +0.000 Cl
ATOM     22  C   UNL     1      -0.830  11.217  21.100  0.00  0.00    +0.000 A 
BRANCH  16  24
ATOM     23  C   UNL     1      -2.982  11.924  23.352  0.00  0.00    +0.000 C 
ATOM     24  C   UNL     1      -1.640  11.925  23.308  0.00  0.00    +0.000 C 
BRANCH  23  26
ATOM     25  O   UNL     1      -3.578  13.993  24.312  0.00  0.00    +0.000 OA
ATOM     26  C   UNL     1      -3.813  12.799  24.210  0.00  0.00    +0.000 C 
BRANCH  26  27
ATOM     27  O   UNL     1      -4.805  12.190  24.883  0.00  0.00    +0.000 OA
ATOM     28  H   UNL     1      -4.791  12.313  25.847  0.00  0.00    +0.000 HD
ENDBRANCH  26  27
ENDBRANCH  23  26
ENDBRANCH  16  24
ENDBRANCH   1  19
BRANCH   4  29
ATOM     29  O   UNL     1       3.518   5.910  17.184  0.00  0.00    +0.000 OA
ATOM     30  H   UNL     1       3.606   6.397  16.354  0.00  0.00    +0.000 HD
ENDBRANCH   4  29
TORSDOF 6
ENDMDL
MODEL 7
REMARK VINA RESULT:      -8.6      2.283      3.456
REMARK  Name = 
REMARK  6 active torsions:
REMARK  status: ('A' for Active; 'I' for Inactive)
REMARK    1  A    between atoms: C_2  and  O_3
REMARK    2  A    between atoms: C_2  and  C_4
REMARK    3  A    between atoms: C_5  and  C_6
REMARK    4  A    between atoms: C_9  and  C_10
REMARK    5  A    between atoms: C_13  and  O_14
REMARK    6  A    between atoms: C_15  and  C_16
REMARK                            x       y       z     vdW  Elec       q    Type
REMARK                         _______ _______ _______ _____ _____    ______ ____
ROOT
ATOM      1  C   UNL     1       1.527   8.339  19.800  0.00  0.00    +0.000 A 
ATOM      2  C   UNL     1       2.360   8.904  18.817  0.00  0.00    +0.000 A 
ATOM      3  C   UNL     1       3.035   8.124  17.895  0.00  0.00    +0.000 A 
ATOM      4  C   UNL     1       2.978   6.745  18.002  0.00  0.00    +0.000 A 
ATOM      5  C   UNL     1       2.274   6.091  19.040  0.00  0.00    +0.000 A 
ATOM      6  C   UNL     1       1.527   6.915  19.913  0.00  0.00    +0.000 A 
ENDROOT
BRANCH   5   7
ATOM      7  C   UNL     1       2.429   4.575  19.195  0.00  0.00    +0.000 C 
ATOM      8  C   UNL     1       1.565   3.911  18.077  0.00  0.00    +0.000 C 
ATOM      9  C   UNL     1       2.038   2.467  18.096  0.00  0.00    +0.000 C 
ATOM     10  C   UNL     1       1.701   1.864  19.486  0.00  0.00    +0.000 C 
ATOM     11  C   UNL     1       2.395   2.650  20.633  0.00  0.00    +0.000 C 
ATOM     12  C   UNL     1       3.876   2.863  20.332  0.00  0.00    +0.000 C 
ATOM     13  C   UNL     1       3.798   3.740  19.057  0.00  0.00    +0.000 C 
ATOM     14  C   UNL     1       3.536   2.711  17.933  0.00  0.00    +0.000 C 
ATOM     15  C   UNL     1       1.939   4.102  20.591  0.00  0.00    +0.000 C 
ENDBRANCH   5   7
BRANCH   1  19
ATOM     16  C   UNL     1      -0.781  10.920  22.473  0.00  0.00    +0.000 A 
ATOM     17  C   UNL     1      -0.002   9.870  22.956  0.00  0.00    +0.000 A 
ATOM     18  C   UNL     1       0.745   9.056  22.082  0.00  0.00    +0.000 A 
ATOM     19  C   UNL     1       0.714   9.235  20.682  0.00  0.00    +0.000 A 
ATOM     20  C   UNL     1      -0.108  10.292  20.212  0.00  0.00    +0.000 A 
ATOM     21 CL   UNL     1      -0.400  10.634  18.532  0.00  0.00    +0.000 Cl
ATOM     22  C   UNL     1      -0.817  11.126  21.092  0.00  0.00    +0.000 A 
BRANCH  16  24
ATOM     23  C   UNL     1      -2.967  11.801  23.303  0.00  0.00    +0.000 C 
ATOM     24  C   UNL     1      -1.625  11.782  23.316  0.00  0.00    +0.000 C 
BRANCH  23  26
ATOM     25  O   UNL     1      -3.628  13.836  24.295  0.00  0.00    +0.000 OA
ATOM     26  C   UNL     1      -3.823  12.636  24.177  0.00  0.00    +0.000 C 
BRANCH  26  27
ATOM     27  O   UNL     1      -4.791  11.985  24.846  0.00  0.00    +0.000 OA
ATOM     28  H   UNL     1      -5.700  12.241  24.617  0.00  0.00    +0.000 HD
ENDBRANCH  26  27
ENDBRANCH  23  26
ENDBRANCH  16  24
ENDBRANCH   1  19
BRANCH   4  29
ATOM     29  O   UNL     1       3.677   6.021  17.073  0.00  0.00    +0.000 OA
ATOM     30  H   UNL     1       4.577   6.367  16.998  0.00  0.00    +0.000 HD
ENDBRANCH   4  29
TORSDOF 6
ENDMDL
MODEL 8
REMARK VINA RESULT:      -8.6      2.980      9.334
REMARK  Name = 
REMARK  6 active torsions:
REMARK  status: ('A' for Active; 'I' for Inactive)
REMARK    1  A    between atoms: C_2  and  O_3
REMARK    2  A    between atoms: C_2  and  C_4
REMARK    3  A    between atoms: C_5  and  C_6
REMARK    4  A    between atoms: C_9  and  C_10
REMARK    5  A    between atoms: C_13  and  O_14
REMARK    6  A    between atoms: C_15  and  C_16
REMARK                            x       y       z     vdW  Elec       q    Type
REMARK                         _______ _______ _______ _____ _____    ______ ____
ROOT
ATOM      1  C   UNL     1       2.646   6.841  18.886  0.00  0.00    +0.000 A 
ATOM      2  C   UNL     1       2.372   6.125  20.065  0.00  0.00    +0.000 A 
ATOM      3  C   UNL     1       1.483   6.593  21.015  0.00  0.00    +0.000 A 
ATOM      4  C   UNL     1       0.924   7.851  20.859  0.00  0.00    +0.000 A 
ATOM      5  C   UNL     1       1.247   8.698  19.773  0.00  0.00    +0.000 A 
ATOM      6  C   UNL     1       2.093   8.154  18.778  0.00  0.00    +0.000 A 
ENDROOT
BRANCH   5   7
ATOM      7  C   UNL     1       0.737  10.141  19.787  0.00  0.00    +0.000 C 
ATOM      8  C   UNL     1       1.391  10.870  18.570  0.00  0.00    +0.000 C 
ATOM      9  C   UNL     1       0.585  12.154  18.472  0.00  0.00    +0.000 C 
ATOM     10  C   UNL     1       0.800  12.963  19.779  0.00  0.00    +0.000 C 
ATOM     11  C   UNL     1       0.342  12.161  21.028  0.00  0.00    +0.000 C 
ATOM     12  C   UNL     1      -1.051  11.574  20.821  0.00  0.00    +0.000 C 
ATOM     13  C   UNL     1      -0.795  10.611  19.634  0.00  0.00    +0.000 C 
ATOM     14  C   UNL     1      -0.814  11.548  18.406  0.00  0.00    +0.000 C 
ATOM     15  C   UNL     1       1.131  10.862  21.105  0.00  0.00    +0.000 C 
ENDBRANCH   5   7
BRANCH   1  19
ATOM     16  C   UNL     1       5.243   5.132  15.810  0.00  0.00    +0.000 A 
ATOM     17  C   UNL     1       5.293   6.483  16.145  0.00  0.00    +0.000 A 
ATOM     18  C   UNL     1       4.458   7.015  17.148  0.00  0.00    +0.000 A 
ATOM     19  C   UNL     1       3.510   6.224  17.830  0.00  0.00    +0.000 A 
ATOM     20  C   UNL     1       3.459   4.857  17.452  0.00  0.00    +0.000 A 
ATOM     21 CL   UNL     1       2.300   3.713  18.063  0.00  0.00    +0.000 Cl
ATOM     22  C   UNL     1       4.323   4.325  16.481  0.00  0.00    +0.000 A 
BRANCH  16  24
ATOM     23  C   UNL     1       5.568   4.082  13.565  0.00  0.00    +0.000 C 
ATOM     24  C   UNL     1       6.047   4.513  14.742  0.00  0.00    +0.000 C 
BRANCH  23  26
ATOM     25  O   UNL     1       7.251   4.141  11.915  0.00  0.00    +0.000 OA
ATOM     26  C   UNL     1       6.377   3.496  12.472  0.00  0.00    +0.000 C 
BRANCH  26  27
ATOM     27  O   UNL     1       6.063   2.236  12.120  0.00  0.00    +0.000 OA
ATOM     28  H   UNL     1       6.673   1.815  11.491  0.00  0.00    +0.000 HD
ENDBRANCH  26  27
ENDBRANCH  23  26
ENDBRANCH  16  24
ENDBRANCH   1  19
BRANCH   4  29
ATOM     29  O   UNL     1       0.063   8.273  21.837  0.00  0.00    +0.000 OA
ATOM     30  H   UNL     1       0.564   8.630  22.583  0.00  0.00    +0.000 HD
ENDBRANCH   4  29
TORSDOF 6
ENDMDL
MODEL 9
REMARK VINA RESULT:      -8.4      1.019      1.661
REMARK  Name = 
REMARK  6 active torsions:
REMARK  status: ('A' for Active; 'I' for Inactive)
REMARK    1  A    between atoms: C_2  and  O_3
REMARK    2  A    between atoms: C_2  and  C_4
REMARK    3  A    between atoms: C_5  and  C_6
REMARK    4  A    between atoms: C_9  and  C_10
REMARK    5  A    between atoms: C_13  and  O_14
REMARK    6  A    between atoms: C_15  and  C_16
REMARK                            x       y       z     vdW  Elec       q    Type
REMARK                         _______ _______ _______ _____ _____    ______ ____
ROOT
ATOM      1  C   UNL     1       1.906   7.102  20.199  0.00  0.00    +0.000 A 
ATOM      2  C   UNL     1       1.566   5.924  20.889  0.00  0.00    +0.000 A 
ATOM      3  C   UNL     1       2.283   4.751  20.730  0.00  0.00    +0.000 A 
ATOM      4  C   UNL     1       3.298   4.698  19.789  0.00  0.00    +0.000 A 
ATOM      5  C   UNL     1       3.619   5.795  18.954  0.00  0.00    +0.000 A 
ATOM      6  C   UNL     1       2.924   7.001  19.202  0.00  0.00    +0.000 A 
ENDROOT
BRANCH   5   7
ATOM      7  C   UNL     1       4.616   5.583  17.812  0.00  0.00    +0.000 C 
ATOM      8  C   UNL     1       4.518   6.833  16.882  0.00  0.00    +0.000 C 
ATOM      9  C   UNL     1       5.745   6.694  15.997  0.00  0.00    +0.000 C 
ATOM     10  C   UNL     1       5.607   5.385  15.177  0.00  0.00    +0.000 C 
ATOM     11  C   UNL     1       5.495   4.141  16.102  0.00  0.00    +0.000 C 
ATOM     12  C   UNL     1       6.582   4.154  17.172  0.00  0.00    +0.000 C 
ATOM     13  C   UNL     1       6.212   5.438  17.957  0.00  0.00    +0.000 C 
ATOM     14  C   UNL     1       6.805   6.570  17.088  0.00  0.00    +0.000 C 
ATOM     15  C   UNL     1       4.280   4.299  17.005  0.00  0.00    +0.000 C 
ENDBRANCH   5   7
BRANCH   1  19
ATOM     16  C   UNL     1      -0.189  10.799  21.232  0.00  0.00    +0.000 A 
ATOM     17  C   UNL     1      -0.018   9.769  22.155  0.00  0.00    +0.000 A 
ATOM     18  C   UNL     1       0.671   8.590  21.809  0.00  0.00    +0.000 A 
ATOM     19  C   UNL     1       1.184   8.375  20.513  0.00  0.00    +0.000 A 
ATOM     20  C   UNL     1       0.974   9.426  19.582  0.00  0.00    +0.000 A 
ATOM     21 CL   UNL     1       1.408   9.349  17.900  0.00  0.00    +0.000 Cl
ATOM     22  C   UNL     1       0.323  10.616  19.946  0.00  0.00    +0.000 A 
BRANCH  16  24
ATOM     23  C   UNL     1      -1.936  12.519  20.745  0.00  0.00    +0.000 C 
ATOM     24  C   UNL     1      -0.937  12.039  21.502  0.00  0.00    +0.000 C 
BRANCH  23  26
ATOM     25  O   UNL     1      -2.418  14.484  21.956  0.00  0.00    +0.000 OA
ATOM     26  C   UNL     1      -2.719  13.742  21.034  0.00  0.00    +0.000 C 
BRANCH  26  27
ATOM     27  O   UNL     1      -3.785  13.957  20.243  0.00  0.00    +0.000 OA
ATOM     28  H   UNL     1      -4.638  14.030  20.703  0.00  0.00    +0.000 HD
ENDBRANCH  26  27
ENDBRANCH  23  26
ENDBRANCH  16  24
ENDBRANCH   1  19
BRANCH   4  29
ATOM     29  O   UNL     1       3.964   3.508  19.661  0.00  0.00    +0.000 OA
ATOM     30  H   UNL     1       4.425   3.301  20.485  0.00  0.00    +0.000 HD
ENDBRANCH   4  29
TORSDOF 6
ENDMDL
