MODEL 1
REMARK VINA RESULT:      -6.7      0.000      0.000
REMARK  Name = 
REMARK  1 active torsions:
REMARK  status: ('A' for Active; 'I' for Inactive)
REMARK    1  A    between atoms: C_1  and  N_2
REMARK                            x       y       z     vdW  Elec       q    Type
REMARK                         _______ _______ _______ _____ _____    ______ ____
ROOT
ATOM      1  C   UNL     1       1.459   2.585  21.677  0.00  0.00    +0.000 C 
ATOM      2  N   UNL     1       1.520   3.493  20.551  0.00  0.00    +0.000 N 
ATOM      3  C   UNL     1       2.334   3.154  19.517  0.00  0.00    +0.000 A 
ATOM      4  N   UNL     1       2.744   1.963  19.122  0.00  0.00    +0.000 NA
ATOM      5  N   UNL     1       3.600   2.128  18.050  0.00  0.00    +0.000 NA
ATOM      6  C   UNL     1       3.701   3.420  17.823  0.00  0.00    +0.000 A 
ATOM      7  C   UNL     1       4.491   4.154  16.863  0.00  0.00    +0.000 A 
ATOM      8  C   UNL     1       5.320   3.547  15.922  0.00  0.00    +0.000 A 
ATOM      9  C   UNL     1       6.066   4.342  15.047  0.00  0.00    +0.000 A 
ATOM     10  C   UNL     1       5.982   5.738  15.112  0.00  0.00    +0.000 A 
ATOM     11  C   UNL     1       5.148   6.351  16.051  0.00  0.00    +0.000 A 
ATOM     12  C   UNL     1       4.407   5.552  16.919  0.00  0.00    +0.000 A 
ATOM     13  C   UNL     1       3.513   6.149  17.939  0.00  0.00    +0.000 A 
ATOM     14  N   UNL     1       2.794   5.491  18.806  0.00  0.00    +0.000 NA
ATOM     15  N   UNL     1       2.916   4.118  18.712  0.00  0.00    +0.000 N 
ATOM     16  H   UNL     1       1.492   4.482  20.793  0.00  0.00    +0.000 HD
ENDROOT
TORSDOF 0
ENDMDL
MODEL 2
REMARK VINA RESULT:      -6.7      2.055      5.209
REMARK  Name = 
REMARK  1 active torsions:
REMARK  status: ('A' for Active; 'I' for Inactive)
REMARK    1  A    between atoms: C_1  and  N_2
REMARK                            x       y       z     vdW  Elec       q    Type
REMARK                         _______ _______ _______ _____ _____    ______ ____
ROOT
ATOM      1  C   UNL     1       7.047   4.699  15.327  0.00  0.00    +0.000 C 
ATOM      2  N   UNL     1       5.796   5.069  15.956  0.00  0.00    +0.000 N 
ATOM      3  C   UNL     1       5.583   4.636  17.227  0.00  0.00    +0.000 A 
ATOM      4  N   UNL     1       6.453   4.324  18.169  0.00  0.00    +0.000 NA
ATOM      5  N   UNL     1       5.757   3.890  19.281  0.00  0.00    +0.000 NA
ATOM      6  C   UNL     1       4.476   3.938  18.987  0.00  0.00    +0.000 A 
ATOM      7  C   UNL     1       3.313   3.557  19.752  0.00  0.00    +0.000 A 
ATOM      8  C   UNL     1       3.375   3.065  21.055  0.00  0.00    +0.000 A 
ATOM      9  C   UNL     1       2.195   2.700  21.710  0.00  0.00    +0.000 A 
ATOM     10  C   UNL     1       0.959   2.828  21.066  0.00  0.00    +0.000 A 
ATOM     11  C   UNL     1       0.892   3.326  19.762  0.00  0.00    +0.000 A 
ATOM     12  C   UNL     1       2.071   3.688  19.116  0.00  0.00    +0.000 A 
ATOM     13  C   UNL     1       2.059   4.214  17.730  0.00  0.00    +0.000 A 
ATOM     14  N   UNL     1       3.105   4.563  17.034  0.00  0.00    +0.000 NA
ATOM     15  N   UNL     1       4.304   4.410  17.705  0.00  0.00    +0.000 N 
ATOM     16  H   UNL     1       4.986   5.064  15.339  0.00  0.00    +0.000 HD
ENDROOT
TORSDOF 0
ENDMDL
MODEL 3
REMARK VINA RESULT:      -6.7      2.313      2.658
REMARK  Name = 
REMARK  1 active torsions:
REMARK  status: ('A' for Active; 'I' for Inactive)
REMARK    1  A    between atoms: C_1  and  N_2
REMARK                            x       y       z     vdW  Elec       q    Type
REMARK                         _______ _______ _______ _____ _____    ______ ____
ROOT
ATOM      1  C   UNL     1       1.150   2.222  19.178  0.00  0.00    +0.000 C 
ATOM      2  N   UNL     1       2.045   2.868  18.241  0.00  0.00    +0.000 N 
ATOM      3  C   UNL     1       3.292   3.180  18.682  0.00  0.00    +0.000 A 
ATOM      4  N   UNL     1       4.011   2.627  19.641  0.00  0.00    +0.000 NA
ATOM      5  N   UNL     1       5.200   3.322  19.752  0.00  0.00    +0.000 NA
ATOM      6  C   UNL     1       5.174   4.292  18.864  0.00  0.00    +0.000 A 
ATOM      7  C   UNL     1       6.123   5.342  18.579  0.00  0.00    +0.000 A 
ATOM      8  C   UNL     1       7.341   5.480  19.242  0.00  0.00    +0.000 A 
ATOM      9  C   UNL     1       8.187   6.543  18.914  0.00  0.00    +0.000 A 
ATOM     10  C   UNL     1       7.817   7.463  17.925  0.00  0.00    +0.000 A 
ATOM     11  C   UNL     1       6.599   7.325  17.255  0.00  0.00    +0.000 A 
ATOM     12  C   UNL     1       5.762   6.263  17.587  0.00  0.00    +0.000 A 
ATOM     13  C   UNL     1       4.456   6.073  16.913  0.00  0.00    +0.000 A 
ATOM     14  N   UNL     1       3.595   5.125  17.163  0.00  0.00    +0.000 NA
ATOM     15  N   UNL     1       3.997   4.248  18.152  0.00  0.00    +0.000 N 
ATOM     16  H   UNL     1       1.605   3.548  17.624  0.00  0.00    +0.000 HD
ENDROOT
TORSDOF 0
ENDMDL
MODEL 4
REMARK VINA RESULT:      -6.7      1.321      1.388
REMARK  Name = 
REMARK  1 active torsions:
REMARK  status: ('A' for Active; 'I' for Inactive)
REMARK    1  A    between atoms: C_1  and  N_2
REMARK                            x       y       z     vdW  Elec       q    Type
REMARK                         _______ _______ _______ _____ _____    ______ ____
ROOT
ATOM      1  C   UNL     1       1.352   2.907  21.281  0.00  0.00    +0.000 C 
ATOM      2  N   UNL     1       2.181   3.933  20.684  0.00  0.00    +0.000 N 
ATOM      3  C   UNL     1       2.530   3.774  19.380  0.00  0.00    +0.000 A 
ATOM      4  N   UNL     1       1.917   3.113  18.417  0.00  0.00    +0.000 NA
ATOM      5  N   UNL     1       2.682   3.200  17.270  0.00  0.00    +0.000 NA
ATOM      6  C   UNL     1       3.753   3.905  17.564  0.00  0.00    +0.000 A 
ATOM      7  C   UNL     1       4.902   4.262  16.766  0.00  0.00    +0.000 A 
ATOM      8  C   UNL     1       5.048   3.908  15.426  0.00  0.00    +0.000 A 
ATOM      9  C   UNL     1       6.208   4.280  14.739  0.00  0.00    +0.000 A 
ATOM     10  C   UNL     1       7.215   5.003  15.389  0.00  0.00    +0.000 A 
ATOM     11  C   UNL     1       7.070   5.364  16.731  0.00  0.00    +0.000 A 
ATOM     12  C   UNL     1       5.911   4.991  17.408  0.00  0.00    +0.000 A 
ATOM     13  C   UNL     1       5.708   5.341  18.834  0.00  0.00    +0.000 A 
ATOM     14  N   UNL     1       4.672   5.025  19.560  0.00  0.00    +0.000 NA
ATOM     15  N   UNL     1       3.709   4.302  18.881  0.00  0.00    +0.000 N 
ATOM     16  H   UNL     1       2.898   4.318  21.297  0.00  0.00    +0.000 HD
ENDROOT
TORSDOF 0
ENDMDL
MODEL 5
REMARK VINA RESULT:      -6.7      1.981      5.413
REMARK  Name = 
REMARK  1 active torsions:
REMARK  status: ('A' for Active; 'I' for Inactive)
REMARK    1  A    between atoms: C_1  and  N_2
REMARK                            x       y       z     vdW  Elec       q    Type
REMARK                         _______ _______ _______ _____ _____    ______ ____
ROOT
ATOM      1  C   UNL     1       7.043   4.753  14.750  0.00  0.00    +0.000 C 
ATOM      2  N   UNL     1       5.837   4.069  15.167  0.00  0.00    +0.000 N 
ATOM      3  C   UNL     1       5.053   4.690  16.087  0.00  0.00    +0.000 A 
ATOM      4  N   UNL     1       4.924   5.975  16.356  0.00  0.00    +0.000 NA
ATOM      5  N   UNL     1       4.041   6.116  17.409  0.00  0.00    +0.000 NA
ATOM      6  C   UNL     1       3.658   4.909  17.766  0.00  0.00    +0.000 A 
ATOM      7  C   UNL     1       2.789   4.466  18.830  0.00  0.00    +0.000 A 
ATOM      8  C   UNL     1       2.136   5.334  19.703  0.00  0.00    +0.000 A 
ATOM      9  C   UNL     1       1.331   4.811  20.719  0.00  0.00    +0.000 A 
ATOM     10  C   UNL     1       1.179   3.426  20.860  0.00  0.00    +0.000 A 
ATOM     11  C   UNL     1       1.829   2.553  19.985  0.00  0.00    +0.000 A 
ATOM     12  C   UNL     1       2.628   3.081  18.974  0.00  0.00    +0.000 A 
ATOM     13  C   UNL     1       3.346   2.201  18.021  0.00  0.00    +0.000 A 
ATOM     14  N   UNL     1       4.129   2.595  17.056  0.00  0.00    +0.000 NA
ATOM     15  N   UNL     1       4.258   3.967  16.961  0.00  0.00    +0.000 N 
ATOM     16  H   UNL     1       5.926   3.059  15.262  0.00  0.00    +0.000 HD
ENDROOT
TORSDOF 0
ENDMDL
MODEL 6
REMARK VINA RESULT:      -6.6      2.313      5.446
REMARK  Name = 
REMARK  1 active torsions:
REMARK  status: ('A' for Active; 'I' for Inactive)
REMARK    1  A    between atoms: C_1  and  N_2
REMARK                            x       y       z     vdW  Elec       q    Type
REMARK                         _______ _______ _______ _____ _____    ______ ____
ROOT
ATOM      1  C   UNL     1       7.227   4.985  14.409  0.00  0.00    +0.000 C 
ATOM      2  N   UNL     1       5.942   4.517  14.884  0.00  0.00    +0.000 N 
ATOM      3  C   UNL     1       5.295   5.286  15.798  0.00  0.00    +0.000 A 
ATOM      4  N   UNL     1       5.379   6.584  16.020  0.00  0.00    +0.000 NA
ATOM      5  N   UNL     1       4.562   6.900  17.088  0.00  0.00    +0.000 NA
ATOM      6  C   UNL     1       4.006   5.782  17.503  0.00  0.00    +0.000 A 
ATOM      7  C   UNL     1       3.112   5.520  18.605  0.00  0.00    +0.000 A 
ATOM      8  C   UNL     1       2.632   6.511  19.459  0.00  0.00    +0.000 A 
ATOM      9  C   UNL     1       1.788   6.158  20.516  0.00  0.00    +0.000 A 
ATOM     10  C   UNL     1       1.424   4.821  20.716  0.00  0.00    +0.000 A 
ATOM     11  C   UNL     1       1.899   3.826  19.860  0.00  0.00    +0.000 A 
ATOM     12  C   UNL     1       2.740   4.185  18.808  0.00  0.00    +0.000 A 
ATOM     13  C   UNL     1       3.279   3.168  17.873  0.00  0.00    +0.000 A 
ATOM     14  N   UNL     1       4.084   3.399  16.873  0.00  0.00    +0.000 NA
ATOM     15  N   UNL     1       4.424   4.730  16.720  0.00  0.00    +0.000 N 
ATOM     16  H   UNL     1       5.873   3.509  15.017  0.00  0.00    +0.000 HD
ENDROOT
TORSDOF 0
ENDMDL
MODEL 7
REMARK VINA RESULT:      -6.6      2.651      5.213
REMARK  Name = 
REMARK  1 active torsions:
REMARK  status: ('A' for Active; 'I' for Inactive)
REMARK    1  A    between atoms: C_1  and  N_2
REMARK                            x       y       z     vdW  Elec       q    Type
REMARK                         _______ _______ _______ _____ _____    ______ ____
ROOT
ATOM      1  C   UNL     1       7.854   8.024  17.731  0.00  0.00    +0.000 C 
ATOM      2  N   UNL     1       7.414   6.647  17.820  0.00  0.00    +0.000 N 
ATOM      3  C   UNL     1       6.103   6.393  17.568  0.00  0.00    +0.000 A 
ATOM      4  N   UNL     1       5.240   7.065  16.830  0.00  0.00    +0.000 NA
ATOM      5  N   UNL     1       4.010   6.440  16.916  0.00  0.00    +0.000 NA
ATOM      6  C   UNL     1       4.150   5.404  17.715  0.00  0.00    +0.000 A 
ATOM      7  C   UNL     1       3.189   4.439  18.192  0.00  0.00    +0.000 A 
ATOM      8  C   UNL     1       1.847   4.438  17.817  0.00  0.00    +0.000 A 
ATOM      9  C   UNL     1       0.984   3.475  18.350  0.00  0.00    +0.000 A 
ATOM     10  C   UNL     1       1.462   2.517  19.251  0.00  0.00    +0.000 A 
ATOM     11  C   UNL     1       2.808   2.512  19.626  0.00  0.00    +0.000 A 
ATOM     12  C   UNL     1       3.662   3.473  19.091  0.00  0.00    +0.000 A 
ATOM     13  C   UNL     1       5.097   3.518  19.460  0.00  0.00    +0.000 A 
ATOM     14  N   UNL     1       5.971   4.386  19.030  0.00  0.00    +0.000 NA
ATOM     15  N   UNL     1       5.453   5.318  18.151  0.00  0.00    +0.000 N 
ATOM     16  H   UNL     1       7.839   6.107  18.572  0.00  0.00    +0.000 HD
ENDROOT
TORSDOF 0
ENDMDL
MODEL 8
REMARK VINA RESULT:      -6.4      2.484      5.484
REMARK  Name = 
REMARK  1 active torsions:
REMARK  status: ('A' for Active; 'I' for Inactive)
REMARK    1  A    between atoms: C_1  and  N_2
REMARK                            x       y       z     vdW  Elec       q    Type
REMARK                         _______ _______ _______ _____ _____    ______ ____
ROOT
ATOM      1  C   UNL     1       7.475   7.436  17.203  0.00  0.00    +0.000 C 
ATOM      2  N   UNL     1       6.859   6.140  17.395  0.00  0.00    +0.000 N 
ATOM      3  C   UNL     1       5.535   6.116  17.702  0.00  0.00    +0.000 A 
ATOM      4  N   UNL     1       4.590   6.997  17.432  0.00  0.00    +0.000 NA
ATOM      5  N   UNL     1       3.407   6.555  17.992  0.00  0.00    +0.000 NA
ATOM      6  C   UNL     1       3.661   5.417  18.601  0.00  0.00    +0.000 A 
ATOM      7  C   UNL     1       2.812   4.551  19.384  0.00  0.00    +0.000 A 
ATOM      8  C   UNL     1       1.458   4.797  19.607  0.00  0.00    +0.000 A 
ATOM      9  C   UNL     1       0.720   3.912  20.400  0.00  0.00    +0.000 A 
ATOM     10  C   UNL     1       1.333   2.787  20.964  0.00  0.00    +0.000 A 
ATOM     11  C   UNL     1       2.688   2.536  20.739  0.00  0.00    +0.000 A 
ATOM     12  C   UNL     1       3.417   3.420  19.948  0.00  0.00    +0.000 A 
ATOM     13  C   UNL     1       4.859   3.205  19.683  0.00  0.00    +0.000 A 
ATOM     14  N   UNL     1       5.631   3.982  18.973  0.00  0.00    +0.000 NA
ATOM     15  N   UNL     1       4.987   5.084  18.445  0.00  0.00    +0.000 N 
ATOM     16  H   UNL     1       7.442   5.452  17.868  0.00  0.00    +0.000 HD
ENDROOT
TORSDOF 0
ENDMDL
MODEL 9
REMARK VINA RESULT:      -6.4      3.031      5.366
REMARK  Name = 
REMARK  1 active torsions:
REMARK  status: ('A' for Active; 'I' for Inactive)
REMARK    1  A    between atoms: C_1  and  N_2
REMARK                            x       y       z     vdW  Elec       q    Type
REMARK                         _______ _______ _______ _____ _____    ______ ____
ROOT
ATOM      1  C   UNL     1       8.117   5.242  12.833  0.00  0.00    +0.000 C 
ATOM      2  N   UNL     1       7.796   5.569  14.206  0.00  0.00    +0.000 N 
ATOM      3  C   UNL     1       6.787   4.875  14.795  0.00  0.00    +0.000 A 
ATOM      4  N   UNL     1       6.328   3.667  14.530  0.00  0.00    +0.000 NA
ATOM      5  N   UNL     1       5.258   3.412  15.367  0.00  0.00    +0.000 NA
ATOM      6  C   UNL     1       5.082   4.479  16.117  0.00  0.00    +0.000 A 
ATOM      7  C   UNL     1       4.089   4.778  17.120  0.00  0.00    +0.000 A 
ATOM      8  C   UNL     1       3.090   3.886  17.506  0.00  0.00    +0.000 A 
ATOM      9  C   UNL     1       2.157   4.274  18.471  0.00  0.00    +0.000 A 
ATOM     10  C   UNL     1       2.223   5.548  19.049  0.00  0.00    +0.000 A 
ATOM     11  C   UNL     1       3.225   6.443  18.668  0.00  0.00    +0.000 A 
ATOM     12  C   UNL     1       4.152   6.049  17.707  0.00  0.00    +0.000 A 
ATOM     13  C   UNL     1       5.232   6.962  17.260  0.00  0.00    +0.000 A 
ATOM     14  N   UNL     1       6.134   6.696  16.357  0.00  0.00    +0.000 NA
ATOM     15  N   UNL     1       6.024   5.433  15.807  0.00  0.00    +0.000 N 
ATOM     16  H   UNL     1       7.855   6.559  14.438  0.00  0.00    +0.000 HD
ENDROOT
TORSDOF 0
ENDMDL
