MODEL 1
REMARK VINA RESULT:      -8.7      0.000      0.000
REMARK  Name = 
REMARK  8 active torsions:
REMARK  status: ('A' for Active; 'I' for Inactive)
REMARK    1  A    between atoms: C_1  and  O_2
REMARK    2  A    between atoms: O_2  and  C_3
REMARK    3  A    between atoms: C_6  and  C_7
REMARK    4  A    between atoms: C_13  and  C_14
REMARK    5  A    between atoms: C_25  and  O_26
REMARK    6  A    between atoms: O_26  and  C_27
REMARK    7  A    between atoms: C_28  and  O_29
REMARK    8  A    between atoms: O_29  and  C_30
REMARK                            x       y       z     vdW  Elec       q    Type
REMARK                         _______ _______ _______ _____ _____    ______ ____
ROOT
ATOM      1  C   UNL     1       3.981   4.225  18.523  0.00  0.00    +0.000 A 
ATOM      2  C   UNL     1       4.026   2.839  18.885  0.00  0.00    +0.000 A 
ATOM      3  C   UNL     1       3.192   2.229  19.820  0.00  0.00    +0.000 A 
ATOM      4  C   UNL     1       2.253   2.986  20.496  0.00  0.00    +0.000 A 
ATOM      5  C   UNL     1       2.190   4.356  20.224  0.00  0.00    +0.000 A 
ATOM      6  N   UNL     1       1.367   5.268  20.807  0.00  0.00    +0.000 NA
ATOM      7  C   UNL     1       1.732   6.415  20.276  0.00  0.00    +0.000 A 
ATOM      8  O   UNL     1       2.703   6.306  19.295  0.00  0.00    +0.000 OA
ATOM      9  C   UNL     1       3.028   4.953  19.276  0.00  0.00    +0.000 A 
ENDROOT
BRANCH   7  10
ATOM     10  C   UNL     1       1.247   7.732  20.714  0.00  0.00    +0.000 A 
ATOM     11  C   UNL     1       1.422   8.822  19.834  0.00  0.00    +0.000 A 
ATOM     12  C   UNL     1       0.898  10.097  20.095  0.00  0.00    +0.000 A 
ATOM     13  C   UNL     1       0.163  10.289  21.277  0.00  0.00    +0.000 A 
ATOM     14  C   UNL     1      -0.542  11.395  21.825  0.00  0.00    +0.000 A 
ATOM     15  C   UNL     1      -1.089  10.988  23.021  0.00  0.00    +0.000 A 
ATOM     16  N   UNL     1      -0.724   9.683  23.225  0.00  0.00    +0.000 N 
ATOM     17  C   UNL     1       0.022   9.219  22.162  0.00  0.00    +0.000 A 
ATOM     18  C   UNL     1       0.560   7.938  21.917  0.00  0.00    +0.000 A 
ATOM     19  H   UNL     1      -0.987   9.124  24.026  0.00  0.00    +0.000 HD
ENDBRANCH   7  10
BRANCH   1  23
ATOM     20  C   UNL     1       6.673   5.202  15.244  0.00  0.00    +0.000 A 
ATOM     21  C   UNL     1       5.614   4.311  15.111  0.00  0.00    +0.000 A 
ATOM     22  C   UNL     1       4.724   4.115  16.159  0.00  0.00    +0.000 A 
ATOM     23  C   UNL     1       4.900   4.697  17.438  0.00  0.00    +0.000 A 
ATOM     24  C   UNL     1       6.018   5.557  17.594  0.00  0.00    +0.000 A 
ATOM     25  C   UNL     1       6.904   5.823  16.493  0.00  0.00    +0.000 A 
BRANCH  20  27
ATOM     26  C   UNL     1       7.258   4.675  12.993  0.00  0.00    +0.000 C 
ATOM     27  O   UNL     1       7.516   5.420  14.184  0.00  0.00    +0.000 OA
ENDBRANCH  20  27
BRANCH  24  28
ATOM     28  O   UNL     1       6.149   6.039  18.877  0.00  0.00    +0.000 OA
ATOM     29  C   UNL     1       7.148   5.534  19.745  0.00  0.00    +0.000 C 
ENDBRANCH  24  28
BRANCH  25  30
ATOM     30  O   UNL     1       7.951   6.676  16.748  0.00  0.00    +0.000 OA
ATOM     31  C   UNL     1       7.739   7.980  17.263  0.00  0.00    +0.000 C 
ENDBRANCH  25  30
ENDBRANCH   1  23
TORSDOF 5
ENDMDL
MODEL 2
REMARK VINA RESULT:      -8.2      1.036      1.448
REMARK  Name = 
REMARK  8 active torsions:
REMARK  status: ('A' for Active; 'I' for Inactive)
REMARK    1  A    between atoms: C_1  and  O_2
REMARK    2  A    between atoms: O_2  and  C_3
REMARK    3  A    between atoms: C_6  and  C_7
REMARK    4  A    between atoms: C_13  and  C_14
REMARK    5  A    between atoms: C_25  and  O_26
REMARK    6  A    between atoms: O_26  and  C_27
REMARK    7  A    between atoms: C_28  and  O_29
REMARK    8  A    between atoms: O_29  and  C_30
REMARK                            x       y       z     vdW  Elec       q    Type
REMARK                         _______ _______ _______ _____ _____    ______ ____
ROOT
ATOM      1  C   UNL     1       3.981   4.440  18.824  0.00  0.00    +0.000 A 
ATOM      2  C   UNL     1       4.106   3.126  19.384  0.00  0.00    +0.000 A 
ATOM      3  C   UNL     1       3.345   2.634  20.444  0.00  0.00    +0.000 A 
ATOM      4  C   UNL     1       2.408   3.449  21.050  0.00  0.00    +0.000 A 
ATOM      5  C   UNL     1       2.270   4.760  20.582  0.00  0.00    +0.000 A 
ATOM      6  N   UNL     1       1.438   5.718  21.067  0.00  0.00    +0.000 NA
ATOM      7  C   UNL     1       1.725   6.785  20.353  0.00  0.00    +0.000 A 
ATOM      8  O   UNL     1       2.652   6.565  19.348  0.00  0.00    +0.000 OA
ATOM      9  C   UNL     1       3.035   5.237  19.512  0.00  0.00    +0.000 A 
ENDROOT
BRANCH   7  10
ATOM     10  C   UNL     1       1.204   8.134  20.617  0.00  0.00    +0.000 A 
ATOM     11  C   UNL     1       0.760   8.422  21.927  0.00  0.00    +0.000 A 
ATOM     12  C   UNL     1       0.354   9.705  22.322  0.00  0.00    +0.000 A 
ATOM     13  C   UNL     1       0.400  10.743  21.377  0.00  0.00    +0.000 A 
ATOM     14  C   UNL     1       0.127  12.136  21.437  0.00  0.00    +0.000 A 
ATOM     15  C   UNL     1       0.362  12.659  20.185  0.00  0.00    +0.000 A 
ATOM     16  N   UNL     1       0.748  11.630  19.367  0.00  0.00    +0.000 N 
ATOM     17  C   UNL     1       0.805  10.448  20.075  0.00  0.00    +0.000 A 
ATOM     18  C   UNL     1       1.200   9.158  19.661  0.00  0.00    +0.000 A 
ATOM     19  H   UNL     1       0.987  11.723  18.389  0.00  0.00    +0.000 HD
ENDBRANCH   7  10
BRANCH   1  23
ATOM     20  C   UNL     1       6.425   5.014  15.267  0.00  0.00    +0.000 A 
ATOM     21  C   UNL     1       5.320   4.172  15.295  0.00  0.00    +0.000 A 
ATOM     22  C   UNL     1       4.514   4.106  16.424  0.00  0.00    +0.000 A 
ATOM     23  C   UNL     1       4.825   4.776  17.633  0.00  0.00    +0.000 A 
ATOM     24  C   UNL     1       5.990   5.587  17.626  0.00  0.00    +0.000 A 
ATOM     25  C   UNL     1       6.790   5.719  16.438  0.00  0.00    +0.000 A 
BRANCH  20  27
ATOM     26  C   UNL     1       6.834   4.233  13.052  0.00  0.00    +0.000 C 
ATOM     27  O   UNL     1       7.183   5.104  14.128  0.00  0.00    +0.000 OA
ENDBRANCH  20  27
BRANCH  24  28
ATOM     28  O   UNL     1       6.252   6.161  18.850  0.00  0.00    +0.000 OA
ATOM     29  C   UNL     1       7.229   5.612  19.715  0.00  0.00    +0.000 C 
ENDBRANCH  24  28
BRANCH  25  30
ATOM     30  O   UNL     1       7.893   6.533  16.536  0.00  0.00    +0.000 OA
ATOM     31  C   UNL     1       7.809   7.833  17.097  0.00  0.00    +0.000 C 
ENDBRANCH  25  30
ENDBRANCH   1  23
TORSDOF 5
ENDMDL
MODEL 3
REMARK VINA RESULT:      -7.6      4.101     10.073
REMARK  Name = 
REMARK  8 active torsions:
REMARK  status: ('A' for Active; 'I' for Inactive)
REMARK    1  A    between atoms: C_1  and  O_2
REMARK    2  A    between atoms: O_2  and  C_3
REMARK    3  A    between atoms: C_6  and  C_7
REMARK    4  A    between atoms: C_13  and  C_14
REMARK    5  A    between atoms: C_25  and  O_26
REMARK    6  A    between atoms: O_26  and  C_27
REMARK    7  A    between atoms: C_28  and  O_29
REMARK    8  A    between atoms: O_29  and  C_30
REMARK                            x       y       z     vdW  Elec       q    Type
REMARK                         _______ _______ _______ _____ _____    ______ ____
ROOT
ATOM      1  C   UNL     1       0.430  11.955  19.775  0.00  0.00    +0.000 A 
ATOM      2  C   UNL     1       0.999  13.141  19.205  0.00  0.00    +0.000 A 
ATOM      3  C   UNL     1       1.998  13.160  18.234  0.00  0.00    +0.000 A 
ATOM      4  C   UNL     1       2.532  11.970  17.776  0.00  0.00    +0.000 A 
ATOM      5  C   UNL     1       2.054  10.777  18.327  0.00  0.00    +0.000 A 
ATOM      6  N   UNL     1       2.475   9.518  18.039  0.00  0.00    +0.000 NA
ATOM      7  C   UNL     1       1.784   8.753  18.857  0.00  0.00    +0.000 A 
ATOM      8  O   UNL     1       0.851   9.433  19.621  0.00  0.00    +0.000 OA
ATOM      9  C   UNL     1       1.045  10.772  19.296  0.00  0.00    +0.000 A 
ENDROOT
BRANCH   7  10
ATOM     10  C   UNL     1       2.007   7.312  19.045  0.00  0.00    +0.000 A 
ATOM     11  C   UNL     1       1.792   6.778  20.335  0.00  0.00    +0.000 A 
ATOM     12  C   UNL     1       1.861   5.403  20.604  0.00  0.00    +0.000 A 
ATOM     13  C   UNL     1       2.147   4.526  19.545  0.00  0.00    +0.000 A 
ATOM     14  C   UNL     1       2.238   3.112  19.439  0.00  0.00    +0.000 A 
ATOM     15  C   UNL     1       2.539   2.812  18.130  0.00  0.00    +0.000 A 
ATOM     16  N   UNL     1       2.654   3.993  17.445  0.00  0.00    +0.000 N 
ATOM     17  C   UNL     1       2.394   5.061  18.279  0.00  0.00    +0.000 A 
ATOM     18  C   UNL     1       2.345   6.442  18.000  0.00  0.00    +0.000 A 
ATOM     19  H   UNL     1       2.869   4.076  16.461  0.00  0.00    +0.000 HD
ENDBRANCH   7  10
BRANCH   1  23
ATOM     20  C   UNL     1      -2.697  12.082  22.801  0.00  0.00    +0.000 A 
ATOM     21  C   UNL     1      -1.376  11.769  23.095  0.00  0.00    +0.000 A 
ATOM     22  C   UNL     1      -0.399  11.845  22.110  0.00  0.00    +0.000 A 
ATOM     23  C   UNL     1      -0.694  12.116  20.752  0.00  0.00    +0.000 A 
ATOM     24  C   UNL     1      -2.054  12.373  20.438  0.00  0.00    +0.000 A 
ATOM     25  C   UNL     1      -3.062  12.368  21.465  0.00  0.00    +0.000 A 
BRANCH  20  27
ATOM     26  C   UNL     1      -3.927  13.282  24.455  0.00  0.00    +0.000 C 
ATOM     27  O   UNL     1      -3.642  12.048  23.795  0.00  0.00    +0.000 OA
ENDBRANCH  20  27
BRANCH  24  28
ATOM     28  O   UNL     1      -2.267  12.575  19.093  0.00  0.00    +0.000 OA
ATOM     29  C   UNL     1      -2.759  11.533  18.270  0.00  0.00    +0.000 C 
ENDBRANCH  24  28
BRANCH  25  30
ATOM     30  O   UNL     1      -4.347  12.636  21.056  0.00  0.00    +0.000 OA
ATOM     31  C   UNL     1      -4.815  13.966  20.902  0.00  0.00    +0.000 C 
ENDBRANCH  25  30
ENDBRANCH   1  23
TORSDOF 5
ENDMDL
MODEL 4
REMARK VINA RESULT:      -7.5      4.293     10.453
REMARK  Name = 
REMARK  8 active torsions:
REMARK  status: ('A' for Active; 'I' for Inactive)
REMARK    1  A    between atoms: C_1  and  O_2
REMARK    2  A    between atoms: O_2  and  C_3
REMARK    3  A    between atoms: C_6  and  C_7
REMARK    4  A    between atoms: C_13  and  C_14
REMARK    5  A    between atoms: C_25  and  O_26
REMARK    6  A    between atoms: O_26  and  C_27
REMARK    7  A    between atoms: C_28  and  O_29
REMARK    8  A    between atoms: O_29  and  C_30
REMARK                            x       y       z     vdW  Elec       q    Type
REMARK                         _______ _______ _______ _____ _____    ______ ____
ROOT
ATOM      1  C   UNL     1      -0.807  12.859  19.814  0.00  0.00    +0.000 A 
ATOM      2  C   UNL     1      -0.386  14.207  19.570  0.00  0.00    +0.000 A 
ATOM      3  C   UNL     1       0.773  14.570  18.886  0.00  0.00    +0.000 A 
ATOM      4  C   UNL     1       1.626  13.589  18.416  0.00  0.00    +0.000 A 
ATOM      5  C   UNL     1       1.297  12.253  18.664  0.00  0.00    +0.000 A 
ATOM      6  N   UNL     1       2.020  11.156  18.318  0.00  0.00    +0.000 NA
ATOM      7  C   UNL     1       1.342  10.150  18.828  0.00  0.00    +0.000 A 
ATOM      8  O   UNL     1       0.147  10.514  19.426  0.00  0.00    +0.000 OA
ATOM      9  C   UNL     1       0.126  11.903  19.344  0.00  0.00    +0.000 A 
ENDROOT
BRANCH   7  10
ATOM     10  C   UNL     1       1.811   8.758  18.867  0.00  0.00    +0.000 A 
ATOM     11  C   UNL     1       2.561   8.287  17.767  0.00  0.00    +0.000 A 
ATOM     12  C   UNL     1       3.157   7.017  17.746  0.00  0.00    +0.000 A 
ATOM     13  C   UNL     1       3.007   6.188  18.870  0.00  0.00    +0.000 A 
ATOM     14  C   UNL     1       3.503   4.902  19.214  0.00  0.00    +0.000 A 
ATOM     15  C   UNL     1       3.028   4.595  20.469  0.00  0.00    +0.000 A 
ATOM     16  N   UNL     1       2.247   5.640  20.888  0.00  0.00    +0.000 N 
ATOM     17  C   UNL     1       2.235   6.642  19.940  0.00  0.00    +0.000 A 
ATOM     18  C   UNL     1       1.617   7.909  19.965  0.00  0.00    +0.000 A 
ATOM     19  H   UNL     1       1.768   5.688  21.777  0.00  0.00    +0.000 HD
ENDBRANCH   7  10
BRANCH   1  23
ATOM     20  C   UNL     1      -4.766  12.592  21.607  0.00  0.00    +0.000 A 
ATOM     21  C   UNL     1      -4.562  12.934  20.275  0.00  0.00    +0.000 A 
ATOM     22  C   UNL     1      -3.286  12.902  19.728  0.00  0.00    +0.000 A 
ATOM     23  C   UNL     1      -2.124  12.649  20.498  0.00  0.00    +0.000 A 
ATOM     24  C   UNL     1      -2.325  12.364  21.873  0.00  0.00    +0.000 A 
ATOM     25  C   UNL     1      -3.650  12.322  22.433  0.00  0.00    +0.000 A 
BRANCH  20  27
ATOM     26  C   UNL     1      -7.093  12.953  21.231  0.00  0.00    +0.000 C 
ATOM     27  O   UNL     1      -6.038  12.583  22.120  0.00  0.00    +0.000 OA
ENDBRANCH  20  27
BRANCH  24  28
ATOM     28  O   UNL     1      -1.147  12.182  22.562  0.00  0.00    +0.000 OA
ATOM     29  C   UNL     1      -0.712  10.886  22.928  0.00  0.00    +0.000 C 
ENDBRANCH  24  28
BRANCH  25  30
ATOM     30  O   UNL     1      -3.735  12.029  23.772  0.00  0.00    +0.000 OA
ATOM     31  C   UNL     1      -3.857  13.050  24.750  0.00  0.00    +0.000 C 
ENDBRANCH  25  30
ENDBRANCH   1  23
TORSDOF 5
ENDMDL
MODEL 5
REMARK VINA RESULT:      -7.5      4.259     10.463
REMARK  Name = 
REMARK  8 active torsions:
REMARK  status: ('A' for Active; 'I' for Inactive)
REMARK    1  A    between atoms: C_1  and  O_2
REMARK    2  A    between atoms: O_2  and  C_3
REMARK    3  A    between atoms: C_6  and  C_7
REMARK    4  A    between atoms: C_13  and  C_14
REMARK    5  A    between atoms: C_25  and  O_26
REMARK    6  A    between atoms: O_26  and  C_27
REMARK    7  A    between atoms: C_28  and  O_29
REMARK    8  A    between atoms: O_29  and  C_30
REMARK                            x       y       z     vdW  Elec       q    Type
REMARK                         _______ _______ _______ _____ _____    ______ ____
ROOT
ATOM      1  C   UNL     1      -0.811  12.627  19.786  0.00  0.00    +0.000 A 
ATOM      2  C   UNL     1      -0.379  13.946  19.427  0.00  0.00    +0.000 A 
ATOM      3  C   UNL     1       0.785  14.241  18.719  0.00  0.00    +0.000 A 
ATOM      4  C   UNL     1       1.632  13.217  18.338  0.00  0.00    +0.000 A 
ATOM      5  C   UNL     1       1.293  11.910  18.700  0.00  0.00    +0.000 A 
ATOM      6  N   UNL     1       2.009  10.782  18.453  0.00  0.00    +0.000 NA
ATOM      7  C   UNL     1       1.322   9.828  19.046  0.00  0.00    +0.000 A 
ATOM      8  O   UNL     1       0.128  10.251  19.606  0.00  0.00    +0.000 OA
ATOM      9  C   UNL     1       0.117  11.628  19.404  0.00  0.00    +0.000 A 
ENDROOT
BRANCH   7  10
ATOM     10  C   UNL     1       1.781   8.442  19.207  0.00  0.00    +0.000 A 
ATOM     11  C   UNL     1       1.500   7.795  20.431  0.00  0.00    +0.000 A 
ATOM     12  C   UNL     1       1.786   6.440  20.653  0.00  0.00    +0.000 A 
ATOM     13  C   UNL     1       2.367   5.698  19.611  0.00  0.00    +0.000 A 
ATOM     14  C   UNL     1       2.731   4.332  19.463  0.00  0.00    +0.000 A 
ATOM     15  C   UNL     1       3.254   4.176  18.199  0.00  0.00    +0.000 A 
ATOM     16  N   UNL     1       3.237   5.401  17.585  0.00  0.00    +0.000 N 
ATOM     17  C   UNL     1       2.677   6.349  18.415  0.00  0.00    +0.000 A 
ATOM     18  C   UNL     1       2.409   7.715  18.187  0.00  0.00    +0.000 A 
ATOM     19  H   UNL     1       3.562   5.585  16.645  0.00  0.00    +0.000 HD
ENDBRANCH   7  10
BRANCH   1  23
ATOM     20  C   UNL     1      -4.773  12.551  21.589  0.00  0.00    +0.000 A 
ATOM     21  C   UNL     1      -4.563  12.808  20.239  0.00  0.00    +0.000 A 
ATOM     22  C   UNL     1      -3.289  12.717  19.696  0.00  0.00    +0.000 A 
ATOM     23  C   UNL     1      -2.131  12.486  20.480  0.00  0.00    +0.000 A 
ATOM     24  C   UNL     1      -2.337  12.288  21.870  0.00  0.00    +0.000 A 
ATOM     25  C   UNL     1      -3.662  12.308  22.430  0.00  0.00    +0.000 A 
BRANCH  20  27
ATOM     26  C   UNL     1      -7.079  12.006  21.314  0.00  0.00    +0.000 C 
ATOM     27  O   UNL     1      -6.045  12.599  22.101  0.00  0.00    +0.000 OA
ENDBRANCH  20  27
BRANCH  24  28
ATOM     28  O   UNL     1      -1.162  12.124  22.569  0.00  0.00    +0.000 OA
ATOM     29  C   UNL     1      -0.760  10.845  23.022  0.00  0.00    +0.000 C 
ENDBRANCH  24  28
BRANCH  25  30
ATOM     30  O   UNL     1      -3.752  12.098  23.785  0.00  0.00    +0.000 OA
ATOM     31  C   UNL     1      -3.877  13.177  24.698  0.00  0.00    +0.000 C 
ENDBRANCH  25  30
ENDBRANCH   1  23
TORSDOF 5
ENDMDL
MODEL 6
REMARK VINA RESULT:      -7.5      4.188      9.063
REMARK  Name = 
REMARK  8 active torsions:
REMARK  status: ('A' for Active; 'I' for Inactive)
REMARK    1  A    between atoms: C_1  and  O_2
REMARK    2  A    between atoms: O_2  and  C_3
REMARK    3  A    between atoms: C_6  and  C_7
REMARK    4  A    between atoms: C_13  and  C_14
REMARK    5  A    between atoms: C_25  and  O_26
REMARK    6  A    between atoms: O_26  and  C_27
REMARK    7  A    between atoms: C_28  and  O_29
REMARK    8  A    between atoms: O_29  and  C_30
REMARK                            x       y       z     vdW  Elec       q    Type
REMARK                         _______ _______ _______ _____ _____    ______ ____
ROOT
ATOM      1  C   UNL     1       0.379  11.689  21.223  0.00  0.00    +0.000 A 
ATOM      2  C   UNL     1      -0.578  11.834  22.280  0.00  0.00    +0.000 A 
ATOM      3  C   UNL     1      -1.047  10.794  23.081  0.00  0.00    +0.000 A 
ATOM      4  C   UNL     1      -0.605   9.504  22.857  0.00  0.00    +0.000 A 
ATOM      5  C   UNL     1       0.294   9.287  21.808  0.00  0.00    +0.000 A 
ATOM      6  N   UNL     1       0.812   8.096  21.408  0.00  0.00    +0.000 NA
ATOM      7  C   UNL     1       1.537   8.398  20.352  0.00  0.00    +0.000 A 
ATOM      8  O   UNL     1       1.602   9.754  20.076  0.00  0.00    +0.000 OA
ATOM      9  C   UNL     1       0.762  10.342  21.017  0.00  0.00    +0.000 A 
ENDROOT
BRANCH   7  10
ATOM     10  C   UNL     1       2.166   7.415  19.459  0.00  0.00    +0.000 A 
ATOM     11  C   UNL     1       2.714   7.887  18.246  0.00  0.00    +0.000 A 
ATOM     12  C   UNL     1       3.439   7.063  17.373  0.00  0.00    +0.000 A 
ATOM     13  C   UNL     1       3.633   5.717  17.728  0.00  0.00    +0.000 A 
ATOM     14  C   UNL     1       4.341   4.638  17.134  0.00  0.00    +0.000 A 
ATOM     15  C   UNL     1       4.186   3.540  17.949  0.00  0.00    +0.000 A 
ATOM     16  N   UNL     1       3.394   3.911  19.004  0.00  0.00    +0.000 N 
ATOM     17  C   UNL     1       3.059   5.246  18.910  0.00  0.00    +0.000 A 
ATOM     18  C   UNL     1       2.314   6.061  19.786  0.00  0.00    +0.000 A 
ATOM     19  H   UNL     1       3.115   3.304  19.763  0.00  0.00    +0.000 HD
ENDBRANCH   7  10
BRANCH   1  23
ATOM     20  C   UNL     1       1.863  15.411  19.522  0.00  0.00    +0.000 A 
ATOM     21  C   UNL     1       2.608  14.634  20.400  0.00  0.00    +0.000 A 
ATOM     22  C   UNL     1       2.128  13.404  20.831  0.00  0.00    +0.000 A 
ATOM     23  C   UNL     1       0.832  12.929  20.514  0.00  0.00    +0.000 A 
ATOM     24  C   UNL     1       0.045  13.753  19.668  0.00  0.00    +0.000 A 
ATOM     25  C   UNL     1       0.562  14.994  19.158  0.00  0.00    +0.000 A 
BRANCH  20  27
ATOM     26  C   UNL     1       3.308  16.535  17.992  0.00  0.00    +0.000 C 
ATOM     27  O   UNL     1       2.371  16.602  19.068  0.00  0.00    +0.000 OA
ENDBRANCH  20  27
BRANCH  24  28
ATOM     28  O   UNL     1      -1.218  13.248  19.451  0.00  0.00    +0.000 OA
ATOM     29  C   UNL     1      -1.464  12.335  18.397  0.00  0.00    +0.000 C 
ENDBRANCH  24  28
BRANCH  25  30
ATOM     30  O   UNL     1      -0.279  15.713  18.342  0.00  0.00    +0.000 OA
ATOM     31  C   UNL     1      -0.987  16.846  18.818  0.00  0.00    +0.000 C 
ENDBRANCH  25  30
ENDBRANCH   1  23
TORSDOF 5
ENDMDL
MODEL 7
REMARK VINA RESULT:      -7.4      4.936     11.070
REMARK  Name = 
REMARK  8 active torsions:
REMARK  status: ('A' for Active; 'I' for Inactive)
REMARK    1  A    between atoms: C_1  and  O_2
REMARK    2  A    between atoms: O_2  and  C_3
REMARK    3  A    between atoms: C_6  and  C_7
REMARK    4  A    between atoms: C_13  and  C_14
REMARK    5  A    between atoms: C_25  and  O_26
REMARK    6  A    between atoms: O_26  and  C_27
REMARK    7  A    between atoms: C_28  and  O_29
REMARK    8  A    between atoms: O_29  and  C_30
REMARK                            x       y       z     vdW  Elec       q    Type
REMARK                         _______ _______ _______ _____ _____    ______ ____
ROOT
ATOM      1  C   UNL     1      -1.955  13.140  20.260  0.00  0.00    +0.000 A 
ATOM      2  C   UNL     1      -1.634  14.518  20.488  0.00  0.00    +0.000 A 
ATOM      3  C   UNL     1      -0.384  15.094  20.266  0.00  0.00    +0.000 A 
ATOM      4  C   UNL     1       0.662  14.309  19.821  0.00  0.00    +0.000 A 
ATOM      5  C   UNL     1       0.428  12.944  19.625  0.00  0.00    +0.000 A 
ATOM      6  N   UNL     1       1.330  12.008  19.230  0.00  0.00    +0.000 NA
ATOM      7  C   UNL     1       0.656  10.878  19.263  0.00  0.00    +0.000 A 
ATOM      8  O   UNL     1      -0.685  11.024  19.577  0.00  0.00    +0.000 OA
ATOM      9  C   UNL     1      -0.834  12.382  19.843  0.00  0.00    +0.000 A 
ENDROOT
BRANCH   7  10
ATOM     10  C   UNL     1       1.248   9.545  19.080  0.00  0.00    +0.000 A 
ATOM     11  C   UNL     1       1.872   9.268  17.844  0.00  0.00    +0.000 A 
ATOM     12  C   UNL     1       2.569   8.075  17.600  0.00  0.00    +0.000 A 
ATOM     13  C   UNL     1       2.655   7.126  18.632  0.00  0.00    +0.000 A 
ATOM     14  C   UNL     1       3.307   5.870  18.759  0.00  0.00    +0.000 A 
ATOM     15  C   UNL     1       3.045   5.391  20.022  0.00  0.00    +0.000 A 
ATOM     16  N   UNL     1       2.243   6.302  20.657  0.00  0.00    +0.000 N 
ATOM     17  C   UNL     1       2.006   7.388  19.840  0.00  0.00    +0.000 A 
ATOM     18  C   UNL     1       1.288   8.575  20.091  0.00  0.00    +0.000 A 
ATOM     19  H   UNL     1       1.894   6.210  21.602  0.00  0.00    +0.000 HD
ENDBRANCH   7  10
BRANCH   1  23
ATOM     20  C   UNL     1      -6.174  12.104  20.553  0.00  0.00    +0.000 A 
ATOM     21  C   UNL     1      -5.491  12.152  19.343  0.00  0.00    +0.000 A 
ATOM     22  C   UNL     1      -4.123  12.386  19.317  0.00  0.00    +0.000 A 
ATOM     23  C   UNL     1      -3.373  12.706  20.476  0.00  0.00    +0.000 A 
ATOM     24  C   UNL     1      -4.082  12.721  21.705  0.00  0.00    +0.000 A 
ATOM     25  C   UNL     1      -5.486  12.409  21.751  0.00  0.00    +0.000 A 
BRANCH  20  27
ATOM     26  C   UNL     1      -7.892  10.473  20.827  0.00  0.00    +0.000 C 
ATOM     27  O   UNL     1      -7.517  11.826  20.566  0.00  0.00    +0.000 OA
ENDBRANCH  20  27
BRANCH  24  28
ATOM     28  O   UNL     1      -3.297  13.092  22.773  0.00  0.00    +0.000 OA
ATOM     29  C   UNL     1      -2.657  12.119  23.577  0.00  0.00    +0.000 C 
ENDBRANCH  24  28
BRANCH  25  30
ATOM     30  O   UNL     1      -6.076  12.445  22.991  0.00  0.00    +0.000 OA
ATOM     31  C   UNL     1      -6.628  13.641  23.517  0.00  0.00    +0.000 C 
ENDBRANCH  25  30
ENDBRANCH   1  23
TORSDOF 5
ENDMDL
MODEL 8
REMARK VINA RESULT:      -7.4      3.937     10.056
REMARK  Name = 
REMARK  8 active torsions:
REMARK  status: ('A' for Active; 'I' for Inactive)
REMARK    1  A    between atoms: C_1  and  O_2
REMARK    2  A    between atoms: O_2  and  C_3
REMARK    3  A    between atoms: C_6  and  C_7
REMARK    4  A    between atoms: C_13  and  C_14
REMARK    5  A    between atoms: C_25  and  O_26
REMARK    6  A    between atoms: O_26  and  C_27
REMARK    7  A    between atoms: C_28  and  O_29
REMARK    8  A    between atoms: O_29  and  C_30
REMARK                            x       y       z     vdW  Elec       q    Type
REMARK                         _______ _______ _______ _____ _____    ______ ____
ROOT
ATOM      1  C   UNL     1       0.323  12.172  19.815  0.00  0.00    +0.000 A 
ATOM      2  C   UNL     1       0.883  13.384  19.293  0.00  0.00    +0.000 A 
ATOM      3  C   UNL     1       1.901  13.449  18.344  0.00  0.00    +0.000 A 
ATOM      4  C   UNL     1       2.463  12.282  17.861  0.00  0.00    +0.000 A 
ATOM      5  C   UNL     1       1.994  11.065  18.366  0.00  0.00    +0.000 A 
ATOM      6  N   UNL     1       2.441   9.822  18.048  0.00  0.00    +0.000 NA
ATOM      7  C   UNL     1       1.746   9.021  18.828  0.00  0.00    +0.000 A 
ATOM      8  O   UNL     1       0.788   9.663  19.594  0.00  0.00    +0.000 OA
ATOM      9  C   UNL     1       0.966  11.015  19.313  0.00  0.00    +0.000 A 
ENDROOT
BRANCH   7  10
ATOM     10  C   UNL     1       1.990   7.579  18.977  0.00  0.00    +0.000 A 
ATOM     11  C   UNL     1       2.457   6.872  17.847  0.00  0.00    +0.000 A 
ATOM     12  C   UNL     1       2.833   5.522  17.903  0.00  0.00    +0.000 A 
ATOM     13  C   UNL     1       2.747   4.853  19.135  0.00  0.00    +0.000 A 
ATOM     14  C   UNL     1       3.086   3.542  19.566  0.00  0.00    +0.000 A 
ATOM     15  C   UNL     1       2.790   3.455  20.907  0.00  0.00    +0.000 A 
ATOM     16  N   UNL     1       2.267   4.659  21.299  0.00  0.00    +0.000 N 
ATOM     17  C   UNL     1       2.251   5.545  20.241  0.00  0.00    +0.000 A 
ATOM     18  C   UNL     1       1.854   6.897  20.193  0.00  0.00    +0.000 A 
ATOM     19  H   UNL     1       1.961   4.883  22.236  0.00  0.00    +0.000 HD
ENDBRANCH   7  10
BRANCH   1  23
ATOM     20  C   UNL     1      -2.844  12.180  22.803  0.00  0.00    +0.000 A 
ATOM     21  C   UNL     1      -1.506  11.981  23.122  0.00  0.00    +0.000 A 
ATOM     22  C   UNL     1      -0.526  12.092  22.145  0.00  0.00    +0.000 A 
ATOM     23  C   UNL     1      -0.823  12.286  20.774  0.00  0.00    +0.000 A 
ATOM     24  C   UNL     1      -2.195  12.424  20.437  0.00  0.00    +0.000 A 
ATOM     25  C   UNL     1      -3.212  12.383  21.453  0.00  0.00    +0.000 A 
BRANCH  20  27
ATOM     26  C   UNL     1      -3.956  13.272  24.608  0.00  0.00    +0.000 C 
ATOM     27  O   UNL     1      -3.796  12.113  23.789  0.00  0.00    +0.000 OA
ENDBRANCH  20  27
BRANCH  24  28
ATOM     28  O   UNL     1      -2.404  12.555  19.082  0.00  0.00    +0.000 OA
ATOM     29  C   UNL     1      -2.804  11.445  18.299  0.00  0.00    +0.000 C 
ENDBRANCH  24  28
BRANCH  25  30
ATOM     30  O   UNL     1      -4.508  12.535  21.022  0.00  0.00    +0.000 OA
ATOM     31  C   UNL     1      -5.125  13.810  20.956  0.00  0.00    +0.000 C 
ENDBRANCH  25  30
ENDBRANCH   1  23
TORSDOF 5
ENDMDL
MODEL 9
REMARK VINA RESULT:      -7.4      4.996      9.531
REMARK  Name = 
REMARK  8 active torsions:
REMARK  status: ('A' for Active; 'I' for Inactive)
REMARK    1  A    between atoms: C_1  and  O_2
REMARK    2  A    between atoms: O_2  and  C_3
REMARK    3  A    between atoms: C_6  and  C_7
REMARK    4  A    between atoms: C_13  and  C_14
REMARK    5  A    between atoms: C_25  and  O_26
REMARK    6  A    between atoms: O_26  and  C_27
REMARK    7  A    between atoms: C_28  and  O_29
REMARK    8  A    between atoms: O_29  and  C_30
REMARK                            x       y       z     vdW  Elec       q    Type
REMARK                         _______ _______ _______ _____ _____    ______ ____
ROOT
ATOM      1  C   UNL     1       0.029  13.906  21.074  0.00  0.00    +0.000 A 
ATOM      2  C   UNL     1      -0.922  14.314  22.066  0.00  0.00    +0.000 A 
ATOM      3  C   UNL     1      -1.540  13.461  22.979  0.00  0.00    +0.000 A 
ATOM      4  C   UNL     1      -1.267  12.106  22.943  0.00  0.00    +0.000 A 
ATOM      5  C   UNL     1      -0.384  11.636  21.966  0.00  0.00    +0.000 A 
ATOM      6  N   UNL     1      -0.021  10.345  21.746  0.00  0.00    +0.000 NA
ATOM      7  C   UNL     1       0.759  10.406  20.688  0.00  0.00    +0.000 A 
ATOM      8  O   UNL     1       1.009  11.692  20.239  0.00  0.00    +0.000 OA
ATOM      9  C   UNL     1       0.235  12.505  21.062  0.00  0.00    +0.000 A 
ENDROOT
BRANCH   7  10
ATOM     10  C   UNL     1       1.271   9.239  19.956  0.00  0.00    +0.000 A 
ATOM     11  C   UNL     1       1.476   9.374  18.565  0.00  0.00    +0.000 A 
ATOM     12  C   UNL     1       2.068   8.368  17.787  0.00  0.00    +0.000 A 
ATOM     13  C   UNL     1       2.479   7.185  18.423  0.00  0.00    +0.000 A 
ATOM     14  C   UNL     1       3.146   6.012  17.975  0.00  0.00    +0.000 A 
ATOM     15  C   UNL     1       3.297   5.181  19.062  0.00  0.00    +0.000 A 
ATOM     16  N   UNL     1       2.730   5.800  20.145  0.00  0.00    +0.000 N 
ATOM     17  C   UNL     1       2.242   7.040  19.790  0.00  0.00    +0.000 A 
ATOM     18  C   UNL     1       1.633   8.037  20.579  0.00  0.00    +0.000 A 
ATOM     19  H   UNL     1       2.697   5.418  21.081  0.00  0.00    +0.000 HD
ENDBRANCH   7  10
BRANCH   1  23
ATOM     20  C   UNL     1       1.585  16.887  18.309  0.00  0.00    +0.000 A 
ATOM     21  C   UNL     1       0.227  16.624  18.450  0.00  0.00    +0.000 A 
ATOM     22  C   UNL     1      -0.220  15.738  19.420  0.00  0.00    +0.000 A 
ATOM     23  C   UNL     1       0.656  14.969  20.225  0.00  0.00    +0.000 A 
ATOM     24  C   UNL     1       2.045  15.189  20.038  0.00  0.00    +0.000 A 
ATOM     25  C   UNL     1       2.517  16.159  19.085  0.00  0.00    +0.000 A 
BRANCH  20  27
ATOM     26  C   UNL     1       0.996  18.455  16.611  0.00  0.00    +0.000 C 
ATOM     27  O   UNL     1       2.008  17.800  17.377  0.00  0.00    +0.000 OA
ENDBRANCH  20  27
BRANCH  24  28
ATOM     28  O   UNL     1       2.829  14.368  20.817  0.00  0.00    +0.000 OA
ATOM     29  C   UNL     1       3.350  14.821  22.053  0.00  0.00    +0.000 C 
ENDBRANCH  24  28
BRANCH  25  30
ATOM     30  O   UNL     1       3.880  16.300  18.986  0.00  0.00    +0.000 OA
ATOM     31  C   UNL     1       4.582  17.278  19.735  0.00  0.00    +0.000 C 
ENDBRANCH  25  30
ENDBRANCH   1  23
TORSDOF 5
ENDMDL
