MODEL 1
REMARK VINA RESULT:      -8.0      0.000      0.000
REMARK  Name = 
REMARK  7 active torsions:
REMARK  status: ('A' for Active; 'I' for Inactive)
REMARK    1  A    between atoms: C_1  and  C_2
REMARK    2  A    between atoms: N_6  and  C_7
REMARK    3  A    between atoms: C_7  and  C_8
REMARK    4  A    between atoms: C_7  and  C_9
REMARK    5  A    between atoms: N_11  and  C_12
REMARK    6  A    between atoms: C_12  and  C_13
REMARK    7  A    between atoms: C_16  and  C_17
REMARK                            x       y       z     vdW  Elec       q    Type
REMARK                         _______ _______ _______ _____ _____    ______ ____
ROOT
ATOM      1  C   UNL     1       4.049   6.189  18.072  0.00  0.00    +0.000 C 
ATOM      2  O   UNL     1       4.596   7.154  17.541  0.00  0.00    +0.000 OA
ATOM      3  N   UNL     1       4.718   4.997  18.296  0.00  0.00    +0.000 N 
ATOM      4  H   UNL     1       4.382   4.376  19.023  0.00  0.00    +0.000 HD
ENDROOT
BRANCH   1   5
ATOM      5  C   UNL     1       2.560   6.174  18.454  0.00  0.00    +0.000 C 
ATOM      6  C   UNL     1       2.251   7.305  19.438  0.00  0.00    +0.000 C 
BRANCH   5  12
ATOM      7  C   UNL     1       1.350   2.660  21.581  0.00  0.00    +0.000 C 
ATOM      8  C   UNL     1       1.985   2.899  20.221  0.00  0.00    +0.000 C 
ATOM      9  C   UNL     1       0.993   2.849  19.068  0.00  0.00    +0.000 C 
ATOM     10  C   UNL     1       1.433   3.980  18.188  0.00  0.00    +0.000 C 
ATOM     11  O   UNL     1       1.126   4.113  17.010  0.00  0.00    +0.000 OA
ATOM     12  N   UNL     1       2.156   4.857  18.945  0.00  0.00    +0.000 N 
ATOM     13  C   UNL     1       2.561   4.292  20.123  0.00  0.00    +0.000 C 
ATOM     14  O   UNL     1       3.291   4.785  20.968  0.00  0.00    +0.000 OA
ENDBRANCH   5  12
ENDBRANCH   1   5
BRANCH   3  15
ATOM     15  C   UNL     1       6.104   4.867  17.895  0.00  0.00    +0.000 C 
BRANCH  15  16
ATOM     16  C   UNL     1       6.243   4.546  16.428  0.00  0.00    +0.000 A 
ATOM     17  C   UNL     1       5.326   3.686  15.808  0.00  0.00    +0.000 A 
ATOM     18  C   UNL     1       5.407   3.419  14.439  0.00  0.00    +0.000 A 
ATOM     19  C   UNL     1       6.405   4.013  13.656  0.00  0.00    +0.000 A 
ATOM     20  C   UNL     1       7.317   4.884  14.272  0.00  0.00    +0.000 A 
ATOM     21  C   UNL     1       7.236   5.148  15.645  0.00  0.00    +0.000 A 
BRANCH  19  22
ATOM     22  C   UNL     1       6.501   3.733  12.176  0.00  0.00    +0.000 C 
ATOM     23  F   UNL     1       7.082   2.534  11.886  0.00  0.00    +0.000 F 
ATOM     24  F   UNL     1       5.284   3.715  11.564  0.00  0.00    +0.000 F 
ATOM     25  F   UNL     1       7.238   4.670  11.516  0.00  0.00    +0.000 F 
ENDBRANCH  19  22
ENDBRANCH  15  16
ENDBRANCH   3  15
TORSDOF 5
ENDMDL
MODEL 2
REMARK VINA RESULT:      -7.9      5.449      7.334
REMARK  Name = 
REMARK  7 active torsions:
REMARK  status: ('A' for Active; 'I' for Inactive)
REMARK    1  A    between atoms: C_1  and  C_2
REMARK    2  A    between atoms: N_6  and  C_7
REMARK    3  A    between atoms: C_7  and  C_8
REMARK    4  A    between atoms: C_7  and  C_9
REMARK    5  A    between atoms: N_11  and  C_12
REMARK    6  A    between atoms: C_12  and  C_13
REMARK    7  A    between atoms: C_16  and  C_17
REMARK                            x       y       z     vdW  Elec       q    Type
REMARK                         _______ _______ _______ _____ _____    ______ ____
ROOT
ATOM      1  C   UNL     1       4.330   5.514  18.004  0.00  0.00    +0.000 C 
ATOM      2  O   UNL     1       5.309   6.103  18.459  0.00  0.00    +0.000 OA
ATOM      3  N   UNL     1       3.195   6.189  17.586  0.00  0.00    +0.000 N 
ATOM      4  H   UNL     1       2.581   5.745  16.914  0.00  0.00    +0.000 HD
ENDROOT
BRANCH   1   5
ATOM      5  C   UNL     1       4.230   3.982  17.937  0.00  0.00    +0.000 C 
ATOM      6  C   UNL     1       4.184   3.514  16.480  0.00  0.00    +0.000 C 
BRANCH   5  12
ATOM      7  C   UNL     1       1.649   2.653  21.832  0.00  0.00    +0.000 C 
ATOM      8  C   UNL     1       1.820   2.380  20.346  0.00  0.00    +0.000 C 
ATOM      9  C   UNL     1       0.915   3.226  19.463  0.00  0.00    +0.000 C 
ATOM     10  C   UNL     1       1.808   3.605  18.321  0.00  0.00    +0.000 C 
ATOM     11  O   UNL     1       1.420   4.012  17.232  0.00  0.00    +0.000 OA
ATOM     12  N   UNL     1       3.105   3.492  18.734  0.00  0.00    +0.000 N 
ATOM     13  C   UNL     1       3.207   2.750  19.878  0.00  0.00    +0.000 C 
ATOM     14  O   UNL     1       4.230   2.397  20.443  0.00  0.00    +0.000 OA
ENDBRANCH   5  12
ENDBRANCH   1   5
BRANCH   3  15
ATOM     15  C   UNL     1       3.143   7.633  17.686  0.00  0.00    +0.000 C 
BRANCH  15  16
ATOM     16  C   UNL     1       2.235   8.093  18.799  0.00  0.00    +0.000 A 
ATOM     17  C   UNL     1       2.138   7.343  19.980  0.00  0.00    +0.000 A 
ATOM     18  C   UNL     1       1.345   7.781  21.043  0.00  0.00    +0.000 A 
ATOM     19  C   UNL     1       0.633   8.985  20.952  0.00  0.00    +0.000 A 
ATOM     20  C   UNL     1       0.738   9.743  19.775  0.00  0.00    +0.000 A 
ATOM     21  C   UNL     1       1.532   9.301  18.710  0.00  0.00    +0.000 A 
BRANCH  19  22
ATOM     22  C   UNL     1      -0.226   9.468  22.095  0.00  0.00    +0.000 C 
ATOM     23  F   UNL     1       0.491   9.898  23.171  0.00  0.00    +0.000 F 
ATOM     24  F   UNL     1      -1.032  10.509  21.745  0.00  0.00    +0.000 F 
ATOM     25  F   UNL     1      -1.055   8.496  22.569  0.00  0.00    +0.000 F 
ENDBRANCH  19  22
ENDBRANCH  15  16
ENDBRANCH   3  15
TORSDOF 5
ENDMDL
MODEL 3
REMARK VINA RESULT:      -7.8      4.370      7.407
REMARK  Name = 
REMARK  7 active torsions:
REMARK  status: ('A' for Active; 'I' for Inactive)
REMARK    1  A    between atoms: C_1  and  C_2
REMARK    2  A    between atoms: N_6  and  C_7
REMARK    3  A    between atoms: C_7  and  C_8
REMARK    4  A    between atoms: C_7  and  C_9
REMARK    5  A    between atoms: N_11  and  C_12
REMARK    6  A    between atoms: C_12  and  C_13
REMARK    7  A    between atoms: C_16  and  C_17
REMARK                            x       y       z     vdW  Elec       q    Type
REMARK                         _______ _______ _______ _____ _____    ______ ____
ROOT
ATOM      1  C   UNL     1       6.983   5.306  16.572  0.00  0.00    +0.000 C 
ATOM      2  O   UNL     1       7.733   4.335  16.646  0.00  0.00    +0.000 OA
ATOM      3  N   UNL     1       6.248   5.752  17.658  0.00  0.00    +0.000 N 
ATOM      4  H   UNL     1       5.936   6.715  17.676  0.00  0.00    +0.000 HD
ENDROOT
BRANCH   1   5
ATOM      5  C   UNL     1       6.717   6.062  15.260  0.00  0.00    +0.000 C 
ATOM      6  C   UNL     1       5.422   6.872  15.366  0.00  0.00    +0.000 C 
BRANCH   5  12
ATOM      7  C   UNL     1       5.076   3.090  11.786  0.00  0.00    +0.000 C 
ATOM      8  C   UNL     1       6.282   3.364  12.669  0.00  0.00    +0.000 C 
ATOM      9  C   UNL     1       7.305   4.293  12.032  0.00  0.00    +0.000 C 
ATOM     10  C   UNL     1       7.719   5.178  13.170  0.00  0.00    +0.000 C 
ATOM     11  O   UNL     1       8.739   5.856  13.196  0.00  0.00    +0.000 OA
ATOM     12  N   UNL     1       6.733   5.152  14.115  0.00  0.00    +0.000 N 
ATOM     13  C   UNL     1       5.883   4.097  13.928  0.00  0.00    +0.000 C 
ATOM     14  O   UNL     1       4.962   3.751  14.651  0.00  0.00    +0.000 OA
ENDBRANCH   5  12
ENDBRANCH   1   5
BRANCH   3  15
ATOM     15  C   UNL     1       6.353   5.059  18.926  0.00  0.00    +0.000 C 
BRANCH  15  16
ATOM     16  C   UNL     1       5.021   4.533  19.398  0.00  0.00    +0.000 A 
ATOM     17  C   UNL     1       3.969   5.421  19.663  0.00  0.00    +0.000 A 
ATOM     18  C   UNL     1       2.712   4.949  20.049  0.00  0.00    +0.000 A 
ATOM     19  C   UNL     1       2.476   3.573  20.172  0.00  0.00    +0.000 A 
ATOM     20  C   UNL     1       3.524   2.681  19.896  0.00  0.00    +0.000 A 
ATOM     21  C   UNL     1       4.784   3.157  19.512  0.00  0.00    +0.000 A 
BRANCH  19  22
ATOM     22  C   UNL     1       1.122   3.052  20.588  0.00  0.00    +0.000 C 
ATOM     23  F   UNL     1       0.115   3.954  20.413  0.00  0.00    +0.000 F 
ATOM     24  F   UNL     1       0.750   1.941  19.893  0.00  0.00    +0.000 F 
ATOM     25  F   UNL     1       1.080   2.702  21.904  0.00  0.00    +0.000 F 
ENDBRANCH  19  22
ENDBRANCH  15  16
ENDBRANCH   3  15
TORSDOF 5
ENDMDL
MODEL 4
REMARK VINA RESULT:      -7.8      5.400      7.202
REMARK  Name = 
REMARK  7 active torsions:
REMARK  status: ('A' for Active; 'I' for Inactive)
REMARK    1  A    between atoms: C_1  and  C_2
REMARK    2  A    between atoms: N_6  and  C_7
REMARK    3  A    between atoms: C_7  and  C_8
REMARK    4  A    between atoms: C_7  and  C_9
REMARK    5  A    between atoms: N_11  and  C_12
REMARK    6  A    between atoms: C_12  and  C_13
REMARK    7  A    between atoms: C_16  and  C_17
REMARK                            x       y       z     vdW  Elec       q    Type
REMARK                         _______ _______ _______ _____ _____    ______ ____
ROOT
ATOM      1  C   UNL     1       4.352   5.300  18.090  0.00  0.00    +0.000 C 
ATOM      2  O   UNL     1       5.272   5.862  18.682  0.00  0.00    +0.000 OA
ATOM      3  N   UNL     1       3.326   6.008  17.485  0.00  0.00    +0.000 N 
ATOM      4  H   UNL     1       2.806   5.571  16.733  0.00  0.00    +0.000 HD
ENDROOT
BRANCH   1   5
ATOM      5  C   UNL     1       4.198   3.772  18.038  0.00  0.00    +0.000 C 
ATOM      6  C   UNL     1       4.139   3.291  16.585  0.00  0.00    +0.000 C 
BRANCH   5  12
ATOM      7  C   UNL     1       1.560   2.586  21.940  0.00  0.00    +0.000 C 
ATOM      8  C   UNL     1       1.728   2.285  20.460  0.00  0.00    +0.000 C 
ATOM      9  C   UNL     1       0.854   3.144  19.560  0.00  0.00    +0.000 C 
ATOM     10  C   UNL     1       1.764   3.477  18.415  0.00  0.00    +0.000 C 
ATOM     11  O   UNL     1       1.394   3.879  17.319  0.00  0.00    +0.000 OA
ATOM     12  N   UNL     1       3.054   3.330  18.836  0.00  0.00    +0.000 N 
ATOM     13  C   UNL     1       3.129   2.604  19.992  0.00  0.00    +0.000 C 
ATOM     14  O   UNL     1       4.138   2.228  20.568  0.00  0.00    +0.000 OA
ENDBRANCH   5  12
ENDBRANCH   1   5
BRANCH   3  15
ATOM     15  C   UNL     1       3.321   7.455  17.547  0.00  0.00    +0.000 C 
BRANCH  15  16
ATOM     16  C   UNL     1       2.459   7.973  18.671  0.00  0.00    +0.000 A 
ATOM     17  C   UNL     1       1.795   9.201  18.537  0.00  0.00    +0.000 A 
ATOM     18  C   UNL     1       0.949   9.671  19.545  0.00  0.00    +0.000 A 
ATOM     19  C   UNL     1       0.743   8.919  20.709  0.00  0.00    +0.000 A 
ATOM     20  C   UNL     1       1.397   7.684  20.840  0.00  0.00    +0.000 A 
ATOM     21  C   UNL     1       2.246   7.216  19.830  0.00  0.00    +0.000 A 
BRANCH  19  22
ATOM     22  C   UNL     1      -0.169   9.417  21.804  0.00  0.00    +0.000 C 
ATOM     23  F   UNL     1      -1.007   8.459  22.292  0.00  0.00    +0.000 F 
ATOM     24  F   UNL     1       0.513   9.897  22.880  0.00  0.00    +0.000 F 
ATOM     25  F   UNL     1      -0.975  10.434  21.387  0.00  0.00    +0.000 F 
ENDBRANCH  19  22
ENDBRANCH  15  16
ENDBRANCH   3  15
TORSDOF 5
ENDMDL
MODEL 5
REMARK VINA RESULT:      -7.8      0.750      1.616
REMARK  Name = 
REMARK  7 active torsions:
REMARK  status: ('A' for Active; 'I' for Inactive)
REMARK    1  A    between atoms: C_1  and  C_2
REMARK    2  A    between atoms: N_6  and  C_7
REMARK    3  A    between atoms: C_7  and  C_8
REMARK    4  A    between atoms: C_7  and  C_9
REMARK    5  A    between atoms: N_11  and  C_12
REMARK    6  A    between atoms: C_12  and  C_13
REMARK    7  A    between atoms: C_16  and  C_17
REMARK                            x       y       z     vdW  Elec       q    Type
REMARK                         _______ _______ _______ _____ _____    ______ ____
ROOT
ATOM      1  C   UNL     1       3.986   6.440  17.854  0.00  0.00    +0.000 C 
ATOM      2  O   UNL     1       4.611   7.297  17.232  0.00  0.00    +0.000 OA
ATOM      3  N   UNL     1       4.564   5.241  18.237  0.00  0.00    +0.000 N 
ATOM      4  H   UNL     1       4.169   4.734  19.019  0.00  0.00    +0.000 HD
ENDROOT
BRANCH   1   5
ATOM      5  C   UNL     1       2.491   6.569  18.188  0.00  0.00    +0.000 C 
ATOM      6  C   UNL     1       2.216   7.897  18.898  0.00  0.00    +0.000 C 
BRANCH   5  12
ATOM      7  C   UNL     1       1.780   1.922  19.409  0.00  0.00    +0.000 C 
ATOM      8  C   UNL     1       1.150   3.303  19.495  0.00  0.00    +0.000 C 
ATOM      9  C   UNL     1       1.511   4.060  20.763  0.00  0.00    +0.000 C 
ATOM     10  C   UNL     1       1.738   5.459  20.274  0.00  0.00    +0.000 C 
ATOM     11  O   UNL     1       1.739   6.458  20.983  0.00  0.00    +0.000 OA
ATOM     12  N   UNL     1       2.016   5.407  18.938  0.00  0.00    +0.000 N 
ATOM     13  C   UNL     1       1.657   4.205  18.394  0.00  0.00    +0.000 C 
ATOM     14  O   UNL     1       1.695   3.883  17.217  0.00  0.00    +0.000 OA
ENDBRANCH   5  12
ENDBRANCH   1   5
BRANCH   3  15
ATOM     15  C   UNL     1       5.947   4.973  17.898  0.00  0.00    +0.000 C 
BRANCH  15  16
ATOM     16  C   UNL     1       6.115   4.610  16.443  0.00  0.00    +0.000 A 
ATOM     17  C   UNL     1       5.159   3.806  15.806  0.00  0.00    +0.000 A 
ATOM     18  C   UNL     1       5.270   3.503  14.447  0.00  0.00    +0.000 A 
ATOM     19  C   UNL     1       6.338   4.005  13.690  0.00  0.00    +0.000 A 
ATOM     20  C   UNL     1       7.289   4.820  14.323  0.00  0.00    +0.000 A 
ATOM     21  C   UNL     1       7.178   5.119  15.687  0.00  0.00    +0.000 A 
BRANCH  19  22
ATOM     22  C   UNL     1       6.466   3.685  12.220  0.00  0.00    +0.000 C 
ATOM     23  F   UNL     1       7.004   2.456  11.976  0.00  0.00    +0.000 F 
ATOM     24  F   UNL     1       5.269   3.703  11.572  0.00  0.00    +0.000 F 
ATOM     25  F   UNL     1       7.262   4.574  11.563  0.00  0.00    +0.000 F 
ENDBRANCH  19  22
ENDBRANCH  15  16
ENDBRANCH   3  15
TORSDOF 5
ENDMDL
MODEL 6
REMARK VINA RESULT:      -7.7      5.286      8.176
REMARK  Name = 
REMARK  7 active torsions:
REMARK  status: ('A' for Active; 'I' for Inactive)
REMARK    1  A    between atoms: C_1  and  C_2
REMARK    2  A    between atoms: N_6  and  C_7
REMARK    3  A    between atoms: C_7  and  C_8
REMARK    4  A    between atoms: C_7  and  C_9
REMARK    5  A    between atoms: N_11  and  C_12
REMARK    6  A    between atoms: C_12  and  C_13
REMARK    7  A    between atoms: C_16  and  C_17
REMARK                            x       y       z     vdW  Elec       q    Type
REMARK                         _______ _______ _______ _____ _____    ______ ____
ROOT
ATOM      1  C   UNL     1       2.857   5.503  18.658  0.00  0.00    +0.000 C 
ATOM      2  O   UNL     1       2.058   4.723  19.171  0.00  0.00    +0.000 OA
ATOM      3  N   UNL     1       2.951   6.827  19.055  0.00  0.00    +0.000 N 
ATOM      4  H   UNL     1       3.815   7.328  18.887  0.00  0.00    +0.000 HD
ENDROOT
BRANCH   1   5
ATOM      5  C   UNL     1       3.761   5.120  17.474  0.00  0.00    +0.000 C 
ATOM      6  C   UNL     1       3.604   3.633  17.144  0.00  0.00    +0.000 C 
BRANCH   5  12
ATOM      7  C   UNL     1       7.761   7.873  17.592  0.00  0.00    +0.000 C 
ATOM      8  C   UNL     1       7.291   6.431  17.492  0.00  0.00    +0.000 C 
ATOM      9  C   UNL     1       7.174   5.733  18.839  0.00  0.00    +0.000 C 
ATOM     10  C   UNL     1       5.906   4.945  18.708  0.00  0.00    +0.000 C 
ATOM     11  O   UNL     1       5.590   4.000  19.421  0.00  0.00    +0.000 OA
ATOM     12  N   UNL     1       5.148   5.511  17.723  0.00  0.00    +0.000 N 
ATOM     13  C   UNL     1       5.888   6.350  16.937  0.00  0.00    +0.000 C 
ATOM     14  O   UNL     1       5.524   6.933  15.927  0.00  0.00    +0.000 OA
ENDBRANCH   5  12
ENDBRANCH   1   5
BRANCH   3  15
ATOM     15  C   UNL     1       2.085   7.323  20.104  0.00  0.00    +0.000 C 
BRANCH  15  16
ATOM     16  C   UNL     1       1.360   8.581  19.694  0.00  0.00    +0.000 A 
ATOM     17  C   UNL     1       0.517   9.233  20.605  0.00  0.00    +0.000 A 
ATOM     18  C   UNL     1      -0.121  10.427  20.262  0.00  0.00    +0.000 A 
ATOM     19  C   UNL     1       0.074  11.002  18.999  0.00  0.00    +0.000 A 
ATOM     20  C   UNL     1       0.927  10.356  18.089  0.00  0.00    +0.000 A 
ATOM     21  C   UNL     1       1.563   9.158  18.435  0.00  0.00    +0.000 A 
BRANCH  19  22
ATOM     22  C   UNL     1      -0.609  12.292  18.618  0.00  0.00    +0.000 C 
ATOM     23  F   UNL     1      -1.327  12.849  19.635  0.00  0.00    +0.000 F 
ATOM     24  F   UNL     1       0.267  13.252  18.212  0.00  0.00    +0.000 F 
ATOM     25  F   UNL     1      -1.490  12.131  17.590  0.00  0.00    +0.000 F 
ENDBRANCH  19  22
ENDBRANCH  15  16
ENDBRANCH   3  15
TORSDOF 5
ENDMDL
MODEL 7
REMARK VINA RESULT:      -7.7      4.986      7.813
REMARK  Name = 
REMARK  7 active torsions:
REMARK  status: ('A' for Active; 'I' for Inactive)
REMARK    1  A    between atoms: C_1  and  C_2
REMARK    2  A    between atoms: N_6  and  C_7
REMARK    3  A    between atoms: C_7  and  C_8
REMARK    4  A    between atoms: C_7  and  C_9
REMARK    5  A    between atoms: N_11  and  C_12
REMARK    6  A    between atoms: C_12  and  C_13
REMARK    7  A    between atoms: C_16  and  C_17
REMARK                            x       y       z     vdW  Elec       q    Type
REMARK                         _______ _______ _______ _____ _____    ______ ____
ROOT
ATOM      1  C   UNL     1       3.014   5.149  18.091  0.00  0.00    +0.000 C 
ATOM      2  O   UNL     1       1.884   4.671  18.021  0.00  0.00    +0.000 OA
ATOM      3  N   UNL     1       3.356   6.092  19.045  0.00  0.00    +0.000 N 
ATOM      4  H   UNL     1       4.330   6.195  19.305  0.00  0.00    +0.000 HD
ENDROOT
BRANCH   1   5
ATOM      5  C   UNL     1       4.126   4.821  17.081  0.00  0.00    +0.000 C 
ATOM      6  C   UNL     1       4.191   3.312  16.831  0.00  0.00    +0.000 C 
BRANCH   5  12
ATOM      7  C   UNL     1       7.694   8.065  17.666  0.00  0.00    +0.000 C 
ATOM      8  C   UNL     1       7.427   6.574  17.541  0.00  0.00    +0.000 C 
ATOM      9  C   UNL     1       7.215   5.879  18.878  0.00  0.00    +0.000 C 
ATOM     10  C   UNL     1       6.086   4.934  18.598  0.00  0.00    +0.000 C 
ATOM     11  O   UNL     1       5.797   3.963  19.287  0.00  0.00    +0.000 OA
ATOM     12  N   UNL     1       5.406   5.389  17.504  0.00  0.00    +0.000 N 
ATOM     13  C   UNL     1       6.135   6.309  16.803  0.00  0.00    +0.000 C 
ATOM     14  O   UNL     1       5.843   6.831  15.739  0.00  0.00    +0.000 OA
ENDBRANCH   5  12
ENDBRANCH   1   5
BRANCH   3  15
ATOM     15  C   UNL     1       2.361   6.542  19.996  0.00  0.00    +0.000 C 
BRANCH  15  16
ATOM     16  C   UNL     1       1.849   7.923  19.672  0.00  0.00    +0.000 A 
ATOM     17  C   UNL     1       1.191   8.677  20.655  0.00  0.00    +0.000 A 
ATOM     18  C   UNL     1       0.758   9.978  20.389  0.00  0.00    +0.000 A 
ATOM     19  C   UNL     1       0.979  10.560  19.134  0.00  0.00    +0.000 A 
ATOM     20  C   UNL     1       1.648   9.812  18.152  0.00  0.00    +0.000 A 
ATOM     21  C   UNL     1       2.079   8.507  18.420  0.00  0.00    +0.000 A 
BRANCH  19  22
ATOM     22  C   UNL     1       0.516  11.965  18.836  0.00  0.00    +0.000 C 
ATOM     23  F   UNL     1      -0.632  12.016  18.102  0.00  0.00    +0.000 F 
ATOM     24  F   UNL     1       0.268  12.687  19.964  0.00  0.00    +0.000 F 
ATOM     25  F   UNL     1       1.438  12.678  18.130  0.00  0.00    +0.000 F 
ENDBRANCH  19  22
ENDBRANCH  15  16
ENDBRANCH   3  15
TORSDOF 5
ENDMDL
MODEL 8
REMARK VINA RESULT:      -7.7      5.173      6.846
REMARK  Name = 
REMARK  7 active torsions:
REMARK  status: ('A' for Active; 'I' for Inactive)
REMARK    1  A    between atoms: C_1  and  C_2
REMARK    2  A    between atoms: N_6  and  C_7
REMARK    3  A    between atoms: C_7  and  C_8
REMARK    4  A    between atoms: C_7  and  C_9
REMARK    5  A    between atoms: N_11  and  C_12
REMARK    6  A    between atoms: C_12  and  C_13
REMARK    7  A    between atoms: C_16  and  C_17
REMARK                            x       y       z     vdW  Elec       q    Type
REMARK                         _______ _______ _______ _____ _____    ______ ____
ROOT
ATOM      1  C   UNL     1       4.653   5.157  18.087  0.00  0.00    +0.000 C 
ATOM      2  O   UNL     1       5.478   5.675  18.836  0.00  0.00    +0.000 OA
ATOM      3  N   UNL     1       3.824   5.910  17.272  0.00  0.00    +0.000 N 
ATOM      4  H   UNL     1       3.431   5.480  16.443  0.00  0.00    +0.000 HD
ENDROOT
BRANCH   1   5
ATOM      5  C   UNL     1       4.395   3.642  18.044  0.00  0.00    +0.000 C 
ATOM      6  C   UNL     1       4.295   3.160  16.594  0.00  0.00    +0.000 C 
BRANCH   5  12
ATOM      7  C   UNL     1       1.681   2.751  21.972  0.00  0.00    +0.000 C 
ATOM      8  C   UNL     1       1.852   2.369  20.511  0.00  0.00    +0.000 C 
ATOM      9  C   UNL     1       1.017   3.212  19.558  0.00  0.00    +0.000 C 
ATOM     10  C   UNL     1       1.949   3.453  18.409  0.00  0.00    +0.000 C 
ATOM     11  O   UNL     1       1.604   3.812  17.290  0.00  0.00    +0.000 OA
ATOM     12  N   UNL     1       3.230   3.282  18.851  0.00  0.00    +0.000 N 
ATOM     13  C   UNL     1       3.267   2.613  20.043  0.00  0.00    +0.000 C 
ATOM     14  O   UNL     1       4.257   2.231  20.648  0.00  0.00    +0.000 OA
ENDBRANCH   5  12
ENDBRANCH   1   5
BRANCH   3  15
ATOM     15  C   UNL     1       3.918   7.355  17.295  0.00  0.00    +0.000 C 
BRANCH  15  16
ATOM     16  C   UNL     1       2.850   7.980  18.157  0.00  0.00    +0.000 A 
ATOM     17  C   UNL     1       2.515   7.401  19.389  0.00  0.00    +0.000 A 
ATOM     18  C   UNL     1       1.567   7.994  20.225  0.00  0.00    +0.000 A 
ATOM     19  C   UNL     1       0.934   9.187  19.850  0.00  0.00    +0.000 A 
ATOM     20  C   UNL     1       1.276   9.775  18.622  0.00  0.00    +0.000 A 
ATOM     21  C   UNL     1       2.225   9.176  17.785  0.00  0.00    +0.000 A 
BRANCH  19  22
ATOM     22  C   UNL     1      -0.092   9.837  20.747  0.00  0.00    +0.000 C 
ATOM     23  F   UNL     1      -1.150  10.366  20.068  0.00  0.00    +0.000 F 
ATOM     24  F   UNL     1      -0.625   8.971  21.651  0.00  0.00    +0.000 F 
ATOM     25  F   UNL     1       0.430  10.865  21.474  0.00  0.00    +0.000 F 
ENDBRANCH  19  22
ENDBRANCH  15  16
ENDBRANCH   3  15
TORSDOF 5
ENDMDL
MODEL 9
REMARK VINA RESULT:      -7.7      5.307      8.306
REMARK  Name = 
REMARK  7 active torsions:
REMARK  status: ('A' for Active; 'I' for Inactive)
REMARK    1  A    between atoms: C_1  and  C_2
REMARK    2  A    between atoms: N_6  and  C_7
REMARK    3  A    between atoms: C_7  and  C_8
REMARK    4  A    between atoms: C_7  and  C_9
REMARK    5  A    between atoms: N_11  and  C_12
REMARK    6  A    between atoms: C_12  and  C_13
REMARK    7  A    between atoms: C_16  and  C_17
REMARK                            x       y       z     vdW  Elec       q    Type
REMARK                         _______ _______ _______ _____ _____    ______ ____
ROOT
ATOM      1  C   UNL     1       3.108   5.491  18.844  0.00  0.00    +0.000 C 
ATOM      2  O   UNL     1       2.611   4.628  19.564  0.00  0.00    +0.000 OA
ATOM      3  N   UNL     1       2.872   6.841  19.044  0.00  0.00    +0.000 N 
ATOM      4  H   UNL     1       3.542   7.513  18.690  0.00  0.00    +0.000 HD
ENDROOT
BRANCH   1   5
ATOM      5  C   UNL     1       3.958   5.162  17.606  0.00  0.00    +0.000 C 
ATOM      6  C   UNL     1       3.836   3.677  17.255  0.00  0.00    +0.000 C 
BRANCH   5  12
ATOM      7  C   UNL     1       7.856   8.061  17.586  0.00  0.00    +0.000 C 
ATOM      8  C   UNL     1       7.433   6.606  17.465  0.00  0.00    +0.000 C 
ATOM      9  C   UNL     1       7.421   5.863  18.793  0.00  0.00    +0.000 C 
ATOM     10  C   UNL     1       6.177   5.031  18.708  0.00  0.00    +0.000 C 
ATOM     11  O   UNL     1       5.938   4.053  19.407  0.00  0.00    +0.000 OA
ATOM     12  N   UNL     1       5.343   5.598  17.788  0.00  0.00    +0.000 N 
ATOM     13  C   UNL     1       6.004   6.489  16.989  0.00  0.00    +0.000 C 
ATOM     14  O   UNL     1       5.561   7.088  16.022  0.00  0.00    +0.000 OA
ENDBRANCH   5  12
ENDBRANCH   1   5
BRANCH   3  15
ATOM     15  C   UNL     1       2.012   7.264  20.130  0.00  0.00    +0.000 C 
BRANCH  15  16
ATOM     16  C   UNL     1       1.303   8.559  19.821  0.00  0.00    +0.000 A 
ATOM     17  C   UNL     1       1.377   9.110  18.534  0.00  0.00    +0.000 A 
ATOM     18  C   UNL     1       0.684  10.280  18.214  0.00  0.00    +0.000 A 
ATOM     19  C   UNL     1      -0.107  10.923  19.175  0.00  0.00    +0.000 A 
ATOM     20  C   UNL     1      -0.193  10.367  20.461  0.00  0.00    +0.000 A 
ATOM     21  C   UNL     1       0.505   9.197  20.780  0.00  0.00    +0.000 A 
BRANCH  19  22
ATOM     22  C   UNL     1      -0.862  12.187  18.840  0.00  0.00    +0.000 C 
ATOM     23  F   UNL     1      -1.429  12.170  17.600  0.00  0.00    +0.000 F 
ATOM     24  F   UNL     1      -1.878  12.440  19.710  0.00  0.00    +0.000 F 
ATOM     25  F   UNL     1      -0.063  13.291  18.865  0.00  0.00    +0.000 F 
ENDBRANCH  19  22
ENDBRANCH  15  16
ENDBRANCH   3  15
TORSDOF 5
ENDMDL
