MODEL 1
REMARK VINA RESULT:      -7.3      0.000      0.000
REMARK  Name = 
REMARK  10 active torsions:
REMARK  status: ('A' for Active; 'I' for Inactive)
REMARK    1  A    between atoms: C_1  and  C_2
REMARK    2  A    between atoms: C_2  and  C_3
REMARK    3  A    between atoms: C_3  and  C_4
REMARK    4  A    between atoms: C_4  and  C_5
REMARK    5  A    between atoms: C_5  and  C_6
REMARK    6  A    between atoms: C_9  and  C_10
REMARK    7  A    between atoms: C_10  and  O_11
REMARK    8  A    between atoms: N_16  and  C_17
REMARK    9  A    between atoms: C_17  and  C_18
REMARK   10  A    between atoms: C_17  and  C_19
REMARK                            x       y       z     vdW  Elec       q    Type
REMARK                         _______ _______ _______ _____ _____    ______ ____
ROOT
ATOM      1  C   UNL     1       5.562   4.622  17.619  0.00  0.00    +0.000 C 
ATOM      2  C   UNL     1       4.410   4.460  18.285  0.00  0.00    +0.000 C 
ATOM      3  C   UNL     1       3.745   5.449  19.161  0.00  0.00    +0.000 C 
ATOM      4  O   UNL     1       3.906   6.658  19.146  0.00  0.00    +0.000 OA
ATOM      5  C   UNL     1       2.869   4.707  20.133  0.00  0.00    +0.000 C 
ATOM      6  N   UNL     1       2.760   3.400  19.488  0.00  0.00    +0.000 N 
ATOM      7  C   UNL     1       3.661   3.185  18.437  0.00  0.00    +0.000 C 
ATOM      8  O   UNL     1       3.783   2.159  17.787  0.00  0.00    +0.000 OA
ENDROOT
BRANCH   1  12
ATOM      9  C   UNL     1       7.837   8.269  17.865  0.00  0.00    +0.000 A 
ATOM     10  C   UNL     1       6.769   8.146  16.966  0.00  0.00    +0.000 A 
ATOM     11  C   UNL     1       6.046   6.949  16.874  0.00  0.00    +0.000 A 
ATOM     12  C   UNL     1       6.389   5.844  17.665  0.00  0.00    +0.000 A 
ATOM     13  C   UNL     1       7.469   5.953  18.544  0.00  0.00    +0.000 A 
ATOM     14  C   UNL     1       8.186   7.154  18.641  0.00  0.00    +0.000 A 
BRANCH   9  15
ATOM     15  C   UNL     1       8.627   9.557  17.972  0.00  0.00    +0.000 C 
BRANCH  15  16
ATOM     16  C   UNL     1       9.098   9.865  19.401  0.00  0.00    +0.000 C 
BRANCH  16  17
ATOM     17  C   UNL     1      10.123  11.005  19.435  0.00  0.00    +0.000 C 
BRANCH  17  19
ATOM     18  C   UNL     1      11.248  12.289  17.566  0.00  0.00    +0.000 C 
ATOM     19  C   UNL     1       9.931  11.956  18.251  0.00  0.00    +0.000 C 
ENDBRANCH  17  19
ENDBRANCH  16  17
ENDBRANCH  15  16
ENDBRANCH   9  15
ENDBRANCH   1  12
BRANCH   6  20
ATOM     20  C   UNL     1       1.847   2.364  19.984  0.00  0.00    +0.000 C 
ATOM     21  C   UNL     1       1.413   2.636  21.424  0.00  0.00    +0.000 C 
ATOM     22  C   UNL     1       0.629   2.204  19.073  0.00  0.00    +0.000 C 
ENDBRANCH   6  20
BRANCH   1  23
ATOM     23  O   UNL     1       6.138   3.590  16.904  0.00  0.00    +0.000 OA
ATOM     24  H   UNL     1       6.752   3.969  16.251  0.00  0.00    +0.000 HD
ENDBRANCH   1  23
TORSDOF 7
ENDMDL
MODEL 2
REMARK VINA RESULT:      -7.3      0.566      1.153
REMARK  Name = 
REMARK  10 active torsions:
REMARK  status: ('A' for Active; 'I' for Inactive)
REMARK    1  A    between atoms: C_1  and  C_2
REMARK    2  A    between atoms: C_2  and  C_3
REMARK    3  A    between atoms: C_3  and  C_4
REMARK    4  A    between atoms: C_4  and  C_5
REMARK    5  A    between atoms: C_5  and  C_6
REMARK    6  A    between atoms: C_9  and  C_10
REMARK    7  A    between atoms: C_10  and  O_11
REMARK    8  A    between atoms: N_16  and  C_17
REMARK    9  A    between atoms: C_17  and  C_18
REMARK   10  A    between atoms: C_17  and  C_19
REMARK                            x       y       z     vdW  Elec       q    Type
REMARK                         _______ _______ _______ _____ _____    ______ ____
ROOT
ATOM      1  C   UNL     1       5.660   4.751  17.778  0.00  0.00    +0.000 C 
ATOM      2  C   UNL     1       4.460   4.543  18.337  0.00  0.00    +0.000 C 
ATOM      3  C   UNL     1       3.672   5.509  19.133  0.00  0.00    +0.000 C 
ATOM      4  O   UNL     1       3.780   6.725  19.115  0.00  0.00    +0.000 OA
ATOM      5  C   UNL     1       2.744   4.738  20.031  0.00  0.00    +0.000 C 
ATOM      6  N   UNL     1       2.756   3.420  19.399  0.00  0.00    +0.000 N 
ATOM      7  C   UNL     1       3.759   3.236  18.439  0.00  0.00    +0.000 C 
ATOM      8  O   UNL     1       3.988   2.209  17.818  0.00  0.00    +0.000 OA
ENDROOT
BRANCH   1  12
ATOM      9  C   UNL     1       8.026   8.342  17.973  0.00  0.00    +0.000 A 
ATOM     10  C   UNL     1       8.292   7.259  18.820  0.00  0.00    +0.000 A 
ATOM     11  C   UNL     1       7.505   6.101  18.769  0.00  0.00    +0.000 A 
ATOM     12  C   UNL     1       6.423   6.011  17.882  0.00  0.00    +0.000 A 
ATOM     13  C   UNL     1       6.138   7.099  17.053  0.00  0.00    +0.000 A 
ATOM     14  C   UNL     1       6.932   8.253  17.100  0.00  0.00    +0.000 A 
BRANCH   9  15
ATOM     15  C   UNL     1       8.869   9.601  18.020  0.00  0.00    +0.000 C 
BRANCH  15  16
ATOM     16  C   UNL     1       9.174  10.075  19.449  0.00  0.00    +0.000 C 
BRANCH  16  17
ATOM     17  C   UNL     1       9.784  11.482  19.469  0.00  0.00    +0.000 C 
BRANCH  17  19
ATOM     18  C   UNL     1      12.302  11.717  19.371  0.00  0.00    +0.000 C 
ATOM     19  C   UNL     1      11.019  11.561  18.569  0.00  0.00    +0.000 C 
ENDBRANCH  17  19
ENDBRANCH  16  17
ENDBRANCH  15  16
ENDBRANCH   9  15
ENDBRANCH   1  12
BRANCH   6  20
ATOM     20  C   UNL     1       1.848   2.349  19.825  0.00  0.00    +0.000 C 
ATOM     21  C   UNL     1       1.440   2.502  21.290  0.00  0.00    +0.000 C 
ATOM     22  C   UNL     1       0.614   2.266  18.925  0.00  0.00    +0.000 C 
ENDBRANCH   6  20
BRANCH   1  23
ATOM     23  O   UNL     1       6.346   3.740  17.135  0.00  0.00    +0.000 OA
ATOM     24  H   UNL     1       6.868   4.129  16.411  0.00  0.00    +0.000 HD
ENDBRANCH   1  23
TORSDOF 7
ENDMDL
MODEL 3
REMARK VINA RESULT:      -7.2      0.633      1.127
REMARK  Name = 
REMARK  10 active torsions:
REMARK  status: ('A' for Active; 'I' for Inactive)
REMARK    1  A    between atoms: C_1  and  C_2
REMARK    2  A    between atoms: C_2  and  C_3
REMARK    3  A    between atoms: C_3  and  C_4
REMARK    4  A    between atoms: C_4  and  C_5
REMARK    5  A    between atoms: C_5  and  C_6
REMARK    6  A    between atoms: C_9  and  C_10
REMARK    7  A    between atoms: C_10  and  O_11
REMARK    8  A    between atoms: N_16  and  C_17
REMARK    9  A    between atoms: C_17  and  C_18
REMARK   10  A    between atoms: C_17  and  C_19
REMARK                            x       y       z     vdW  Elec       q    Type
REMARK                         _______ _______ _______ _____ _____    ______ ____
ROOT
ATOM      1  C   UNL     1       5.574   4.633  17.657  0.00  0.00    +0.000 C 
ATOM      2  C   UNL     1       4.419   4.481  18.320  0.00  0.00    +0.000 C 
ATOM      3  C   UNL     1       3.748   5.482  19.177  0.00  0.00    +0.000 C 
ATOM      4  O   UNL     1       3.909   6.691  19.145  0.00  0.00    +0.000 OA
ATOM      5  C   UNL     1       2.869   4.754  20.156  0.00  0.00    +0.000 C 
ATOM      6  N   UNL     1       2.764   3.437  19.531  0.00  0.00    +0.000 N 
ATOM      7  C   UNL     1       3.670   3.207  18.488  0.00  0.00    +0.000 C 
ATOM      8  O   UNL     1       3.797   2.171  17.854  0.00  0.00    +0.000 OA
ENDROOT
BRANCH   1  12
ATOM      9  C   UNL     1       7.845   8.285  17.859  0.00  0.00    +0.000 A 
ATOM     10  C   UNL     1       6.774   8.152  16.965  0.00  0.00    +0.000 A 
ATOM     11  C   UNL     1       6.052   6.953  16.887  0.00  0.00    +0.000 A 
ATOM     12  C   UNL     1       6.400   5.857  17.688  0.00  0.00    +0.000 A 
ATOM     13  C   UNL     1       7.483   5.975  18.562  0.00  0.00    +0.000 A 
ATOM     14  C   UNL     1       8.199   7.178  18.644  0.00  0.00    +0.000 A 
BRANCH   9  15
ATOM     15  C   UNL     1       8.634   9.575  17.951  0.00  0.00    +0.000 C 
BRANCH  15  16
ATOM     16  C   UNL     1       9.117   9.892  19.374  0.00  0.00    +0.000 C 
BRANCH  16  17
ATOM     17  C   UNL     1      10.016  11.135  19.411  0.00  0.00    +0.000 C 
BRANCH  17  19
ATOM     18  C   UNL     1       8.864  11.708  21.592  0.00  0.00    +0.000 C 
ATOM     19  C   UNL     1      10.187  11.648  20.843  0.00  0.00    +0.000 C 
ENDBRANCH  17  19
ENDBRANCH  16  17
ENDBRANCH  15  16
ENDBRANCH   9  15
ENDBRANCH   1  12
BRANCH   6  20
ATOM     20  C   UNL     1       1.849   2.409  20.039  0.00  0.00    +0.000 C 
ATOM     21  C   UNL     1       1.445   2.677  21.488  0.00  0.00    +0.000 C 
ATOM     22  C   UNL     1       0.613   2.267  19.149  0.00  0.00    +0.000 C 
ENDBRANCH   6  20
BRANCH   1  23
ATOM     23  O   UNL     1       6.154   3.591  16.960  0.00  0.00    +0.000 OA
ATOM     24  H   UNL     1       6.536   3.942  16.137  0.00  0.00    +0.000 HD
ENDBRANCH   1  23
TORSDOF 7
ENDMDL
MODEL 4
REMARK VINA RESULT:      -6.9      4.548      6.966
REMARK  Name = 
REMARK  10 active torsions:
REMARK  status: ('A' for Active; 'I' for Inactive)
REMARK    1  A    between atoms: C_1  and  C_2
REMARK    2  A    between atoms: C_2  and  C_3
REMARK    3  A    between atoms: C_3  and  C_4
REMARK    4  A    between atoms: C_4  and  C_5
REMARK    5  A    between atoms: C_5  and  C_6
REMARK    6  A    between atoms: C_9  and  C_10
REMARK    7  A    between atoms: C_10  and  O_11
REMARK    8  A    between atoms: N_16  and  C_17
REMARK    9  A    between atoms: C_17  and  C_18
REMARK   10  A    between atoms: C_17  and  C_19
REMARK                            x       y       z     vdW  Elec       q    Type
REMARK                         _______ _______ _______ _____ _____    ______ ____
ROOT
ATOM      1  C   UNL     1       2.277   6.926  19.758  0.00  0.00    +0.000 C 
ATOM      2  C   UNL     1       1.759   8.140  19.529  0.00  0.00    +0.000 C 
ATOM      3  C   UNL     1       1.893   8.945  18.296  0.00  0.00    +0.000 C 
ATOM      4  O   UNL     1       2.162   8.528  17.181  0.00  0.00    +0.000 OA
ATOM      5  C   UNL     1       1.706  10.394  18.653  0.00  0.00    +0.000 C 
ATOM      6  N   UNL     1       1.066  10.291  19.963  0.00  0.00    +0.000 N 
ATOM      7  C   UNL     1       1.106   9.015  20.539  0.00  0.00    +0.000 C 
ATOM      8  O   UNL     1       0.678   8.703  21.640  0.00  0.00    +0.000 OA
ENDROOT
BRANCH   1  12
ATOM      9  C   UNL     1       4.765   4.636  17.093  0.00  0.00    +0.000 A 
ATOM     10  C   UNL     1       5.290   5.711  17.822  0.00  0.00    +0.000 A 
ATOM     11  C   UNL     1       4.471   6.468  18.671  0.00  0.00    +0.000 A 
ATOM     12  C   UNL     1       3.106   6.176  18.793  0.00  0.00    +0.000 A 
ATOM     13  C   UNL     1       2.572   5.121  18.048  0.00  0.00    +0.000 A 
ATOM     14  C   UNL     1       3.394   4.361  17.205  0.00  0.00    +0.000 A 
BRANCH   9  15
ATOM     15  C   UNL     1       5.640   3.812  16.170  0.00  0.00    +0.000 C 
BRANCH  15  16
ATOM     16  C   UNL     1       6.841   4.591  15.614  0.00  0.00    +0.000 C 
BRANCH  16  17
ATOM     17  C   UNL     1       6.870   4.587  14.081  0.00  0.00    +0.000 C 
BRANCH  17  19
ATOM     18  C   UNL     1       5.936   3.239  12.152  0.00  0.00    +0.000 C 
ATOM     19  C   UNL     1       5.648   3.863  13.509  0.00  0.00    +0.000 C 
ENDBRANCH  17  19
ENDBRANCH  16  17
ENDBRANCH  15  16
ENDBRANCH   9  15
ENDBRANCH   1  12
BRANCH   6  20
ATOM     20  C   UNL     1       0.522  11.465  20.655  0.00  0.00    +0.000 C 
ATOM     21  C   UNL     1       1.212  12.754  20.207  0.00  0.00    +0.000 C 
ATOM     22  C   UNL     1      -0.993  11.572  20.477  0.00  0.00    +0.000 C 
ENDBRANCH   6  20
BRANCH   1  23
ATOM     23  O   UNL     1       2.165   6.308  20.988  0.00  0.00    +0.000 OA
ATOM     24  H   UNL     1       2.912   6.587  21.546  0.00  0.00    +0.000 HD
ENDBRANCH   1  23
TORSDOF 7
ENDMDL
MODEL 5
REMARK VINA RESULT:      -6.8      4.259      6.777
REMARK  Name = 
REMARK  10 active torsions:
REMARK  status: ('A' for Active; 'I' for Inactive)
REMARK    1  A    between atoms: C_1  and  C_2
REMARK    2  A    between atoms: C_2  and  C_3
REMARK    3  A    between atoms: C_3  and  C_4
REMARK    4  A    between atoms: C_4  and  C_5
REMARK    5  A    between atoms: C_5  and  C_6
REMARK    6  A    between atoms: C_9  and  C_10
REMARK    7  A    between atoms: C_10  and  O_11
REMARK    8  A    between atoms: N_16  and  C_17
REMARK    9  A    between atoms: C_17  and  C_18
REMARK   10  A    between atoms: C_17  and  C_19
REMARK                            x       y       z     vdW  Elec       q    Type
REMARK                         _______ _______ _______ _____ _____    ______ ____
ROOT
ATOM      1  C   UNL     1       2.910   6.314  19.489  0.00  0.00    +0.000 C 
ATOM      2  C   UNL     1       2.277   7.469  19.243  0.00  0.00    +0.000 C 
ATOM      3  C   UNL     1       2.379   8.295  18.021  0.00  0.00    +0.000 C 
ATOM      4  O   UNL     1       2.739   7.919  16.917  0.00  0.00    +0.000 OA
ATOM      5  C   UNL     1       2.023   9.713  18.376  0.00  0.00    +0.000 C 
ATOM      6  N   UNL     1       1.341   9.530  19.655  0.00  0.00    +0.000 N 
ATOM      7  C   UNL     1       1.490   8.260  20.227  0.00  0.00    +0.000 C 
ATOM      8  O   UNL     1       1.050   7.895  21.306  0.00  0.00    +0.000 OA
ENDROOT
BRANCH   1  12
ATOM      9  C   UNL     1       5.585   4.524  16.630  0.00  0.00    +0.000 A 
ATOM     10  C   UNL     1       4.273   4.056  16.779  0.00  0.00    +0.000 A 
ATOM     11  C   UNL     1       3.414   4.627  17.727  0.00  0.00    +0.000 A 
ATOM     12  C   UNL     1       3.855   5.665  18.559  0.00  0.00    +0.000 A 
ATOM     13  C   UNL     1       5.171   6.118  18.432  0.00  0.00    +0.000 A 
ATOM     14  C   UNL     1       6.027   5.551  17.477  0.00  0.00    +0.000 A 
BRANCH   9  15
ATOM     15  C   UNL     1       6.525   3.913  15.611  0.00  0.00    +0.000 C 
BRANCH  15  16
ATOM     16  C   UNL     1       6.476   4.611  14.243  0.00  0.00    +0.000 C 
BRANCH  16  17
ATOM     17  C   UNL     1       5.557   3.879  13.257  0.00  0.00    +0.000 C 
BRANCH  17  19
ATOM     18  C   UNL     1       5.549   2.145  11.413  0.00  0.00    +0.000 C 
ATOM     19  C   UNL     1       6.367   3.192  12.155  0.00  0.00    +0.000 C 
ENDBRANCH  17  19
ENDBRANCH  16  17
ENDBRANCH  15  16
ENDBRANCH   9  15
ENDBRANCH   1  12
BRANCH   6  20
ATOM     20  C   UNL     1       0.646  10.634  20.328  0.00  0.00    +0.000 C 
ATOM     21  C   UNL     1       1.350  11.971  20.095  0.00  0.00    +0.000 C 
ATOM     22  C   UNL     1      -0.822  10.715  19.907  0.00  0.00    +0.000 C 
ENDBRANCH   6  20
BRANCH   1  23
ATOM     23  O   UNL     1       2.810   5.677  20.710  0.00  0.00    +0.000 OA
ATOM     24  H   UNL     1       3.051   4.741  20.594  0.00  0.00    +0.000 HD
ENDBRANCH   1  23
TORSDOF 7
ENDMDL
MODEL 6
REMARK VINA RESULT:      -6.8      4.184      6.782
REMARK  Name = 
REMARK  10 active torsions:
REMARK  status: ('A' for Active; 'I' for Inactive)
REMARK    1  A    between atoms: C_1  and  C_2
REMARK    2  A    between atoms: C_2  and  C_3
REMARK    3  A    between atoms: C_3  and  C_4
REMARK    4  A    between atoms: C_4  and  C_5
REMARK    5  A    between atoms: C_5  and  C_6
REMARK    6  A    between atoms: C_9  and  C_10
REMARK    7  A    between atoms: C_10  and  O_11
REMARK    8  A    between atoms: N_16  and  C_17
REMARK    9  A    between atoms: C_17  and  C_18
REMARK   10  A    between atoms: C_17  and  C_19
REMARK                            x       y       z     vdW  Elec       q    Type
REMARK                         _______ _______ _______ _____ _____    ______ ____
ROOT
ATOM      1  C   UNL     1       2.893   6.520  19.332  0.00  0.00    +0.000 C 
ATOM      2  C   UNL     1       2.189   7.644  19.138  0.00  0.00    +0.000 C 
ATOM      3  C   UNL     1       2.203   8.503  17.934  0.00  0.00    +0.000 C 
ATOM      4  O   UNL     1       2.543   8.173  16.809  0.00  0.00    +0.000 OA
ATOM      5  C   UNL     1       1.784   9.890  18.337  0.00  0.00    +0.000 C 
ATOM      6  N   UNL     1       1.158   9.640  19.634  0.00  0.00    +0.000 N 
ATOM      7  C   UNL     1       1.397   8.367  20.168  0.00  0.00    +0.000 C 
ATOM      8  O   UNL     1       1.017   7.953  21.252  0.00  0.00    +0.000 OA
ENDROOT
BRANCH   1  12
ATOM      9  C   UNL     1       5.741   4.761  16.625  0.00  0.00    +0.000 A 
ATOM     10  C   UNL     1       6.056   5.920  17.347  0.00  0.00    +0.000 A 
ATOM     11  C   UNL     1       5.117   6.501  18.210  0.00  0.00    +0.000 A 
ATOM     12  C   UNL     1       3.838   5.946  18.353  0.00  0.00    +0.000 A 
ATOM     13  C   UNL     1       3.511   4.806  17.616  0.00  0.00    +0.000 A 
ATOM     14  C   UNL     1       4.454   4.220  16.759  0.00  0.00    +0.000 A 
BRANCH   9  15
ATOM     15  C   UNL     1       6.747   4.123  15.688  0.00  0.00    +0.000 C 
BRANCH  15  16
ATOM     16  C   UNL     1       6.666   4.661  14.252  0.00  0.00    +0.000 C 
BRANCH  16  17
ATOM     17  C   UNL     1       5.686   3.853  13.391  0.00  0.00    +0.000 C 
BRANCH  17  19
ATOM     18  C   UNL     1       5.862   2.045  11.628  0.00  0.00    +0.000 C 
ATOM     19  C   UNL     1       6.337   3.419  12.075  0.00  0.00    +0.000 C 
ENDBRANCH  17  19
ENDBRANCH  16  17
ENDBRANCH  15  16
ENDBRANCH   9  15
ENDBRANCH   1  12
BRANCH   6  20
ATOM     20  C   UNL     1       0.430  10.688  20.358  0.00  0.00    +0.000 C 
ATOM     21  C   UNL     1       1.328  11.881  20.683  0.00  0.00    +0.000 C 
ATOM     22  C   UNL     1      -0.815  11.140  19.592  0.00  0.00    +0.000 C 
ENDBRANCH   6  20
BRANCH   1  23
ATOM     23  O   UNL     1       2.872   5.849  20.539  0.00  0.00    +0.000 OA
ATOM     24  H   UNL     1       3.416   5.047  20.459  0.00  0.00    +0.000 HD
ENDBRANCH   1  23
TORSDOF 7
ENDMDL
MODEL 7
REMARK VINA RESULT:      -6.6      4.835      8.006
REMARK  Name = 
REMARK  10 active torsions:
REMARK  status: ('A' for Active; 'I' for Inactive)
REMARK    1  A    between atoms: C_1  and  C_2
REMARK    2  A    between atoms: C_2  and  C_3
REMARK    3  A    between atoms: C_3  and  C_4
REMARK    4  A    between atoms: C_4  and  C_5
REMARK    5  A    between atoms: C_5  and  C_6
REMARK    6  A    between atoms: C_9  and  C_10
REMARK    7  A    between atoms: C_10  and  O_11
REMARK    8  A    between atoms: N_16  and  C_17
REMARK    9  A    between atoms: C_17  and  C_18
REMARK   10  A    between atoms: C_17  and  C_19
REMARK                            x       y       z     vdW  Elec       q    Type
REMARK                         _______ _______ _______ _____ _____    ______ ____
ROOT
ATOM      1  C   UNL     1       2.151   8.347  18.356  0.00  0.00    +0.000 C 
ATOM      2  C   UNL     1       1.600   8.850  19.469  0.00  0.00    +0.000 C 
ATOM      3  C   UNL     1       1.220   8.103  20.688  0.00  0.00    +0.000 C 
ATOM      4  O   UNL     1       1.657   7.020  21.042  0.00  0.00    +0.000 OA
ATOM      5  C   UNL     1       0.144   8.874  21.402  0.00  0.00    +0.000 C 
ATOM      6  N   UNL     1       0.277  10.194  20.787  0.00  0.00    +0.000 N 
ATOM      7  C   UNL     1       1.074  10.231  19.636  0.00  0.00    +0.000 C 
ATOM      8  O   UNL     1       1.289  11.207  18.935  0.00  0.00    +0.000 OA
ENDROOT
BRANCH   1  12
ATOM      9  C   UNL     1       3.054   4.157  17.952  0.00  0.00    +0.000 A 
ATOM     10  C   UNL     1       4.045   5.074  18.329  0.00  0.00    +0.000 A 
ATOM     11  C   UNL     1       3.751   6.440  18.437  0.00  0.00    +0.000 A 
ATOM     12  C   UNL     1       2.466   6.919  18.151  0.00  0.00    +0.000 A 
ATOM     13  C   UNL     1       1.481   6.013  17.749  0.00  0.00    +0.000 A 
ATOM     14  C   UNL     1       1.775   4.646  17.649  0.00  0.00    +0.000 A 
BRANCH   9  15
ATOM     15  C   UNL     1       3.360   2.679  17.829  0.00  0.00    +0.000 C 
BRANCH  15  16
ATOM     16  C   UNL     1       2.996   1.875  19.086  0.00  0.00    +0.000 C 
BRANCH  16  17
ATOM     17  C   UNL     1       1.498   1.959  19.408  0.00  0.00    +0.000 C 
BRANCH  17  19
ATOM     18  C   UNL     1       2.536   2.928  21.503  0.00  0.00    +0.000 C 
ATOM     19  C   UNL     1       1.255   2.732  20.706  0.00  0.00    +0.000 C 
ENDBRANCH  17  19
ENDBRANCH  16  17
ENDBRANCH  15  16
ENDBRANCH   9  15
ENDBRANCH   1  12
BRANCH   6  20
ATOM     20  C   UNL     1      -0.462  11.359  21.287  0.00  0.00    +0.000 C 
ATOM     21  C   UNL     1      -1.624  11.730  20.366  0.00  0.00    +0.000 C 
ATOM     22  C   UNL     1      -0.954  11.141  22.719  0.00  0.00    +0.000 C 
ENDBRANCH   6  20
BRANCH   1  23
ATOM     23  O   UNL     1       2.376   9.129  17.240  0.00  0.00    +0.000 OA
ATOM     24  H   UNL     1       3.050   9.796  17.458  0.00  0.00    +0.000 HD
ENDBRANCH   1  23
TORSDOF 7
ENDMDL
MODEL 8
REMARK VINA RESULT:      -6.6      4.634      7.339
REMARK  Name = 
REMARK  10 active torsions:
REMARK  status: ('A' for Active; 'I' for Inactive)
REMARK    1  A    between atoms: C_1  and  C_2
REMARK    2  A    between atoms: C_2  and  C_3
REMARK    3  A    between atoms: C_3  and  C_4
REMARK    4  A    between atoms: C_4  and  C_5
REMARK    5  A    between atoms: C_5  and  C_6
REMARK    6  A    between atoms: C_9  and  C_10
REMARK    7  A    between atoms: C_10  and  O_11
REMARK    8  A    between atoms: N_16  and  C_17
REMARK    9  A    between atoms: C_17  and  C_18
REMARK   10  A    between atoms: C_17  and  C_19
REMARK                            x       y       z     vdW  Elec       q    Type
REMARK                         _______ _______ _______ _____ _____    ______ ____
ROOT
ATOM      1  C   UNL     1       2.107   7.254  19.788  0.00  0.00    +0.000 C 
ATOM      2  C   UNL     1       1.628   8.458  19.442  0.00  0.00    +0.000 C 
ATOM      3  C   UNL     1       1.807   9.144  18.145  0.00  0.00    +0.000 C 
ATOM      4  O   UNL     1       2.082   8.621  17.077  0.00  0.00    +0.000 OA
ATOM      5  C   UNL     1       1.657  10.624  18.366  0.00  0.00    +0.000 C 
ATOM      6  N   UNL     1       0.992  10.657  19.668  0.00  0.00    +0.000 N 
ATOM      7  C   UNL     1       0.984   9.437  20.357  0.00  0.00    +0.000 C 
ATOM      8  O   UNL     1       0.529   9.238  21.472  0.00  0.00    +0.000 OA
ENDROOT
BRANCH   1  12
ATOM      9  C   UNL     1       4.421   4.843  17.074  0.00  0.00    +0.000 A 
ATOM     10  C   UNL     1       3.092   4.516  17.373  0.00  0.00    +0.000 A 
ATOM     11  C   UNL     1       2.350   5.291  18.275  0.00  0.00    +0.000 A 
ATOM     12  C   UNL     1       2.929   6.398  18.910  0.00  0.00    +0.000 A 
ATOM     13  C   UNL     1       4.261   6.713  18.635  0.00  0.00    +0.000 A 
ATOM     14  C   UNL     1       5.000   5.942  17.727  0.00  0.00    +0.000 A 
BRANCH   9  15
ATOM     15  C   UNL     1       5.234   4.012  16.103  0.00  0.00    +0.000 C 
BRANCH  15  16
ATOM     16  C   UNL     1       5.762   4.817  14.907  0.00  0.00    +0.000 C 
BRANCH  16  17
ATOM     17  C   UNL     1       6.255   3.907  13.774  0.00  0.00    +0.000 C 
BRANCH  17  19
ATOM     18  C   UNL     1       5.559   2.626  11.705  0.00  0.00    +0.000 C 
ATOM     19  C   UNL     1       5.146   3.652  12.750  0.00  0.00    +0.000 C 
ENDBRANCH  17  19
ENDBRANCH  16  17
ENDBRANCH  15  16
ENDBRANCH   9  15
ENDBRANCH   1  12
BRANCH   6  20
ATOM     20  C   UNL     1       0.472  11.904  20.241  0.00  0.00    +0.000 C 
ATOM     21  C   UNL     1       1.599  12.837  20.680  0.00  0.00    +0.000 C 
ATOM     22  C   UNL     1      -0.476  12.616  19.274  0.00  0.00    +0.000 C 
ENDBRANCH   6  20
BRANCH   1  23
ATOM     23  O   UNL     1       1.955   6.754  21.066  0.00  0.00    +0.000 OA
ATOM     24  H   UNL     1       1.696   5.818  21.005  0.00  0.00    +0.000 HD
ENDBRANCH   1  23
TORSDOF 7
ENDMDL
MODEL 9
REMARK VINA RESULT:      -6.5      4.800      7.785
REMARK  Name = 
REMARK  10 active torsions:
REMARK  status: ('A' for Active; 'I' for Inactive)
REMARK    1  A    between atoms: C_1  and  C_2
REMARK    2  A    between atoms: C_2  and  C_3
REMARK    3  A    between atoms: C_3  and  C_4
REMARK    4  A    between atoms: C_4  and  C_5
REMARK    5  A    between atoms: C_5  and  C_6
REMARK    6  A    between atoms: C_9  and  C_10
REMARK    7  A    between atoms: C_10  and  O_11
REMARK    8  A    between atoms: N_16  and  C_17
REMARK    9  A    between atoms: C_17  and  C_18
REMARK   10  A    between atoms: C_17  and  C_19
REMARK                            x       y       z     vdW  Elec       q    Type
REMARK                         _______ _______ _______ _____ _____    ______ ____
ROOT
ATOM      1  C   UNL     1       2.218   8.306  18.301  0.00  0.00    +0.000 C 
ATOM      2  C   UNL     1       1.634   8.868  19.369  0.00  0.00    +0.000 C 
ATOM      3  C   UNL     1       1.238   8.192  20.622  0.00  0.00    +0.000 C 
ATOM      4  O   UNL     1       1.683   7.140  21.053  0.00  0.00    +0.000 OA
ATOM      5  C   UNL     1       0.134   8.988  21.263  0.00  0.00    +0.000 C 
ATOM      6  N   UNL     1       0.260  10.269  20.570  0.00  0.00    +0.000 N 
ATOM      7  C   UNL     1       1.084  10.248  19.437  0.00  0.00    +0.000 C 
ATOM      8  O   UNL     1       1.300  11.182  18.681  0.00  0.00    +0.000 OA
ENDROOT
BRANCH   1  12
ATOM      9  C   UNL     1       3.195   4.144  17.792  0.00  0.00    +0.000 A 
ATOM     10  C   UNL     1       1.864   4.581  17.754  0.00  0.00    +0.000 A 
ATOM     11  C   UNL     1       1.550   5.933  17.943  0.00  0.00    +0.000 A 
ATOM     12  C   UNL     1       2.559   6.873  18.193  0.00  0.00    +0.000 A 
ATOM     13  C   UNL     1       3.885   6.439  18.258  0.00  0.00    +0.000 A 
ATOM     14  C   UNL     1       4.199   5.087  18.060  0.00  0.00    +0.000 A 
BRANCH   9  15
ATOM     15  C   UNL     1       3.548   2.685  17.591  0.00  0.00    +0.000 C 
BRANCH  15  16
ATOM     16  C   UNL     1       3.495   1.862  18.886  0.00  0.00    +0.000 C 
BRANCH  16  17
ATOM     17  C   UNL     1       3.591   2.748  20.135  0.00  0.00    +0.000 C 
BRANCH  17  19
ATOM     18  C   UNL     1       1.443   3.687  21.090  0.00  0.00    +0.000 C 
ATOM     19  C   UNL     1       2.405   2.509  21.073  0.00  0.00    +0.000 C 
ENDBRANCH  17  19
ENDBRANCH  16  17
ENDBRANCH  15  16
ENDBRANCH   9  15
ENDBRANCH   1  12
BRANCH   6  20
ATOM     20  C   UNL     1      -0.507  11.450  20.980  0.00  0.00    +0.000 C 
ATOM     21  C   UNL     1      -1.722  11.676  20.080  0.00  0.00    +0.000 C 
ATOM     22  C   UNL     1      -0.930  11.366  22.448  0.00  0.00    +0.000 C 
ENDBRANCH   6  20
BRANCH   1  23
ATOM     23  O   UNL     1       2.457   9.021  17.144  0.00  0.00    +0.000 OA
ATOM     24  H   UNL     1       1.866   9.794  17.128  0.00  0.00    +0.000 HD
ENDBRANCH   1  23
TORSDOF 7
ENDMDL
