MODEL 1
REMARK VINA RESULT:      -6.9      0.000      0.000
REMARK  Name = 
REMARK  6 active torsions:
REMARK  status: ('A' for Active; 'I' for Inactive)
REMARK    1  A    between atoms: C_1  and  C_2
REMARK    2  A    between atoms: C_5  and  C_6
REMARK    3  A    between atoms: N_7  and  N_8
REMARK    4  A    between atoms: N_8  and  C_9
REMARK    5  A    between atoms: C_12  and  C_13
REMARK    6  A    between atoms: C_13  and  O_15
REMARK                            x       y       z     vdW  Elec       q    Type
REMARK                         _______ _______ _______ _____ _____    ______ ____
ROOT
ATOM      1  N   UNL     1       5.854   5.363  18.525  0.00  0.00    +0.000 N 
ATOM      2  H   UNL     1       6.292   6.169  18.964  0.00  0.00    +0.000 HD
ENDROOT
BRANCH   1   3
ATOM      3  C   UNL     1       4.800   4.774  19.255  0.00  0.00    +0.000 A 
ATOM      4  C   UNL     1       3.705   5.526  19.709  0.00  0.00    +0.000 A 
ATOM      5  C   UNL     1       2.616   4.919  20.341  0.00  0.00    +0.000 A 
ATOM      6  C   UNL     1       2.592   3.534  20.521  0.00  0.00    +0.000 A 
ATOM      7  C   UNL     1       3.662   2.763  20.049  0.00  0.00    +0.000 A 
ATOM      8  C   UNL     1       4.755   3.382  19.422  0.00  0.00    +0.000 A 
BRANCH   6   9
ATOM      9  C   UNL     1       1.383   2.939  21.148  0.00  0.00    +0.000 C 
ATOM     10  O   UNL     1       1.401   2.408  22.245  0.00  0.00    +0.000 OA
BRANCH   9  11
ATOM     11  O   UNL     1       0.274   3.002  20.382  0.00  0.00    +0.000 OA
ATOM     12  H   UNL     1      -0.006   3.901  20.137  0.00  0.00    +0.000 HD
ENDBRANCH   9  11
ENDBRANCH   6   9
ENDBRANCH   1   3
BRANCH   1  14
ATOM     13  C   UNL     1       6.904   4.838  16.587  0.00  0.00    +0.000 C 
ATOM     14  N   UNL     1       5.822   5.243  17.172  0.00  0.00    +0.000 NA
BRANCH  13  19
ATOM     15  C   UNL     1       8.281   5.874  12.084  0.00  0.00    +0.000 C 
ATOM     16  C   UNL     1       7.520   5.121  13.099  0.00  0.00    +0.000 A 
ATOM     17  C   UNL     1       6.627   4.075  13.017  0.00  0.00    +0.000 A 
ATOM     18  C   UNL     1       6.233   3.787  14.342  0.00  0.00    +0.000 A 
ATOM     19  C   UNL     1       6.909   4.673  15.160  0.00  0.00    +0.000 A 
ATOM     20  O   UNL     1       7.699   5.490  14.401  0.00  0.00    +0.000 OA
ENDBRANCH  13  19
ENDBRANCH   1  14
TORSDOF 5
ENDMDL
MODEL 2
REMARK VINA RESULT:      -6.9      1.114      1.613
REMARK  Name = 
REMARK  6 active torsions:
REMARK  status: ('A' for Active; 'I' for Inactive)
REMARK    1  A    between atoms: C_1  and  C_2
REMARK    2  A    between atoms: C_5  and  C_6
REMARK    3  A    between atoms: N_7  and  N_8
REMARK    4  A    between atoms: N_8  and  C_9
REMARK    5  A    between atoms: C_12  and  C_13
REMARK    6  A    between atoms: C_13  and  O_15
REMARK                            x       y       z     vdW  Elec       q    Type
REMARK                         _______ _______ _______ _____ _____    ______ ____
ROOT
ATOM      1  N   UNL     1       5.683   5.220  17.591  0.00  0.00    +0.000 N 
ATOM      2  H   UNL     1       6.009   6.143  17.868  0.00  0.00    +0.000 HD
ENDROOT
BRANCH   1   3
ATOM      3  C   UNL     1       4.707   4.644  18.433  0.00  0.00    +0.000 A 
ATOM      4  C   UNL     1       4.118   5.365  19.483  0.00  0.00    +0.000 A 
ATOM      5  C   UNL     1       3.081   4.824  20.247  0.00  0.00    +0.000 A 
ATOM      6  C   UNL     1       2.596   3.546  19.964  0.00  0.00    +0.000 A 
ATOM      7  C   UNL     1       3.150   2.820  18.902  0.00  0.00    +0.000 A 
ATOM      8  C   UNL     1       4.197   3.369  18.146  0.00  0.00    +0.000 A 
BRANCH   6   9
ATOM      9  C   UNL     1       1.453   3.045  20.773  0.00  0.00    +0.000 C 
ATOM     10  O   UNL     1       1.570   2.684  21.932  0.00  0.00    +0.000 OA
BRANCH   9  11
ATOM     11  O   UNL     1       0.283   2.988  20.103  0.00  0.00    +0.000 OA
ATOM     12  H   UNL     1      -0.241   2.183  20.260  0.00  0.00    +0.000 HD
ENDBRANCH   9  11
ENDBRANCH   6   9
ENDBRANCH   1   3
BRANCH   1  14
ATOM     13  C   UNL     1       6.766   5.048  15.609  0.00  0.00    +0.000 C 
ATOM     14  N   UNL     1       5.680   4.849  16.284  0.00  0.00    +0.000 NA
BRANCH  13  19
ATOM     15  C   UNL     1       5.392   2.492  11.757  0.00  0.00    +0.000 C 
ATOM     16  C   UNL     1       6.209   3.502  12.458  0.00  0.00    +0.000 A 
ATOM     17  C   UNL     1       7.219   4.343  12.045  0.00  0.00    +0.000 A 
ATOM     18  C   UNL     1       7.610   5.081  13.183  0.00  0.00    +0.000 A 
ATOM     19  C   UNL     1       6.816   4.650  14.230  0.00  0.00    +0.000 A 
ATOM     20  O   UNL     1       5.956   3.683  13.787  0.00  0.00    +0.000 OA
ENDBRANCH  13  19
ENDBRANCH   1  14
TORSDOF 5
ENDMDL
MODEL 3
REMARK VINA RESULT:      -6.8      0.572      1.266
REMARK  Name = 
REMARK  6 active torsions:
REMARK  status: ('A' for Active; 'I' for Inactive)
REMARK    1  A    between atoms: C_1  and  C_2
REMARK    2  A    between atoms: C_5  and  C_6
REMARK    3  A    between atoms: N_7  and  N_8
REMARK    4  A    between atoms: N_8  and  C_9
REMARK    5  A    between atoms: C_12  and  C_13
REMARK    6  A    between atoms: C_13  and  O_15
REMARK                            x       y       z     vdW  Elec       q    Type
REMARK                         _______ _______ _______ _____ _____    ______ ____
ROOT
ATOM      1  N   UNL     1       6.357   4.868  18.954  0.00  0.00    +0.000 N 
ATOM      2  H   UNL     1       6.700   5.692  19.441  0.00  0.00    +0.000 HD
ENDROOT
BRANCH   1   3
ATOM      3  C   UNL     1       5.089   4.404  19.366  0.00  0.00    +0.000 A 
ATOM      4  C   UNL     1       4.835   3.040  19.577  0.00  0.00    +0.000 A 
ATOM      5  C   UNL     1       3.609   2.597  20.082  0.00  0.00    +0.000 A 
ATOM      6  C   UNL     1       2.611   3.518  20.405  0.00  0.00    +0.000 A 
ATOM      7  C   UNL     1       2.855   4.886  20.230  0.00  0.00    +0.000 A 
ATOM      8  C   UNL     1       4.086   5.320  19.714  0.00  0.00    +0.000 A 
BRANCH   6   9
ATOM      9  C   UNL     1       1.350   2.993  20.993  0.00  0.00    +0.000 C 
ATOM     10  O   UNL     1       1.304   2.450  22.084  0.00  0.00    +0.000 OA
BRANCH   9  11
ATOM     11  O   UNL     1       0.267   3.134  20.200  0.00  0.00    +0.000 OA
ATOM     12  H   UNL     1      -0.084   2.304  19.833  0.00  0.00    +0.000 HD
ENDBRANCH   9  11
ENDBRANCH   6   9
ENDBRANCH   1   3
BRANCH   1  14
ATOM     13  C   UNL     1       5.887   4.929  16.738  0.00  0.00    +0.000 C 
ATOM     14  N   UNL     1       6.729   4.616  17.671  0.00  0.00    +0.000 NA
BRANCH  13  19
ATOM     15  C   UNL     1       8.467   5.664  12.731  0.00  0.00    +0.000 C 
ATOM     16  C   UNL     1       7.407   5.015  13.527  0.00  0.00    +0.000 A 
ATOM     17  C   UNL     1       6.480   4.039  13.237  0.00  0.00    +0.000 A 
ATOM     18  C   UNL     1       5.733   3.838  14.419  0.00  0.00    +0.000 A 
ATOM     19  C   UNL     1       6.247   4.703  15.366  0.00  0.00    +0.000 A 
ATOM     20  O   UNL     1       7.274   5.425  14.823  0.00  0.00    +0.000 OA
ENDBRANCH  13  19
ENDBRANCH   1  14
TORSDOF 5
ENDMDL
MODEL 4
REMARK VINA RESULT:      -6.8      1.246      2.021
REMARK  Name = 
REMARK  6 active torsions:
REMARK  status: ('A' for Active; 'I' for Inactive)
REMARK    1  A    between atoms: C_1  and  C_2
REMARK    2  A    between atoms: C_5  and  C_6
REMARK    3  A    between atoms: N_7  and  N_8
REMARK    4  A    between atoms: N_8  and  C_9
REMARK    5  A    between atoms: C_12  and  C_13
REMARK    6  A    between atoms: C_13  and  O_15
REMARK                            x       y       z     vdW  Elec       q    Type
REMARK                         _______ _______ _______ _____ _____    ______ ____
ROOT
ATOM      1  N   UNL     1       5.337   6.074  17.311  0.00  0.00    +0.000 N 
ATOM      2  H   UNL     1       5.513   7.036  17.591  0.00  0.00    +0.000 HD
ENDROOT
BRANCH   1   3
ATOM      3  C   UNL     1       4.425   5.363  18.121  0.00  0.00    +0.000 A 
ATOM      4  C   UNL     1       4.819   4.246  18.873  0.00  0.00    +0.000 A 
ATOM      5  C   UNL     1       3.937   3.610  19.750  0.00  0.00    +0.000 A 
ATOM      6  C   UNL     1       2.636   4.092  19.908  0.00  0.00    +0.000 A 
ATOM      7  C   UNL     1       2.231   5.223  19.188  0.00  0.00    +0.000 A 
ATOM      8  C   UNL     1       3.122   5.850  18.303  0.00  0.00    +0.000 A 
BRANCH   6   9
ATOM      9  C   UNL     1       1.761   3.410  20.897  0.00  0.00    +0.000 C 
ATOM     10  O   UNL     1       2.158   3.047  21.992  0.00  0.00    +0.000 OA
BRANCH   9  11
ATOM     11  O   UNL     1       0.501   3.192  20.467  0.00  0.00    +0.000 OA
ATOM     12  H   UNL     1      -0.198   3.443  21.097  0.00  0.00    +0.000 HD
ENDBRANCH   9  11
ENDBRANCH   6   9
ENDBRANCH   1   3
BRANCH   1  14
ATOM     13  C   UNL     1       6.534   5.122  15.640  0.00  0.00    +0.000 C 
ATOM     14  N   UNL     1       5.437   5.702  16.007  0.00  0.00    +0.000 NA
BRANCH  13  19
ATOM     15  C   UNL     1       5.407   2.483  11.765  0.00  0.00    +0.000 C 
ATOM     16  C   UNL     1       6.182   3.504  12.495  0.00  0.00    +0.000 A 
ATOM     17  C   UNL     1       7.223   4.329  12.133  0.00  0.00    +0.000 A 
ATOM     18  C   UNL     1       7.542   5.092  13.277  0.00  0.00    +0.000 A 
ATOM     19  C   UNL     1       6.675   4.690  14.277  0.00  0.00    +0.000 A 
ATOM     20  O   UNL     1       5.840   3.718  13.800  0.00  0.00    +0.000 OA
ENDBRANCH  13  19
ENDBRANCH   1  14
TORSDOF 5
ENDMDL
MODEL 5
REMARK VINA RESULT:      -6.7      1.399      1.899
REMARK  Name = 
REMARK  6 active torsions:
REMARK  status: ('A' for Active; 'I' for Inactive)
REMARK    1  A    between atoms: C_1  and  C_2
REMARK    2  A    between atoms: C_5  and  C_6
REMARK    3  A    between atoms: N_7  and  N_8
REMARK    4  A    between atoms: N_8  and  C_9
REMARK    5  A    between atoms: C_12  and  C_13
REMARK    6  A    between atoms: C_13  and  O_15
REMARK                            x       y       z     vdW  Elec       q    Type
REMARK                         _______ _______ _______ _____ _____    ______ ____
ROOT
ATOM      1  N   UNL     1       5.655   5.599  17.858  0.00  0.00    +0.000 N 
ATOM      2  H   UNL     1       6.008   6.375  18.412  0.00  0.00    +0.000 HD
ENDROOT
BRANCH   1   3
ATOM      3  C   UNL     1       4.485   4.983  18.354  0.00  0.00    +0.000 A 
ATOM      4  C   UNL     1       3.210   5.331  17.882  0.00  0.00    +0.000 A 
ATOM      5  C   UNL     1       2.066   4.647  18.303  0.00  0.00    +0.000 A 
ATOM      6  C   UNL     1       2.176   3.582  19.199  0.00  0.00    +0.000 A 
ATOM      7  C   UNL     1       3.443   3.200  19.659  0.00  0.00    +0.000 A 
ATOM      8  C   UNL     1       4.585   3.898  19.237  0.00  0.00    +0.000 A 
BRANCH   6   9
ATOM      9  C   UNL     1       0.932   2.856  19.566  0.00  0.00    +0.000 C 
ATOM     10  O   UNL     1       0.268   2.230  18.757  0.00  0.00    +0.000 OA
BRANCH   9  11
ATOM     11  O   UNL     1       0.579   2.980  20.862  0.00  0.00    +0.000 OA
ATOM     12  H   UNL     1       0.106   3.802  21.082  0.00  0.00    +0.000 HD
ENDBRANCH   9  11
ENDBRANCH   6   9
ENDBRANCH   1   3
BRANCH   1  14
ATOM     13  C   UNL     1       6.351   4.455  16.031  0.00  0.00    +0.000 C 
ATOM     14  N   UNL     1       5.865   5.553  16.516  0.00  0.00    +0.000 NA
BRANCH  13  19
ATOM     15  C   UNL     1       5.650   2.593  11.639  0.00  0.00    +0.000 C 
ATOM     16  C   UNL     1       6.267   3.525  12.602  0.00  0.00    +0.000 A 
ATOM     17  C   UNL     1       7.187   4.540  12.467  0.00  0.00    +0.000 A 
ATOM     18  C   UNL     1       7.383   5.072  13.761  0.00  0.00    +0.000 A 
ATOM     19  C   UNL     1       6.568   4.352  14.614  0.00  0.00    +0.000 A 
ATOM     20  O   UNL     1       5.882   3.404  13.907  0.00  0.00    +0.000 OA
ENDBRANCH  13  19
ENDBRANCH   1  14
TORSDOF 5
ENDMDL
MODEL 6
REMARK VINA RESULT:      -6.7      3.137      7.392
REMARK  Name = 
REMARK  6 active torsions:
REMARK  status: ('A' for Active; 'I' for Inactive)
REMARK    1  A    between atoms: C_1  and  C_2
REMARK    2  A    between atoms: C_5  and  C_6
REMARK    3  A    between atoms: N_7  and  N_8
REMARK    4  A    between atoms: N_8  and  C_9
REMARK    5  A    between atoms: C_12  and  C_13
REMARK    6  A    between atoms: C_13  and  O_15
REMARK                            x       y       z     vdW  Elec       q    Type
REMARK                         _______ _______ _______ _____ _____    ______ ____
ROOT
ATOM      1  N   UNL     1       6.240   4.103  17.694  0.00  0.00    +0.000 N 
ATOM      2  H   UNL     1       6.384   3.613  16.814  0.00  0.00    +0.000 HD
ENDROOT
BRANCH   1   3
ATOM      3  C   UNL     1       6.866   5.365  17.795  0.00  0.00    +0.000 A 
ATOM      4  C   UNL     1       6.510   6.435  16.959  0.00  0.00    +0.000 A 
ATOM      5  C   UNL     1       7.061   7.707  17.132  0.00  0.00    +0.000 A 
ATOM      6  C   UNL     1       7.973   7.943  18.162  0.00  0.00    +0.000 A 
ATOM      7  C   UNL     1       8.320   6.895  19.024  0.00  0.00    +0.000 A 
ATOM      8  C   UNL     1       7.768   5.618  18.838  0.00  0.00    +0.000 A 
BRANCH   6   9
ATOM      9  C   UNL     1       8.481   9.330  18.332  0.00  0.00    +0.000 C 
ATOM     10  O   UNL     1       8.184  10.240  17.578  0.00  0.00    +0.000 OA
BRANCH   9  11
ATOM     11  O   UNL     1       9.329   9.486  19.370  0.00  0.00    +0.000 OA
ATOM     12  H   UNL     1      10.031   8.814  19.432  0.00  0.00    +0.000 HD
ENDBRANCH   9  11
ENDBRANCH   6   9
ENDBRANCH   1   3
BRANCH   1  14
ATOM     13  C   UNL     1       4.090   3.398  17.803  0.00  0.00    +0.000 C 
ATOM     14  N   UNL     1       5.108   3.907  18.420  0.00  0.00    +0.000 NA
BRANCH  13  19
ATOM     15  C   UNL     1       1.493   2.593  21.786  0.00  0.00    +0.000 C 
ATOM     16  C   UNL     1       1.671   2.785  20.334  0.00  0.00    +0.000 A 
ATOM     17  C   UNL     1       0.792   2.794  19.274  0.00  0.00    +0.000 A 
ATOM     18  C   UNL     1       1.568   3.029  18.117  0.00  0.00    +0.000 A 
ATOM     19  C   UNL     1       2.880   3.150  18.536  0.00  0.00    +0.000 A 
ATOM     20  O   UNL     1       2.946   3.002  19.894  0.00  0.00    +0.000 OA
ENDBRANCH  13  19
ENDBRANCH   1  14
TORSDOF 5
ENDMDL
MODEL 7
REMARK VINA RESULT:      -6.5      2.503      3.604
REMARK  Name = 
REMARK  6 active torsions:
REMARK  status: ('A' for Active; 'I' for Inactive)
REMARK    1  A    between atoms: C_1  and  C_2
REMARK    2  A    between atoms: C_5  and  C_6
REMARK    3  A    between atoms: N_7  and  N_8
REMARK    4  A    between atoms: N_8  and  C_9
REMARK    5  A    between atoms: C_12  and  C_13
REMARK    6  A    between atoms: C_13  and  O_15
REMARK                            x       y       z     vdW  Elec       q    Type
REMARK                         _______ _______ _______ _____ _____    ______ ____
ROOT
ATOM      1  N   UNL     1       7.443   5.741  15.545  0.00  0.00    +0.000 N 
ATOM      2  H   UNL     1       8.193   6.426  15.610  0.00  0.00    +0.000 HD
ENDROOT
BRANCH   1   3
ATOM      3  C   UNL     1       6.458   5.824  16.553  0.00  0.00    +0.000 A 
ATOM      4  C   UNL     1       5.277   6.561  16.373  0.00  0.00    +0.000 A 
ATOM      5  C   UNL     1       4.262   6.555  17.333  0.00  0.00    +0.000 A 
ATOM      6  C   UNL     1       4.400   5.793  18.495  0.00  0.00    +0.000 A 
ATOM      7  C   UNL     1       5.558   5.028  18.680  0.00  0.00    +0.000 A 
ATOM      8  C   UNL     1       6.576   5.046  17.714  0.00  0.00    +0.000 A 
BRANCH   6   9
ATOM      9  C   UNL     1       3.263   5.781  19.453  0.00  0.00    +0.000 C 
ATOM     10  O   UNL     1       2.534   6.743  19.627  0.00  0.00    +0.000 OA
BRANCH   9  11
ATOM     11  O   UNL     1       3.130   4.627  20.140  0.00  0.00    +0.000 OA
ATOM     12  H   UNL     1       3.966   4.224  20.432  0.00  0.00    +0.000 HD
ENDBRANCH   9  11
ENDBRANCH   6   9
ENDBRANCH   1   3
BRANCH   1  14
ATOM     13  C   UNL     1       6.475   4.087  14.339  0.00  0.00    +0.000 C 
ATOM     14  N   UNL     1       7.066   5.239  14.341  0.00  0.00    +0.000 NA
BRANCH  13  19
ATOM     15  C   UNL     1       3.291   3.256  10.813  0.00  0.00    +0.000 C 
ATOM     16  C   UNL     1       4.607   3.134  11.469  0.00  0.00    +0.000 A 
ATOM     17  C   UNL     1       5.774   2.491  11.119  0.00  0.00    +0.000 A 
ATOM     18  C   UNL     1       6.693   2.743  12.161  0.00  0.00    +0.000 A 
ATOM     19  C   UNL     1       6.036   3.527  13.091  0.00  0.00    +0.000 A 
ATOM     20  O   UNL     1       4.758   3.769  12.668  0.00  0.00    +0.000 OA
ENDBRANCH  13  19
ENDBRANCH   1  14
TORSDOF 5
ENDMDL
MODEL 8
REMARK VINA RESULT:      -6.5      1.068      1.314
REMARK  Name = 
REMARK  6 active torsions:
REMARK  status: ('A' for Active; 'I' for Inactive)
REMARK    1  A    between atoms: C_1  and  C_2
REMARK    2  A    between atoms: C_5  and  C_6
REMARK    3  A    between atoms: N_7  and  N_8
REMARK    4  A    between atoms: N_8  and  C_9
REMARK    5  A    between atoms: C_12  and  C_13
REMARK    6  A    between atoms: C_13  and  O_15
REMARK                            x       y       z     vdW  Elec       q    Type
REMARK                         _______ _______ _______ _____ _____    ______ ____
ROOT
ATOM      1  N   UNL     1       6.050   5.078  18.390  0.00  0.00    +0.000 N 
ATOM      2  H   UNL     1       6.457   5.680  19.102  0.00  0.00    +0.000 HD
ENDROOT
BRANCH   1   3
ATOM      3  C   UNL     1       4.772   4.560  18.692  0.00  0.00    +0.000 A 
ATOM      4  C   UNL     1       3.598   5.178  18.233  0.00  0.00    +0.000 A 
ATOM      5  C   UNL     1       2.342   4.604  18.449  0.00  0.00    +0.000 A 
ATOM      6  C   UNL     1       2.234   3.384  19.118  0.00  0.00    +0.000 A 
ATOM      7  C   UNL     1       3.396   2.737  19.558  0.00  0.00    +0.000 A 
ATOM      8  C   UNL     1       4.652   3.325  19.344  0.00  0.00    +0.000 A 
BRANCH   6   9
ATOM      9  C   UNL     1       0.877   2.794  19.267  0.00  0.00    +0.000 C 
ATOM     10  O   UNL     1       0.368   2.083  18.417  0.00  0.00    +0.000 OA
BRANCH   9  11
ATOM     11  O   UNL     1       0.242   3.145  20.405  0.00  0.00    +0.000 OA
ATOM     12  H   UNL     1       0.533   2.667  21.201  0.00  0.00    +0.000 HD
ENDBRANCH   9  11
ENDBRANCH   6   9
ENDBRANCH   1   3
BRANCH   1  14
ATOM     13  C   UNL     1       6.272   4.208  16.310  0.00  0.00    +0.000 C 
ATOM     14  N   UNL     1       6.364   5.246  17.079  0.00  0.00    +0.000 NA
BRANCH  13  19
ATOM     15  C   UNL     1       8.635   6.008  12.512  0.00  0.00    +0.000 C 
ATOM     16  C   UNL     1       7.632   5.144  13.163  0.00  0.00    +0.000 A 
ATOM     17  C   UNL     1       6.716   4.238  12.677  0.00  0.00    +0.000 A 
ATOM     18  C   UNL     1       6.033   3.723  13.800  0.00  0.00    +0.000 A 
ATOM     19  C   UNL     1       6.571   4.343  14.912  0.00  0.00    +0.000 A 
ATOM     20  O   UNL     1       7.552   5.214  14.525  0.00  0.00    +0.000 OA
ENDBRANCH  13  19
ENDBRANCH   1  14
TORSDOF 5
ENDMDL
MODEL 9
REMARK VINA RESULT:      -6.5      6.637      9.143
REMARK  Name = 
REMARK  6 active torsions:
REMARK  status: ('A' for Active; 'I' for Inactive)
REMARK    1  A    between atoms: C_1  and  C_2
REMARK    2  A    between atoms: C_5  and  C_6
REMARK    3  A    between atoms: N_7  and  N_8
REMARK    4  A    between atoms: N_8  and  C_9
REMARK    5  A    between atoms: C_12  and  C_13
REMARK    6  A    between atoms: C_13  and  O_15
REMARK                            x       y       z     vdW  Elec       q    Type
REMARK                         _______ _______ _______ _____ _____    ______ ____
ROOT
ATOM      1  N   UNL     1       8.979   9.199  18.950  0.00  0.00    +0.000 N 
ATOM      2  H   UNL     1       9.677   8.624  19.416  0.00  0.00    +0.000 HD
ENDROOT
BRANCH   1   3
ATOM      3  C   UNL     1       9.326  10.556  18.782  0.00  0.00    +0.000 A 
ATOM      4  C   UNL     1      10.458  11.112  19.399  0.00  0.00    +0.000 A 
ATOM      5  C   UNL     1      10.853  12.428  19.147  0.00  0.00    +0.000 A 
ATOM      6  C   UNL     1      10.128  13.218  18.252  0.00  0.00    +0.000 A 
ATOM      7  C   UNL     1       9.012  12.674  17.604  0.00  0.00    +0.000 A 
ATOM      8  C   UNL     1       8.618  11.353  17.870  0.00  0.00    +0.000 A 
BRANCH   6   9
ATOM      9  C   UNL     1      10.629  14.592  17.980  0.00  0.00    +0.000 C 
ATOM     10  O   UNL     1      11.036  15.333  18.858  0.00  0.00    +0.000 OA
BRANCH   9  11
ATOM     11  O   UNL     1      10.558  14.961  16.684  0.00  0.00    +0.000 OA
ATOM     12  H   UNL     1      11.137  15.702  16.436  0.00  0.00    +0.000 HD
ENDBRANCH   9  11
ENDBRANCH   6   9
ENDBRANCH   1   3
BRANCH   1  14
ATOM     13  C   UNL     1       7.895   7.384  18.136  0.00  0.00    +0.000 C 
ATOM     14  N   UNL     1       8.124   8.654  18.045  0.00  0.00    +0.000 NA
BRANCH  13  19
ATOM     15  C   UNL     1       6.695   4.586  14.396  0.00  0.00    +0.000 C 
ATOM     16  C   UNL     1       6.404   5.500  15.517  0.00  0.00    +0.000 A 
ATOM     17  C   UNL     1       5.234   6.025  16.020  0.00  0.00    +0.000 A 
ATOM     18  C   UNL     1       5.603   6.842  17.111  0.00  0.00    +0.000 A 
ATOM     19  C   UNL     1       6.980   6.770  17.215  0.00  0.00    +0.000 A 
ATOM     20  O   UNL     1       7.473   5.947  16.240  0.00  0.00    +0.000 OA
ENDBRANCH  13  19
ENDBRANCH   1  14
TORSDOF 5
ENDMDL
