MODEL 1
REMARK VINA RESULT:      -8.6      0.000      0.000
REMARK  Name = 
REMARK  2 active torsions:
REMARK  status: ('A' for Active; 'I' for Inactive)
REMARK    1  A    between atoms: C_5  and  C_6
REMARK    2  A    between atoms: N_19  and  C_20
REMARK                            x       y       z     vdW  Elec       q    Type
REMARK                         _______ _______ _______ _____ _____    ______ ____
ROOT
ATOM      1  O   UNL     1      -0.032  10.175  23.506  0.00  0.00    +0.000 OA
ATOM      2  C   UNL     1      -0.069  10.500  22.318  0.00  0.00    +0.000 A 
ATOM      3  C   UNL     1       0.584   9.739  21.260  0.00  0.00    +0.000 A 
ATOM      4  N   UNL     1       1.172   8.571  21.373  0.00  0.00    +0.000 NA
ATOM      5  C   UNL     1       1.545   8.225  20.092  0.00  0.00    +0.000 A 
ATOM      6  C   UNL     1       1.259   9.249  19.213  0.00  0.00    +0.000 A 
ATOM      7  N   UNL     1       0.567  10.167  19.958  0.00  0.00    +0.000 N 
ATOM      8  C   UNL     1      -0.110  11.303  19.570  0.00  0.00    +0.000 A 
ATOM      9  C   UNL     1      -0.797  11.998  20.483  0.00  0.00    +0.000 A 
ATOM     10  N   UNL     1      -0.795  11.641  21.837  0.00  0.00    +0.000 N 
ENDROOT
BRANCH   5  11
ATOM     11  C   UNL     1       2.097   6.922  19.775  0.00  0.00    +0.000 A 
ATOM     12  C   UNL     1       1.917   5.795  20.608  0.00  0.00    +0.000 A 
ATOM     13  C   UNL     1       2.464   4.551  20.263  0.00  0.00    +0.000 A 
ATOM     14  C   UNL     1       3.157   4.468  19.075  0.00  0.00    +0.000 A 
ATOM     15  C   UNL     1       3.355   5.565  18.272  0.00  0.00    +0.000 A 
ATOM     16  C   UNL     1       2.852   6.801  18.598  0.00  0.00    +0.000 A 
ATOM     17  O   UNL     1       4.052   5.264  17.144  0.00  0.00    +0.000 OA
ATOM     18  C   UNL     1       4.037   3.827  17.221  0.00  0.00    +0.000 C 
ATOM     19  O   UNL     1       3.695   3.339  18.537  0.00  0.00    +0.000 OA
ENDBRANCH   5  11
BRANCH  10  20
ATOM     20  C   UNL     1      -1.507  12.440  22.776  0.00  0.00    +0.000 A 
ATOM     21  C   UNL     1      -0.998  13.683  23.172  0.00  0.00    +0.000 A 
ATOM     22  C   UNL     1      -1.752  14.519  23.995  0.00  0.00    +0.000 A 
ATOM     23  C   UNL     1      -2.998  14.098  24.462  0.00  0.00    +0.000 A 
ATOM     24  C   UNL     1      -3.484  12.843  24.104  0.00  0.00    +0.000 A 
ATOM     25 CL   UNL     1      -5.001  12.307  24.716  0.00  0.00    +0.000 Cl
ATOM     26  C   UNL     1      -2.756  12.020  23.248  0.00  0.00    +0.000 A 
ENDBRANCH  10  20
TORSDOF 2
ENDMDL
MODEL 2
REMARK VINA RESULT:      -8.6      0.730      1.504
REMARK  Name = 
REMARK  2 active torsions:
REMARK  status: ('A' for Active; 'I' for Inactive)
REMARK    1  A    between atoms: C_5  and  C_6
REMARK    2  A    between atoms: N_19  and  C_20
REMARK                            x       y       z     vdW  Elec       q    Type
REMARK                         _______ _______ _______ _____ _____    ______ ____
ROOT
ATOM      1  O   UNL     1       0.065  10.149  23.463  0.00  0.00    +0.000 OA
ATOM      2  C   UNL     1       0.007  10.460  22.272  0.00  0.00    +0.000 A 
ATOM      3  C   UNL     1       0.653   9.695  21.214  0.00  0.00    +0.000 A 
ATOM      4  N   UNL     1       1.257   8.535  21.330  0.00  0.00    +0.000 NA
ATOM      5  C   UNL     1       1.615   8.179  20.048  0.00  0.00    +0.000 A 
ATOM      6  C   UNL     1       1.305   9.190  19.162  0.00  0.00    +0.000 A 
ATOM      7  N   UNL     1       0.613  10.108  19.908  0.00  0.00    +0.000 N 
ATOM      8  C   UNL     1      -0.083  11.232  19.516  0.00  0.00    +0.000 A 
ATOM      9  C   UNL     1      -0.765  11.928  20.432  0.00  0.00    +0.000 A 
ATOM     10  N   UNL     1      -0.739  11.587  21.789  0.00  0.00    +0.000 N 
ENDROOT
BRANCH   5  11
ATOM     11  C   UNL     1       2.178   6.879  19.737  0.00  0.00    +0.000 A 
ATOM     12  C   UNL     1       2.965   6.644  18.586  0.00  0.00    +0.000 A 
ATOM     13  C   UNL     1       3.494   5.373  18.325  0.00  0.00    +0.000 A 
ATOM     14  C   UNL     1       3.240   4.376  19.242  0.00  0.00    +0.000 A 
ATOM     15  C   UNL     1       2.457   4.593  20.350  0.00  0.00    +0.000 A 
ATOM     16  C   UNL     1       1.905   5.821  20.618  0.00  0.00    +0.000 A 
ATOM     17  O   UNL     1       2.342   3.484  21.129  0.00  0.00    +0.000 OA
ATOM     18  C   UNL     1       3.341   2.648  20.515  0.00  0.00    +0.000 C 
ATOM     19  O   UNL     1       3.726   3.105  19.201  0.00  0.00    +0.000 OA
ENDBRANCH   5  11
BRANCH  10  20
ATOM     20  C   UNL     1      -1.447  12.389  22.730  0.00  0.00    +0.000 A 
ATOM     21  C   UNL     1      -0.946  13.640  23.106  0.00  0.00    +0.000 A 
ATOM     22  C   UNL     1      -1.697  14.477  23.931  0.00  0.00    +0.000 A 
ATOM     23  C   UNL     1      -2.932  14.048  24.419  0.00  0.00    +0.000 A 
ATOM     24  C   UNL     1      -3.410  12.784  24.080  0.00  0.00    +0.000 A 
ATOM     25 CL   UNL     1      -4.913  12.239  24.718  0.00  0.00    +0.000 Cl
ATOM     26  C   UNL     1      -2.685  11.960  23.222  0.00  0.00    +0.000 A 
ENDBRANCH  10  20
TORSDOF 2
ENDMDL
MODEL 3
REMARK VINA RESULT:      -8.4      5.158     10.623
REMARK  Name = 
REMARK  2 active torsions:
REMARK  status: ('A' for Active; 'I' for Inactive)
REMARK    1  A    between atoms: C_5  and  C_6
REMARK    2  A    between atoms: N_19  and  C_20
REMARK                            x       y       z     vdW  Elec       q    Type
REMARK                         _______ _______ _______ _____ _____    ______ ____
ROOT
ATOM      1  O   UNL     1       4.946   7.169  15.187  0.00  0.00    +0.000 OA
ATOM      2  C   UNL     1       4.808   6.248  15.994  0.00  0.00    +0.000 A 
ATOM      3  C   UNL     1       4.120   6.400  17.270  0.00  0.00    +0.000 A 
ATOM      4  N   UNL     1       3.452   7.449  17.690  0.00  0.00    +0.000 NA
ATOM      5  C   UNL     1       2.910   7.077  18.901  0.00  0.00    +0.000 A 
ATOM      6  C   UNL     1       3.342   5.816  19.255  0.00  0.00    +0.000 A 
ATOM      7  N   UNL     1       4.039   5.365  18.165  0.00  0.00    +0.000 N 
ATOM      8  C   UNL     1       4.550   4.116  17.888  0.00  0.00    +0.000 A 
ATOM      9  C   UNL     1       5.119   3.893  16.698  0.00  0.00    +0.000 A 
ATOM     10  N   UNL     1       5.270   4.912  15.750  0.00  0.00    +0.000 N 
ENDROOT
BRANCH   5  11
ATOM     11  C   UNL     1       1.972   7.919  19.617  0.00  0.00    +0.000 A 
ATOM     12  C   UNL     1       1.525   7.622  20.925  0.00  0.00    +0.000 A 
ATOM     13  C   UNL     1       0.621   8.466  21.585  0.00  0.00    +0.000 A 
ATOM     14  C   UNL     1       0.208   9.600  20.921  0.00  0.00    +0.000 A 
ATOM     15  C   UNL     1       0.620   9.882  19.641  0.00  0.00    +0.000 A 
ATOM     16  C   UNL     1       1.486   9.060  18.962  0.00  0.00    +0.000 A 
ATOM     17  O   UNL     1       0.106  11.052  19.176  0.00  0.00    +0.000 OA
ATOM     18  C   UNL     1      -0.454  11.576  20.395  0.00  0.00    +0.000 C 
ATOM     19  O   UNL     1      -0.604  10.571  21.421  0.00  0.00    +0.000 OA
ENDBRANCH   5  11
BRANCH  10  20
ATOM     20  C   UNL     1       5.924   4.632  14.515  0.00  0.00    +0.000 A 
ATOM     21  C   UNL     1       7.154   5.231  14.219  0.00  0.00    +0.000 A 
ATOM     22  C   UNL     1       7.852   4.865  13.069  0.00  0.00    +0.000 A 
ATOM     23  C   UNL     1       7.303   3.932  12.187  0.00  0.00    +0.000 A 
ATOM     24  C   UNL     1       6.058   3.370  12.461  0.00  0.00    +0.000 A 
ATOM     25 CL   UNL     1       5.363   2.253  11.352  0.00  0.00    +0.000 Cl
ATOM     26  C   UNL     1       5.375   3.698  13.629  0.00  0.00    +0.000 A 
ENDBRANCH  10  20
TORSDOF 2
ENDMDL
MODEL 4
REMARK VINA RESULT:      -8.2      1.321      2.103
REMARK  Name = 
REMARK  2 active torsions:
REMARK  status: ('A' for Active; 'I' for Inactive)
REMARK    1  A    between atoms: C_5  and  C_6
REMARK    2  A    between atoms: N_19  and  C_20
REMARK                            x       y       z     vdW  Elec       q    Type
REMARK                         _______ _______ _______ _____ _____    ______ ____
ROOT
ATOM      1  O   UNL     1      -0.143  10.334  23.476  0.00  0.00    +0.000 OA
ATOM      2  C   UNL     1      -0.168  10.611  22.276  0.00  0.00    +0.000 A 
ATOM      3  C   UNL     1       0.514   9.820  21.259  0.00  0.00    +0.000 A 
ATOM      4  N   UNL     1       1.122   8.669  21.427  0.00  0.00    +0.000 NA
ATOM      5  C   UNL     1       1.520   8.279  20.166  0.00  0.00    +0.000 A 
ATOM      6  C   UNL     1       1.229   9.262  19.243  0.00  0.00    +0.000 A 
ATOM      7  N   UNL     1       0.509  10.196  19.941  0.00  0.00    +0.000 N 
ATOM      8  C   UNL     1      -0.182  11.303  19.497  0.00  0.00    +0.000 A 
ATOM      9  C   UNL     1      -0.896  12.020  20.372  0.00  0.00    +0.000 A 
ATOM     10  N   UNL     1      -0.907  11.718  21.739  0.00  0.00    +0.000 N 
ENDROOT
BRANCH   5  11
ATOM     11  C   UNL     1       2.100   6.975  19.910  0.00  0.00    +0.000 A 
ATOM     12  C   UNL     1       3.010   6.740  18.853  0.00  0.00    +0.000 A 
ATOM     13  C   UNL     1       3.552   5.464  18.643  0.00  0.00    +0.000 A 
ATOM     14  C   UNL     1       3.184   4.464  19.515  0.00  0.00    +0.000 A 
ATOM     15  C   UNL     1       2.283   4.681  20.530  0.00  0.00    +0.000 A 
ATOM     16  C   UNL     1       1.717   5.914  20.744  0.00  0.00    +0.000 A 
ATOM     17  O   UNL     1       2.068   3.567  21.280  0.00  0.00    +0.000 OA
ATOM     18  C   UNL     1       3.120   2.724  20.776  0.00  0.00    +0.000 C 
ATOM     19  O   UNL     1       3.657   3.187  19.518  0.00  0.00    +0.000 OA
ENDBRANCH   5  11
BRANCH  10  20
ATOM     20  C   UNL     1      -1.647  12.541  22.635  0.00  0.00    +0.000 A 
ATOM     21  C   UNL     1      -2.956  12.195  22.990  0.00  0.00    +0.000 A 
ATOM     22  C   UNL     1      -3.637  12.931  23.960  0.00  0.00    +0.000 A 
ATOM     23  C   UNL     1      -3.029  14.042  24.546  0.00  0.00    +0.000 A 
ATOM     24  C   UNL     1      -1.742  14.412  24.160  0.00  0.00    +0.000 A 
ATOM     25 CL   UNL     1      -1.010  15.807  24.851  0.00  0.00    +0.000 Cl
ATOM     26  C   UNL     1      -1.040  13.657  23.223  0.00  0.00    +0.000 A 
ENDBRANCH  10  20
TORSDOF 2
ENDMDL
MODEL 5
REMARK VINA RESULT:      -8.2      1.058      1.417
REMARK  Name = 
REMARK  2 active torsions:
REMARK  status: ('A' for Active; 'I' for Inactive)
REMARK    1  A    between atoms: C_5  and  C_6
REMARK    2  A    between atoms: N_19  and  C_20
REMARK                            x       y       z     vdW  Elec       q    Type
REMARK                         _______ _______ _______ _____ _____    ______ ____
ROOT
ATOM      1  O   UNL     1      -0.195  10.363  23.435  0.00  0.00    +0.000 OA
ATOM      2  C   UNL     1      -0.214  10.676  22.243  0.00  0.00    +0.000 A 
ATOM      3  C   UNL     1       0.470   9.914  21.206  0.00  0.00    +0.000 A 
ATOM      4  N   UNL     1       1.074   8.756  21.342  0.00  0.00    +0.000 NA
ATOM      5  C   UNL     1       1.476   8.402  20.073  0.00  0.00    +0.000 A 
ATOM      6  C   UNL     1       1.192   9.414  19.178  0.00  0.00    +0.000 A 
ATOM      7  N   UNL     1       0.472  10.328  19.900  0.00  0.00    +0.000 N 
ATOM      8  C   UNL     1      -0.214  11.450  19.486  0.00  0.00    +0.000 A 
ATOM      9  C   UNL     1      -0.929  12.143  20.379  0.00  0.00    +0.000 A 
ATOM     10  N   UNL     1      -0.948  11.801  21.736  0.00  0.00    +0.000 N 
ENDROOT
BRANCH   5  11
ATOM     11  C   UNL     1       2.054   7.105  19.780  0.00  0.00    +0.000 A 
ATOM     12  C   UNL     1       1.914   5.996  20.645  0.00  0.00    +0.000 A 
ATOM     13  C   UNL     1       2.485   4.757  20.322  0.00  0.00    +0.000 A 
ATOM     14  C   UNL     1       3.161   4.659  19.126  0.00  0.00    +0.000 A 
ATOM     15  C   UNL     1       3.320   5.739  18.293  0.00  0.00    +0.000 A 
ATOM     16  C   UNL     1       2.794   6.971  18.595  0.00  0.00    +0.000 A 
ATOM     17  O   UNL     1       4.007   5.426  17.161  0.00  0.00    +0.000 OA
ATOM     18  C   UNL     1       4.027   3.991  17.276  0.00  0.00    +0.000 C 
ATOM     19  O   UNL     1       3.717   3.529  18.608  0.00  0.00    +0.000 OA
ENDBRANCH   5  11
BRANCH  10  20
ATOM     20  C   UNL     1      -1.690  12.599  22.653  0.00  0.00    +0.000 A 
ATOM     21  C   UNL     1      -2.988  12.226  23.020  0.00  0.00    +0.000 A 
ATOM     22  C   UNL     1      -3.668  12.937  24.009  0.00  0.00    +0.000 A 
ATOM     23  C   UNL     1      -3.070  14.050  24.603  0.00  0.00    +0.000 A 
ATOM     24  C   UNL     1      -1.796  14.447  24.205  0.00  0.00    +0.000 A 
ATOM     25 CL   UNL     1      -1.077  15.844  24.906  0.00  0.00    +0.000 Cl
ATOM     26  C   UNL     1      -1.093  13.716  23.249  0.00  0.00    +0.000 A 
ENDBRANCH  10  20
TORSDOF 2
ENDMDL
MODEL 6
REMARK VINA RESULT:      -8.1      5.120     10.619
REMARK  Name = 
REMARK  2 active torsions:
REMARK  status: ('A' for Active; 'I' for Inactive)
REMARK    1  A    between atoms: C_5  and  C_6
REMARK    2  A    between atoms: N_19  and  C_20
REMARK                            x       y       z     vdW  Elec       q    Type
REMARK                         _______ _______ _______ _____ _____    ______ ____
ROOT
ATOM      1  O   UNL     1       5.123   7.141  15.377  0.00  0.00    +0.000 OA
ATOM      2  C   UNL     1       4.837   6.199  16.118  0.00  0.00    +0.000 A 
ATOM      3  C   UNL     1       4.071   6.353  17.348  0.00  0.00    +0.000 A 
ATOM      4  N   UNL     1       3.474   7.440  17.778  0.00  0.00    +0.000 NA
ATOM      5  C   UNL     1       2.808   7.062  18.924  0.00  0.00    +0.000 A 
ATOM      6  C   UNL     1       3.091   5.748  19.236  0.00  0.00    +0.000 A 
ATOM      7  N   UNL     1       3.824   5.287  18.174  0.00  0.00    +0.000 N 
ATOM      8  C   UNL     1       4.235   4.009  17.862  0.00  0.00    +0.000 A 
ATOM      9  C   UNL     1       4.870   3.792  16.705  0.00  0.00    +0.000 A 
ATOM     10  N   UNL     1       5.189   4.837  15.830  0.00  0.00    +0.000 N 
ENDROOT
BRANCH   5  11
ATOM     11  C   UNL     1       1.901   7.955  19.619  0.00  0.00    +0.000 A 
ATOM     12  C   UNL     1       1.472   7.724  20.946  0.00  0.00    +0.000 A 
ATOM     13  C   UNL     1       0.598   8.616  21.584  0.00  0.00    +0.000 A 
ATOM     14  C   UNL     1       0.197   9.730  20.879  0.00  0.00    +0.000 A 
ATOM     15  C   UNL     1       0.593   9.947  19.581  0.00  0.00    +0.000 A 
ATOM     16  C   UNL     1       1.428   9.078  18.923  0.00  0.00    +0.000 A 
ATOM     17  O   UNL     1       0.096  11.107  19.074  0.00  0.00    +0.000 OA
ATOM     18  C   UNL     1      -0.431  11.695  20.278  0.00  0.00    +0.000 C 
ATOM     19  O   UNL     1      -0.585  10.739  21.349  0.00  0.00    +0.000 OA
ENDBRANCH   5  11
BRANCH  10  20
ATOM     20  C   UNL     1       5.906   4.558  14.632  0.00  0.00    +0.000 A 
ATOM     21  C   UNL     1       5.409   3.624  13.716  0.00  0.00    +0.000 A 
ATOM     22  C   UNL     1       6.045   3.441  12.488  0.00  0.00    +0.000 A 
ATOM     23  C   UNL     1       7.205   4.157  12.190  0.00  0.00    +0.000 A 
ATOM     24  C   UNL     1       7.724   5.053  13.121  0.00  0.00    +0.000 A 
ATOM     25 CL   UNL     1       9.178   5.904  12.770  0.00  0.00    +0.000 Cl
ATOM     26  C   UNL     1       7.071   5.274  14.331  0.00  0.00    +0.000 A 
ENDBRANCH  10  20
TORSDOF 2
ENDMDL
MODEL 7
REMARK VINA RESULT:      -8.1      2.633      3.670
REMARK  Name = 
REMARK  2 active torsions:
REMARK  status: ('A' for Active; 'I' for Inactive)
REMARK    1  A    between atoms: C_5  and  C_6
REMARK    2  A    between atoms: N_19  and  C_20
REMARK                            x       y       z     vdW  Elec       q    Type
REMARK                         _______ _______ _______ _____ _____    ______ ____
ROOT
ATOM      1  O   UNL     1       1.065  10.445  17.935  0.00  0.00    +0.000 OA
ATOM      2  C   UNL     1       1.195   9.741  18.938  0.00  0.00    +0.000 A 
ATOM      3  C   UNL     1       1.795   8.413  18.909  0.00  0.00    +0.000 A 
ATOM      4  N   UNL     1       2.387   7.833  17.892  0.00  0.00    +0.000 NA
ATOM      5  C   UNL     1       2.870   6.639  18.382  0.00  0.00    +0.000 A 
ATOM      6  C   UNL     1       2.474   6.459  19.691  0.00  0.00    +0.000 A 
ATOM      7  N   UNL     1       1.867   7.638  20.038  0.00  0.00    +0.000 N 
ATOM      8  C   UNL     1       1.431   8.089  21.264  0.00  0.00    +0.000 A 
ATOM      9  C   UNL     1       0.947   9.332  21.369  0.00  0.00    +0.000 A 
ATOM     10  N   UNL     1       0.809  10.166  20.253  0.00  0.00    +0.000 N 
ENDROOT
BRANCH   5  11
ATOM     11  C   UNL     1       3.723   5.770  17.594  0.00  0.00    +0.000 A 
ATOM     12  C   UNL     1       3.604   4.362  17.615  0.00  0.00    +0.000 A 
ATOM     13  C   UNL     1       4.446   3.558  16.833  0.00  0.00    +0.000 A 
ATOM     14  C   UNL     1       5.370   4.193  16.033  0.00  0.00    +0.000 A 
ATOM     15  C   UNL     1       5.506   5.560  16.026  0.00  0.00    +0.000 A 
ATOM     16  C   UNL     1       4.712   6.371  16.800  0.00  0.00    +0.000 A 
ATOM     17  O   UNL     1       6.465   5.983  15.159  0.00  0.00    +0.000 OA
ATOM     18  C   UNL     1       6.720   4.752  14.456  0.00  0.00    +0.000 C 
ATOM     19  O   UNL     1       6.220   3.592  15.155  0.00  0.00    +0.000 OA
ENDBRANCH   5  11
BRANCH  10  20
ATOM     20  C   UNL     1       0.246  11.464  20.411  0.00  0.00    +0.000 A 
ATOM     21  C   UNL     1       1.079  12.582  20.534  0.00  0.00    +0.000 A 
ATOM     22  C   UNL     1       0.531  13.865  20.565  0.00  0.00    +0.000 A 
ATOM     23  C   UNL     1      -0.854  14.032  20.519  0.00  0.00    +0.000 A 
ATOM     24  C   UNL     1      -1.684  12.916  20.441  0.00  0.00    +0.000 A 
ATOM     25 CL   UNL     1      -3.393  13.121  20.428  0.00  0.00    +0.000 Cl
ATOM     26  C   UNL     1      -1.143  11.635  20.366  0.00  0.00    +0.000 A 
ENDBRANCH  10  20
TORSDOF 2
ENDMDL
MODEL 8
REMARK VINA RESULT:      -8.0      4.989     10.574
REMARK  Name = 
REMARK  2 active torsions:
REMARK  status: ('A' for Active; 'I' for Inactive)
REMARK    1  A    between atoms: C_5  and  C_6
REMARK    2  A    between atoms: N_19  and  C_20
REMARK                            x       y       z     vdW  Elec       q    Type
REMARK                         _______ _______ _______ _____ _____    ______ ____
ROOT
ATOM      1  O   UNL     1       5.013   7.304  15.313  0.00  0.00    +0.000 OA
ATOM      2  C   UNL     1       4.711   6.385  16.077  0.00  0.00    +0.000 A 
ATOM      3  C   UNL     1       3.949   6.584  17.304  0.00  0.00    +0.000 A 
ATOM      4  N   UNL     1       3.372   7.692  17.707  0.00  0.00    +0.000 NA
ATOM      5  C   UNL     1       2.700   7.355  18.862  0.00  0.00    +0.000 A 
ATOM      6  C   UNL     1       2.960   6.044  19.206  0.00  0.00    +0.000 A 
ATOM      7  N   UNL     1       3.684   5.544  18.156  0.00  0.00    +0.000 N 
ATOM      8  C   UNL     1       4.072   4.252  17.876  0.00  0.00    +0.000 A 
ATOM      9  C   UNL     1       4.702   3.994  16.724  0.00  0.00    +0.000 A 
ATOM     10  N   UNL     1       5.038   5.011  15.824  0.00  0.00    +0.000 N 
ENDROOT
BRANCH   5  11
ATOM     11  C   UNL     1       1.810   8.281  19.535  0.00  0.00    +0.000 A 
ATOM     12  C   UNL     1       1.112   9.302  18.849  0.00  0.00    +0.000 A 
ATOM     13  C   UNL     1       0.257  10.174  19.537  0.00  0.00    +0.000 A 
ATOM     14  C   UNL     1       0.107   9.982  20.893  0.00  0.00    +0.000 A 
ATOM     15  C   UNL     1       0.800   9.006  21.568  0.00  0.00    +0.000 A 
ATOM     16  C   UNL     1       1.664   8.154  20.925  0.00  0.00    +0.000 A 
ATOM     17  O   UNL     1       0.499   8.978  22.894  0.00  0.00    +0.000 OA
ATOM     18  C   UNL     1      -0.635   9.866  22.907  0.00  0.00    +0.000 C 
ATOM     19  O   UNL     1      -0.729  10.674  21.714  0.00  0.00    +0.000 OA
ENDBRANCH   5  11
BRANCH  10  20
ATOM     20  C   UNL     1       5.749   4.689  14.633  0.00  0.00    +0.000 A 
ATOM     21  C   UNL     1       7.032   5.206  14.417  0.00  0.00    +0.000 A 
ATOM     22  C   UNL     1       7.776   4.795  13.312  0.00  0.00    +0.000 A 
ATOM     23  C   UNL     1       7.225   3.899  12.394  0.00  0.00    +0.000 A 
ATOM     24  C   UNL     1       5.932   3.419  12.586  0.00  0.00    +0.000 A 
ATOM     25 CL   UNL     1       5.237   2.349  11.432  0.00  0.00    +0.000 Cl
ATOM     26  C   UNL     1       5.198   3.792  13.710  0.00  0.00    +0.000 A 
ENDBRANCH  10  20
TORSDOF 2
ENDMDL
MODEL 9
REMARK VINA RESULT:      -8.0      2.640      3.902
REMARK  Name = 
REMARK  2 active torsions:
REMARK  status: ('A' for Active; 'I' for Inactive)
REMARK    1  A    between atoms: C_5  and  C_6
REMARK    2  A    between atoms: N_19  and  C_20
REMARK                            x       y       z     vdW  Elec       q    Type
REMARK                         _______ _______ _______ _____ _____    ______ ____
ROOT
ATOM      1  O   UNL     1       1.200  10.326  18.031  0.00  0.00    +0.000 OA
ATOM      2  C   UNL     1       1.194   9.522  18.965  0.00  0.00    +0.000 A 
ATOM      3  C   UNL     1       1.987   8.299  18.972  0.00  0.00    +0.000 A 
ATOM      4  N   UNL     1       2.894   7.938  18.094  0.00  0.00    +0.000 NA
ATOM      5  C   UNL     1       3.428   6.765  18.582  0.00  0.00    +0.000 A 
ATOM      6  C   UNL     1       2.760   6.368  19.723  0.00  0.00    +0.000 A 
ATOM      7  N   UNL     1       1.906   7.403  20.006  0.00  0.00    +0.000 N 
ATOM      8  C   UNL     1       1.120   7.631  21.114  0.00  0.00    +0.000 A 
ATOM      9  C   UNL     1       0.433   8.776  21.202  0.00  0.00    +0.000 A 
ATOM     10  N   UNL     1       0.438   9.721  20.168  0.00  0.00    +0.000 N 
ENDROOT
BRANCH   5  11
ATOM     11  C   UNL     1       4.574   6.124  17.966  0.00  0.00    +0.000 A 
ATOM     12  C   UNL     1       5.477   5.315  18.693  0.00  0.00    +0.000 A 
ATOM     13  C   UNL     1       6.570   4.710  18.058  0.00  0.00    +0.000 A 
ATOM     14  C   UNL     1       6.713   4.914  16.703  0.00  0.00    +0.000 A 
ATOM     15  C   UNL     1       5.852   5.718  15.996  0.00  0.00    +0.000 A 
ATOM     16  C   UNL     1       4.787   6.343  16.597  0.00  0.00    +0.000 A 
ATOM     17  O   UNL     1       6.163   5.775  14.673  0.00  0.00    +0.000 OA
ATOM     18  C   UNL     1       7.145   4.724  14.606  0.00  0.00    +0.000 C 
ATOM     19  O   UNL     1       7.662   4.355  15.903  0.00  0.00    +0.000 OA
ENDBRANCH   5  11
BRANCH  10  20
ATOM     20  C   UNL     1      -0.346  10.903  20.293  0.00  0.00    +0.000 A 
ATOM     21  C   UNL     1      -1.435  11.118  19.440  0.00  0.00    +0.000 A 
ATOM     22  C   UNL     1      -2.276  12.212  19.640  0.00  0.00    +0.000 A 
ATOM     23  C   UNL     1      -2.006  13.121  20.664  0.00  0.00    +0.000 A 
ATOM     24  C   UNL     1      -0.896  12.930  21.484  0.00  0.00    +0.000 A 
ATOM     25 CL   UNL     1      -0.539  14.074  22.719  0.00  0.00    +0.000 Cl
ATOM     26  C   UNL     1      -0.076  11.816  21.319  0.00  0.00    +0.000 A 
ENDBRANCH  10  20
TORSDOF 2
ENDMDL
