MODEL 1
REMARK VINA RESULT:      -8.1      0.000      0.000
REMARK  Name = 
REMARK  8 active torsions:
REMARK  status: ('A' for Active; 'I' for Inactive)
REMARK    1  A    between atoms: C_1  and  O_2
REMARK    2  A    between atoms: O_2  and  C_3
REMARK    3  A    between atoms: C_6  and  S_7
REMARK    4  A    between atoms: S_7  and  N_10
REMARK    5  A    between atoms: C_14  and  C_15
REMARK    6  A    between atoms: C_18  and  C_19
REMARK    7  A    between atoms: C_28  and  O_29
REMARK    8  A    between atoms: O_29  and  C_30
REMARK                            x       y       z     vdW  Elec       q    Type
REMARK                         _______ _______ _______ _____ _____    ______ ____
ROOT
ATOM      1  N   UNL     1       2.362   6.811  19.091  0.00  0.00    +0.000 N 
ATOM      2  N   UNL     1       3.657   6.720  18.658  0.00  0.00    +0.000 NA
ATOM      3  C   UNL     1       3.750   5.434  18.450  0.00  0.00    +0.000 A 
ATOM      4  N   UNL     1       4.573   4.877  17.491  0.00  0.00    +0.000 N 
ATOM      5  C   UNL     1       4.206   3.783  16.719  0.00  0.00    +0.000 A 
ATOM      6  C   UNL     1       2.852   3.119  16.744  0.00  0.00    +0.000 C 
ATOM      7  C   UNL     1       5.302   3.509  15.927  0.00  0.00    +0.000 A 
ATOM      8  C   UNL     1       6.316   4.451  16.230  0.00  0.00    +0.000 A 
ATOM      9  C   UNL     1       5.846   5.294  17.211  0.00  0.00    +0.000 A 
ATOM     10  C   UNL     1       6.527   6.378  17.994  0.00  0.00    +0.000 C 
ATOM     11  C   UNL     1       3.258   4.778  19.517  0.00  0.00    +0.000 A 
ATOM     12  C   UNL     1       3.710   3.591  20.120  0.00  0.00    +0.000 A 
ATOM     13  F   UNL     1       4.990   3.240  19.901  0.00  0.00    +0.000 F 
ATOM     14  C   UNL     1       2.959   2.843  20.950  0.00  0.00    +0.000 A 
ATOM     15  C   UNL     1       1.631   3.215  21.019  0.00  0.00    +0.000 A 
ATOM     16  C   UNL     1       1.112   4.467  20.389  0.00  0.00    +0.000 A 
ATOM     17  C   UNL     1       2.022   5.430  19.734  0.00  0.00    +0.000 A 
ENDROOT
BRANCH   1  18
ATOM     18  S   UNL     1       1.700   8.544  18.555  0.00  0.00    +0.000 S 
ATOM     19  O   UNL     1       0.845   8.327  17.424  0.00  0.00    +0.000 OA
ATOM     20  O   UNL     1       2.949   9.312  18.394  0.00  0.00    +0.000 OA
BRANCH  18  24
ATOM     21  C   UNL     1      -0.463  11.153  22.205  0.00  0.00    +0.000 A 
ATOM     22  C   UNL     1      -0.199   9.782  22.289  0.00  0.00    +0.000 A 
ATOM     23  C   UNL     1       0.417   9.035  21.210  0.00  0.00    +0.000 A 
ATOM     24  C   UNL     1       0.719   9.605  19.937  0.00  0.00    +0.000 A 
ATOM     25  C   UNL     1       0.489  10.991  19.867  0.00  0.00    +0.000 A 
ATOM     26  C   UNL     1      -0.112  11.764  20.974  0.00  0.00    +0.000 A 
BRANCH  21  28
ATOM     27  C   UNL     1      -2.486  11.972  23.301  0.00  0.00    +0.000 C 
ATOM     28  O   UNL     1      -1.044  11.849  23.250  0.00  0.00    +0.000 OA
ENDBRANCH  21  28
BRANCH  26  29
ATOM     29  O   UNL     1      -0.228  13.105  20.650  0.00  0.00    +0.000 OA
ATOM     30  C   UNL     1      -1.431  13.629  20.088  0.00  0.00    +0.000 C 
ENDBRANCH  26  29
ENDBRANCH  18  24
ENDBRANCH   1  18
TORSDOF 4
ENDMDL
MODEL 2
REMARK VINA RESULT:      -7.9      3.922      9.333
REMARK  Name = 
REMARK  8 active torsions:
REMARK  status: ('A' for Active; 'I' for Inactive)
REMARK    1  A    between atoms: C_1  and  O_2
REMARK    2  A    between atoms: O_2  and  C_3
REMARK    3  A    between atoms: C_6  and  S_7
REMARK    4  A    between atoms: S_7  and  N_10
REMARK    5  A    between atoms: C_14  and  C_15
REMARK    6  A    between atoms: C_18  and  C_19
REMARK    7  A    between atoms: C_28  and  O_29
REMARK    8  A    between atoms: O_29  and  C_30
REMARK                            x       y       z     vdW  Elec       q    Type
REMARK                         _______ _______ _______ _____ _____    ______ ____
ROOT
ATOM      1  N   UNL     1       0.410  10.579  21.052  0.00  0.00    +0.000 N 
ATOM      2  N   UNL     1      -0.638  11.149  21.722  0.00  0.00    +0.000 NA
ATOM      3  C   UNL     1      -1.149  11.893  20.778  0.00  0.00    +0.000 A 
ATOM      4  N   UNL     1      -2.492  12.203  20.697  0.00  0.00    +0.000 N 
ATOM      5  C   UNL     1      -3.186  12.264  19.497  0.00  0.00    +0.000 A 
ATOM      6  C   UNL     1      -2.616  11.912  18.146  0.00  0.00    +0.000 C 
ATOM      7  C   UNL     1      -4.469  12.644  19.834  0.00  0.00    +0.000 A 
ATOM      8  C   UNL     1      -4.531  12.801  21.242  0.00  0.00    +0.000 A 
ATOM      9  C   UNL     1      -3.288  12.527  21.764  0.00  0.00    +0.000 A 
ATOM     10  C   UNL     1      -2.749  12.658  23.158  0.00  0.00    +0.000 C 
ATOM     11  C   UNL     1      -0.162  12.585  20.180  0.00  0.00    +0.000 A 
ATOM     12  C   UNL     1      -0.167  13.905  19.693  0.00  0.00    +0.000 A 
ATOM     13  F   UNL     1      -1.090  14.742  20.199  0.00  0.00    +0.000 F 
ATOM     14  C   UNL     1       0.738  14.379  18.816  0.00  0.00    +0.000 A 
ATOM     15  C   UNL     1       1.566  13.421  18.266  0.00  0.00    +0.000 A 
ATOM     16  C   UNL     1       1.597  12.009  18.754  0.00  0.00    +0.000 A 
ATOM     17  C   UNL     1       0.804  11.584  19.926  0.00  0.00    +0.000 A 
ENDROOT
BRANCH   1  18
ATOM     18  S   UNL     1       0.702   8.834  21.828  0.00  0.00    +0.000 S 
ATOM     19  O   UNL     1      -0.565   8.388  22.328  0.00  0.00    +0.000 OA
ATOM     20  O   UNL     1       1.809   9.099  22.766  0.00  0.00    +0.000 OA
BRANCH  18  24
ATOM     21  C   UNL     1       2.949   5.493  18.896  0.00  0.00    +0.000 A 
ATOM     22  C   UNL     1       2.782   6.837  18.546  0.00  0.00    +0.000 A 
ATOM     23  C   UNL     1       2.110   7.792  19.406  0.00  0.00    +0.000 A 
ATOM     24  C   UNL     1       1.479   7.431  20.634  0.00  0.00    +0.000 A 
ATOM     25  C   UNL     1       1.680   6.089  21.003  0.00  0.00    +0.000 A 
ATOM     26  C   UNL     1       2.388   5.116  20.144  0.00  0.00    +0.000 A 
BRANCH  21  28
ATOM     27  C   UNL     1       2.820   3.640  17.310  0.00  0.00    +0.000 C 
ATOM     28  O   UNL     1       3.600   4.598  18.065  0.00  0.00    +0.000 OA
ENDBRANCH  21  28
BRANCH  26  29
ATOM     29  O   UNL     1       2.451   3.868  20.738  0.00  0.00    +0.000 OA
ATOM     30  C   UNL     1       1.285   3.055  20.878  0.00  0.00    +0.000 C 
ENDBRANCH  26  29
ENDBRANCH  18  24
ENDBRANCH   1  18
TORSDOF 4
ENDMDL
MODEL 3
REMARK VINA RESULT:      -7.7      0.977      1.724
REMARK  Name = 
REMARK  8 active torsions:
REMARK  status: ('A' for Active; 'I' for Inactive)
REMARK    1  A    between atoms: C_1  and  O_2
REMARK    2  A    between atoms: O_2  and  C_3
REMARK    3  A    between atoms: C_6  and  S_7
REMARK    4  A    between atoms: S_7  and  N_10
REMARK    5  A    between atoms: C_14  and  C_15
REMARK    6  A    between atoms: C_18  and  C_19
REMARK    7  A    between atoms: C_28  and  O_29
REMARK    8  A    between atoms: O_29  and  C_30
REMARK                            x       y       z     vdW  Elec       q    Type
REMARK                         _______ _______ _______ _____ _____    ______ ____
ROOT
ATOM      1  N   UNL     1       2.316   7.494  18.720  0.00  0.00    +0.000 N 
ATOM      2  N   UNL     1       3.573   7.419  18.184  0.00  0.00    +0.000 NA
ATOM      3  C   UNL     1       3.729   6.124  18.120  0.00  0.00    +0.000 A 
ATOM      4  N   UNL     1       4.501   5.497  17.162  0.00  0.00    +0.000 N 
ATOM      5  C   UNL     1       4.140   4.299  16.561  0.00  0.00    +0.000 A 
ATOM      6  C   UNL     1       2.837   3.574  16.787  0.00  0.00    +0.000 C 
ATOM      7  C   UNL     1       5.180   3.988  15.710  0.00  0.00    +0.000 A 
ATOM      8  C   UNL     1       6.155   5.012  15.806  0.00  0.00    +0.000 A 
ATOM      9  C   UNL     1       5.717   5.943  16.720  0.00  0.00    +0.000 A 
ATOM     10  C   UNL     1       6.392   7.149  17.304  0.00  0.00    +0.000 C 
ATOM     11  C   UNL     1       3.371   5.578  19.297  0.00  0.00    +0.000 A 
ATOM     12  C   UNL     1       3.946   4.499  19.992  0.00  0.00    +0.000 A 
ATOM     13  F   UNL     1       5.223   4.192  19.699  0.00  0.00    +0.000 F 
ATOM     14  C   UNL     1       3.316   3.821  20.969  0.00  0.00    +0.000 A 
ATOM     15  C   UNL     1       1.979   4.128  21.115  0.00  0.00    +0.000 A 
ATOM     16  C   UNL     1       1.330   5.264  20.392  0.00  0.00    +0.000 A 
ATOM     17  C   UNL     1       2.119   6.187  19.549  0.00  0.00    +0.000 A 
ENDROOT
BRANCH   1  18
ATOM     18  S   UNL     1       1.503   9.112  18.047  0.00  0.00    +0.000 S 
ATOM     19  O   UNL     1       0.490   8.707  17.116  0.00  0.00    +0.000 OA
ATOM     20  O   UNL     1       2.676   9.868  17.572  0.00  0.00    +0.000 OA
BRANCH  18  24
ATOM     21  C   UNL     1      -0.790  12.101  21.305  0.00  0.00    +0.000 A 
ATOM     22  C   UNL     1      -0.839  12.288  19.920  0.00  0.00    +0.000 A 
ATOM     23  C   UNL     1      -0.151  11.417  18.987  0.00  0.00    +0.000 A 
ATOM     24  C   UNL     1       0.710  10.355  19.397  0.00  0.00    +0.000 A 
ATOM     25  C   UNL     1       0.728  10.143  20.787  0.00  0.00    +0.000 A 
ATOM     26  C   UNL     1       0.006  11.011  21.743  0.00  0.00    +0.000 A 
BRANCH  21  28
ATOM     27  C   UNL     1      -2.747  12.530  22.702  0.00  0.00    +0.000 C 
ATOM     28  O   UNL     1      -1.460  12.939  22.179  0.00  0.00    +0.000 OA
ENDBRANCH  21  28
BRANCH  26  29
ATOM     29  O   UNL     1       0.186  10.586  23.047  0.00  0.00    +0.000 OA
ATOM     30  C   UNL     1      -0.293   9.313  23.483  0.00  0.00    +0.000 C 
ENDBRANCH  26  29
ENDBRANCH  18  24
ENDBRANCH   1  18
TORSDOF 4
ENDMDL
MODEL 4
REMARK VINA RESULT:      -7.6      3.810      9.181
REMARK  Name = 
REMARK  8 active torsions:
REMARK  status: ('A' for Active; 'I' for Inactive)
REMARK    1  A    between atoms: C_1  and  O_2
REMARK    2  A    between atoms: O_2  and  C_3
REMARK    3  A    between atoms: C_6  and  S_7
REMARK    4  A    between atoms: S_7  and  N_10
REMARK    5  A    between atoms: C_14  and  C_15
REMARK    6  A    between atoms: C_18  and  C_19
REMARK    7  A    between atoms: C_28  and  O_29
REMARK    8  A    between atoms: O_29  and  C_30
REMARK                            x       y       z     vdW  Elec       q    Type
REMARK                         _______ _______ _______ _____ _____    ______ ____
ROOT
ATOM      1  N   UNL     1       0.448  10.650  21.052  0.00  0.00    +0.000 N 
ATOM      2  N   UNL     1      -0.612  11.222  21.700  0.00  0.00    +0.000 NA
ATOM      3  C   UNL     1      -1.126  11.936  20.735  0.00  0.00    +0.000 A 
ATOM      4  N   UNL     1      -2.473  12.227  20.638  0.00  0.00    +0.000 N 
ATOM      5  C   UNL     1      -3.159  12.250  19.432  0.00  0.00    +0.000 A 
ATOM      6  C   UNL     1      -2.574  11.874  18.094  0.00  0.00    +0.000 C 
ATOM      7  C   UNL     1      -4.449  12.620  19.751  0.00  0.00    +0.000 A 
ATOM      8  C   UNL     1      -4.523  12.810  21.154  0.00  0.00    +0.000 A 
ATOM      9  C   UNL     1      -3.280  12.565  21.691  0.00  0.00    +0.000 A 
ATOM     10  C   UNL     1      -2.753  12.736  23.085  0.00  0.00    +0.000 C 
ATOM     11  C   UNL     1      -0.144  12.627  20.128  0.00  0.00    +0.000 A 
ATOM     12  C   UNL     1      -0.163  13.935  19.610  0.00  0.00    +0.000 A 
ATOM     13  F   UNL     1      -1.100  14.772  20.090  0.00  0.00    +0.000 F 
ATOM     14  C   UNL     1       0.742  14.401  18.728  0.00  0.00    +0.000 A 
ATOM     15  C   UNL     1       1.586  13.441  18.207  0.00  0.00    +0.000 A 
ATOM     16  C   UNL     1       1.633  12.042  18.728  0.00  0.00    +0.000 A 
ATOM     17  C   UNL     1       0.837  11.634  19.905  0.00  0.00    +0.000 A 
ENDROOT
BRANCH   1  18
ATOM     18  S   UNL     1       0.758   8.928  21.870  0.00  0.00    +0.000 S 
ATOM     19  O   UNL     1      -0.514   8.459  22.337  0.00  0.00    +0.000 OA
ATOM     20  O   UNL     1       1.826   9.239  22.838  0.00  0.00    +0.000 OA
BRANCH  18  24
ATOM     21  C   UNL     1       2.554   5.320  18.943  0.00  0.00    +0.000 A 
ATOM     22  C   UNL     1       1.887   5.076  20.148  0.00  0.00    +0.000 A 
ATOM     23  C   UNL     1       1.384   6.139  20.996  0.00  0.00    +0.000 A 
ATOM     24  C   UNL     1       1.608   7.524  20.729  0.00  0.00    +0.000 A 
ATOM     25  C   UNL     1       2.246   7.769  19.500  0.00  0.00    +0.000 A 
ATOM     26  C   UNL     1       2.735   6.689  18.617  0.00  0.00    +0.000 A 
BRANCH  21  28
ATOM     27  C   UNL     1       4.141   3.497  18.598  0.00  0.00    +0.000 C 
ATOM     28  O   UNL     1       3.019   4.291  18.145  0.00  0.00    +0.000 OA
ENDBRANCH  21  28
BRANCH  26  29
ATOM     29  O   UNL     1       3.321   7.199  17.472  0.00  0.00    +0.000 OA
ATOM     30  C   UNL     1       4.697   6.961  17.176  0.00  0.00    +0.000 C 
ENDBRANCH  26  29
ENDBRANCH  18  24
ENDBRANCH   1  18
TORSDOF 4
ENDMDL
MODEL 5
REMARK VINA RESULT:      -7.6      3.348      8.548
REMARK  Name = 
REMARK  8 active torsions:
REMARK  status: ('A' for Active; 'I' for Inactive)
REMARK    1  A    between atoms: C_1  and  O_2
REMARK    2  A    between atoms: O_2  and  C_3
REMARK    3  A    between atoms: C_6  and  S_7
REMARK    4  A    between atoms: S_7  and  N_10
REMARK    5  A    between atoms: C_14  and  C_15
REMARK    6  A    between atoms: C_18  and  C_19
REMARK    7  A    between atoms: C_28  and  O_29
REMARK    8  A    between atoms: O_29  and  C_30
REMARK                            x       y       z     vdW  Elec       q    Type
REMARK                         _______ _______ _______ _____ _____    ______ ____
ROOT
ATOM      1  N   UNL     1       1.069   9.246  19.389  0.00  0.00    +0.000 N 
ATOM      2  N   UNL     1       0.310  10.208  18.780  0.00  0.00    +0.000 NA
ATOM      3  C   UNL     1       0.259  11.106  19.727  0.00  0.00    +0.000 A 
ATOM      4  N   UNL     1       0.154  12.462  19.483  0.00  0.00    +0.000 N 
ATOM      5  C   UNL     1       0.826  13.420  20.229  0.00  0.00    +0.000 A 
ATOM      6  C   UNL     1       1.821  13.127  21.325  0.00  0.00    +0.000 C 
ATOM      7  C   UNL     1       0.428  14.635  19.709  0.00  0.00    +0.000 A 
ATOM      8  C   UNL     1      -0.478  14.388  18.647  0.00  0.00    +0.000 A 
ATOM      9  C   UNL     1      -0.641  13.028  18.523  0.00  0.00    +0.000 A 
ATOM     10  C   UNL     1      -1.566  12.216  17.666  0.00  0.00    +0.000 C 
ATOM     11  C   UNL     1      -0.062  10.506  20.887  0.00  0.00    +0.000 A 
ATOM     12  C   UNL     1      -0.885  10.966  21.931  0.00  0.00    +0.000 A 
ATOM     13  F   UNL     1      -1.785  11.919  21.629  0.00  0.00    +0.000 F 
ATOM     14  C   UNL     1      -0.864  10.455  23.177  0.00  0.00    +0.000 A 
ATOM     15  C   UNL     1       0.167   9.571  23.421  0.00  0.00    +0.000 A 
ATOM     16  C   UNL     1       1.064   9.062  22.339  0.00  0.00    +0.000 A 
ATOM     17  C   UNL     1       0.829   9.409  20.922  0.00  0.00    +0.000 A 
ENDROOT
BRANCH   1  18
ATOM     18  S   UNL     1       2.061   8.338  18.002  0.00  0.00    +0.000 S 
ATOM     19  O   UNL     1       2.902   9.322  17.385  0.00  0.00    +0.000 OA
ATOM     20  O   UNL     1       0.982   7.702  17.222  0.00  0.00    +0.000 OA
BRANCH  18  24
ATOM     21  C   UNL     1       4.547   4.227  19.314  0.00  0.00    +0.000 A 
ATOM     22  C   UNL     1       3.457   4.731  20.031  0.00  0.00    +0.000 A 
ATOM     23  C   UNL     1       2.755   5.939  19.644  0.00  0.00    +0.000 A 
ATOM     24  C   UNL     1       3.168   6.770  18.559  0.00  0.00    +0.000 A 
ATOM     25  C   UNL     1       4.240   6.243  17.816  0.00  0.00    +0.000 A 
ATOM     26  C   UNL     1       4.943   4.997  18.190  0.00  0.00    +0.000 A 
BRANCH  21  28
ATOM     27  C   UNL     1       4.417   1.924  20.117  0.00  0.00    +0.000 C 
ATOM     28  O   UNL     1       5.199   3.067  19.696  0.00  0.00    +0.000 OA
ENDBRANCH  21  28
BRANCH  26  29
ATOM     29  O   UNL     1       5.955   4.699  17.295  0.00  0.00    +0.000 OA
ATOM     30  C   UNL     1       7.328   4.767  17.681  0.00  0.00    +0.000 C 
ENDBRANCH  26  29
ENDBRANCH  18  24
ENDBRANCH   1  18
TORSDOF 4
ENDMDL
MODEL 6
REMARK VINA RESULT:      -7.5      4.339      6.956
REMARK  Name = 
REMARK  8 active torsions:
REMARK  status: ('A' for Active; 'I' for Inactive)
REMARK    1  A    between atoms: C_1  and  O_2
REMARK    2  A    between atoms: O_2  and  C_3
REMARK    3  A    between atoms: C_6  and  S_7
REMARK    4  A    between atoms: S_7  and  N_10
REMARK    5  A    between atoms: C_14  and  C_15
REMARK    6  A    between atoms: C_18  and  C_19
REMARK    7  A    between atoms: C_28  and  O_29
REMARK    8  A    between atoms: O_29  and  C_30
REMARK                            x       y       z     vdW  Elec       q    Type
REMARK                         _______ _______ _______ _____ _____    ______ ____
ROOT
ATOM      1  N   UNL     1       5.626   4.811  18.480  0.00  0.00    +0.000 N 
ATOM      2  N   UNL     1       4.897   5.950  18.278  0.00  0.00    +0.000 NA
ATOM      3  C   UNL     1       3.739   5.583  18.757  0.00  0.00    +0.000 A 
ATOM      4  N   UNL     1       2.846   6.459  19.342  0.00  0.00    +0.000 N 
ATOM      5  C   UNL     1       2.087   6.135  20.458  0.00  0.00    +0.000 A 
ATOM      6  C   UNL     1       2.194   4.848  21.237  0.00  0.00    +0.000 C 
ATOM      7  C   UNL     1       1.300   7.243  20.700  0.00  0.00    +0.000 A 
ATOM      8  C   UNL     1       1.604   8.225  19.725  0.00  0.00    +0.000 A 
ATOM      9  C   UNL     1       2.566   7.717  18.883  0.00  0.00    +0.000 A 
ATOM     10  C   UNL     1       3.159   8.261  17.616  0.00  0.00    +0.000 C 
ATOM     11  C   UNL     1       3.418   4.376  18.256  0.00  0.00    +0.000 A 
ATOM     12  C   UNL     1       2.163   3.882  17.857  0.00  0.00    +0.000 A 
ATOM     13  F   UNL     1       1.216   4.787  17.550  0.00  0.00    +0.000 F 
ATOM     14  C   UNL     1       1.893   2.573  17.700  0.00  0.00    +0.000 A 
ATOM     15  C   UNL     1       2.882   1.722  18.151  0.00  0.00    +0.000 A 
ATOM     16  C   UNL     1       4.226   2.209  18.586  0.00  0.00    +0.000 A 
ATOM     17  C   UNL     1       4.602   3.633  18.463  0.00  0.00    +0.000 A 
ENDROOT
BRANCH   1  18
ATOM     18  S   UNL     1       7.458   5.347  18.771  0.00  0.00    +0.000 S 
ATOM     19  O   UNL     1       8.272   4.498  17.951  0.00  0.00    +0.000 OA
ATOM     20  O   UNL     1       7.568   5.273  20.240  0.00  0.00    +0.000 OA
BRANCH  18  24
ATOM     21  C   UNL     1       8.255  10.193  17.942  0.00  0.00    +0.000 A 
ATOM     22  C   UNL     1       7.431   9.399  17.139  0.00  0.00    +0.000 A 
ATOM     23  C   UNL     1       7.223   7.985  17.386  0.00  0.00    +0.000 A 
ATOM     24  C   UNL     1       7.911   7.260  18.405  0.00  0.00    +0.000 A 
ATOM     25  C   UNL     1       8.710   8.066  19.235  0.00  0.00    +0.000 A 
ATOM     26  C   UNL     1       8.904   9.514  19.006  0.00  0.00    +0.000 A 
BRANCH  21  28
ATOM     27  C   UNL     1       9.778  12.067  17.579  0.00  0.00    +0.000 C 
ATOM     28  O   UNL     1       8.434  11.543  17.694  0.00  0.00    +0.000 OA
ENDBRANCH  21  28
BRANCH  26  29
ATOM     29  O   UNL     1       9.732  10.071  19.964  0.00  0.00    +0.000 OA
ATOM     30  C   UNL     1       9.225  10.978  20.943  0.00  0.00    +0.000 C 
ENDBRANCH  26  29
ENDBRANCH  18  24
ENDBRANCH   1  18
TORSDOF 4
ENDMDL
MODEL 7
REMARK VINA RESULT:      -7.5      4.252      8.469
REMARK  Name = 
REMARK  8 active torsions:
REMARK  status: ('A' for Active; 'I' for Inactive)
REMARK    1  A    between atoms: C_1  and  O_2
REMARK    2  A    between atoms: O_2  and  C_3
REMARK    3  A    between atoms: C_6  and  S_7
REMARK    4  A    between atoms: S_7  and  N_10
REMARK    5  A    between atoms: C_14  and  C_15
REMARK    6  A    between atoms: C_18  and  C_19
REMARK    7  A    between atoms: C_28  and  O_29
REMARK    8  A    between atoms: O_29  and  C_30
REMARK                            x       y       z     vdW  Elec       q    Type
REMARK                         _______ _______ _______ _____ _____    ______ ____
ROOT
ATOM      1  N   UNL     1       5.034   5.978  18.208  0.00  0.00    +0.000 N 
ATOM      2  N   UNL     1       4.838   4.824  18.916  0.00  0.00    +0.000 NA
ATOM      3  C   UNL     1       3.534   4.800  18.977  0.00  0.00    +0.000 A 
ATOM      4  N   UNL     1       2.797   3.634  19.034  0.00  0.00    +0.000 N 
ATOM      5  C   UNL     1       1.593   3.463  18.364  0.00  0.00    +0.000 A 
ATOM      6  C   UNL     1       0.977   4.465  17.419  0.00  0.00    +0.000 C 
ATOM      7  C   UNL     1       1.158   2.200  18.707  0.00  0.00    +0.000 A 
ATOM      8  C   UNL     1       2.114   1.622  19.579  0.00  0.00    +0.000 A 
ATOM      9  C   UNL     1       3.127   2.532  19.776  0.00  0.00    +0.000 A 
ATOM     10  C   UNL     1       4.316   2.507  20.691  0.00  0.00    +0.000 C 
ATOM     11  C   UNL     1       3.088   6.011  19.358  0.00  0.00    +0.000 A 
ATOM     12  C   UNL     1       2.015   6.340  20.206  0.00  0.00    +0.000 A 
ATOM     13  F   UNL     1       1.600   5.393  21.067  0.00  0.00    +0.000 F 
ATOM     14  C   UNL     1       1.443   7.558  20.246  0.00  0.00    +0.000 A 
ATOM     15  C   UNL     1       1.853   8.421  19.250  0.00  0.00    +0.000 A 
ATOM     16  C   UNL     1       2.986   8.107  18.329  0.00  0.00    +0.000 A 
ATOM     17  C   UNL     1       3.797   6.883  18.500  0.00  0.00    +0.000 A 
ENDROOT
BRANCH   1  18
ATOM     18  S   UNL     1       6.662   5.755  17.191  0.00  0.00    +0.000 S 
ATOM     19  O   UNL     1       7.576   5.036  18.030  0.00  0.00    +0.000 OA
ATOM     20  O   UNL     1       6.966   7.143  16.795  0.00  0.00    +0.000 OA
BRANCH  18  24
ATOM     21  C   UNL     1       5.968   3.608  12.751  0.00  0.00    +0.000 A 
ATOM     22  C   UNL     1       5.203   3.305  13.882  0.00  0.00    +0.000 A 
ATOM     23  C   UNL     1       5.429   3.929  15.172  0.00  0.00    +0.000 A 
ATOM     24  C   UNL     1       6.507   4.829  15.426  0.00  0.00    +0.000 A 
ATOM     25  C   UNL     1       7.252   5.162  14.280  0.00  0.00    +0.000 A 
ATOM     26  C   UNL     1       7.008   4.551  12.956  0.00  0.00    +0.000 A 
BRANCH  21  28
ATOM     27  C   UNL     1       5.854   1.570  11.410  0.00  0.00    +0.000 C 
ATOM     28  O   UNL     1       5.730   3.008  11.527  0.00  0.00    +0.000 OA
ENDBRANCH  21  28
BRANCH  26  29
ATOM     29  O   UNL     1       7.875   5.051  12.001  0.00  0.00    +0.000 OA
ATOM     30  C   UNL     1       8.665   6.213  12.254  0.00  0.00    +0.000 C 
ENDBRANCH  26  29
ENDBRANCH  18  24
ENDBRANCH   1  18
TORSDOF 4
ENDMDL
MODEL 8
REMARK VINA RESULT:      -7.5      5.190     10.521
REMARK  Name = 
REMARK  8 active torsions:
REMARK  status: ('A' for Active; 'I' for Inactive)
REMARK    1  A    between atoms: C_1  and  O_2
REMARK    2  A    between atoms: O_2  and  C_3
REMARK    3  A    between atoms: C_6  and  S_7
REMARK    4  A    between atoms: S_7  and  N_10
REMARK    5  A    between atoms: C_14  and  C_15
REMARK    6  A    between atoms: C_18  and  C_19
REMARK    7  A    between atoms: C_28  and  O_29
REMARK    8  A    between atoms: O_29  and  C_30
REMARK                            x       y       z     vdW  Elec       q    Type
REMARK                         _______ _______ _______ _____ _____    ______ ____
ROOT
ATOM      1  N   UNL     1      -2.803  12.389  19.858  0.00  0.00    +0.000 N 
ATOM      2  N   UNL     1      -3.968  12.012  19.248  0.00  0.00    +0.000 NA
ATOM      3  C   UNL     1      -4.811  12.834  19.812  0.00  0.00    +0.000 A 
ATOM      4  N   UNL     1      -5.950  13.303  19.186  0.00  0.00    +0.000 N 
ATOM      5  C   UNL     1      -6.407  14.606  19.320  0.00  0.00    +0.000 A 
ATOM      6  C   UNL     1      -5.693  15.704  20.069  0.00  0.00    +0.000 C 
ATOM      7  C   UNL     1      -7.576  14.662  18.589  0.00  0.00    +0.000 A 
ATOM      8  C   UNL     1      -7.804  13.385  18.017  0.00  0.00    +0.000 A 
ATOM      9  C   UNL     1      -6.782  12.548  18.404  0.00  0.00    +0.000 A 
ATOM     10  C   UNL     1      -6.581  11.075  18.205  0.00  0.00    +0.000 C 
ATOM     11  C   UNL     1      -4.613  12.824  21.143  0.00  0.00    +0.000 A 
ATOM     12  C   UNL     1      -5.555  12.899  22.185  0.00  0.00    +0.000 A 
ATOM     13  F   UNL     1      -6.820  12.549  21.895  0.00  0.00    +0.000 F 
ATOM     14  C   UNL     1      -5.239  13.227  23.452  0.00  0.00    +0.000 A 
ATOM     15  C   UNL     1      -3.948  13.683  23.626  0.00  0.00    +0.000 A 
ATOM     16  C   UNL     1      -2.921  13.623  22.543  0.00  0.00    +0.000 A 
ATOM     17  C   UNL     1      -3.211  12.977  21.245  0.00  0.00    +0.000 A 
ENDROOT
BRANCH   1  18
ATOM     18  S   UNL     1      -1.370  12.070  18.604  0.00  0.00    +0.000 S 
ATOM     19  O   UNL     1      -0.560  13.253  18.592  0.00  0.00    +0.000 OA
ATOM     20  O   UNL     1      -2.109  11.675  17.390  0.00  0.00    +0.000 OA
BRANCH  18  24
ATOM     21  C   UNL     1       1.790   8.294  19.353  0.00  0.00    +0.000 A 
ATOM     22  C   UNL     1       1.519   8.834  18.091  0.00  0.00    +0.000 A 
ATOM     23  C   UNL     1       0.584   9.923  17.890  0.00  0.00    +0.000 A 
ATOM     24  C   UNL     1      -0.212  10.475  18.938  0.00  0.00    +0.000 A 
ATOM     25  C   UNL     1       0.089   9.957  20.212  0.00  0.00    +0.000 A 
ATOM     26  C   UNL     1       1.062   8.866  20.428  0.00  0.00    +0.000 A 
BRANCH  21  28
ATOM     27  C   UNL     1       3.147   6.518  18.367  0.00  0.00    +0.000 C 
ATOM     28  O   UNL     1       2.693   7.259  19.525  0.00  0.00    +0.000 OA
ENDBRANCH  21  28
BRANCH  26  29
ATOM     29  O   UNL     1       1.174   8.546  21.769  0.00  0.00    +0.000 OA
ATOM     30  C   UNL     1       0.560   9.350  22.776  0.00  0.00    +0.000 C 
ENDBRANCH  26  29
ENDBRANCH  18  24
ENDBRANCH   1  18
TORSDOF 4
ENDMDL
MODEL 9
REMARK VINA RESULT:      -7.4      3.331      8.469
REMARK  Name = 
REMARK  8 active torsions:
REMARK  status: ('A' for Active; 'I' for Inactive)
REMARK    1  A    between atoms: C_1  and  O_2
REMARK    2  A    between atoms: O_2  and  C_3
REMARK    3  A    between atoms: C_6  and  S_7
REMARK    4  A    between atoms: S_7  and  N_10
REMARK    5  A    between atoms: C_14  and  C_15
REMARK    6  A    between atoms: C_18  and  C_19
REMARK    7  A    between atoms: C_28  and  O_29
REMARK    8  A    between atoms: O_29  and  C_30
REMARK                            x       y       z     vdW  Elec       q    Type
REMARK                         _______ _______ _______ _____ _____    ______ ____
ROOT
ATOM      1  N   UNL     1       1.027   9.252  19.449  0.00  0.00    +0.000 N 
ATOM      2  N   UNL     1       0.292  10.213  18.809  0.00  0.00    +0.000 NA
ATOM      3  C   UNL     1       0.240  11.131  19.736  0.00  0.00    +0.000 A 
ATOM      4  N   UNL     1       0.160  12.483  19.464  0.00  0.00    +0.000 N 
ATOM      5  C   UNL     1       0.834  13.446  20.201  0.00  0.00    +0.000 A 
ATOM      6  C   UNL     1       1.806  13.161  21.318  0.00  0.00    +0.000 C 
ATOM      7  C   UNL     1       0.463  14.656  19.650  0.00  0.00    +0.000 A 
ATOM      8  C   UNL     1      -0.429  14.401  18.578  0.00  0.00    +0.000 A 
ATOM      9  C   UNL     1      -0.611  13.041  18.479  0.00  0.00    +0.000 A 
ATOM     10  C   UNL     1      -1.534  12.225  17.623  0.00  0.00    +0.000 C 
ATOM     11  C   UNL     1      -0.110  10.560  20.903  0.00  0.00    +0.000 A 
ATOM     12  C   UNL     1      -0.942  11.053  21.924  0.00  0.00    +0.000 A 
ATOM     13  F   UNL     1      -1.823  12.013  21.587  0.00  0.00    +0.000 F 
ATOM     14  C   UNL     1      -0.950  10.568  23.179  0.00  0.00    +0.000 A 
ATOM     15  C   UNL     1       0.064   9.673  23.458  0.00  0.00    +0.000 A 
ATOM     16  C   UNL     1       0.970   9.129  22.403  0.00  0.00    +0.000 A 
ATOM     17  C   UNL     1       0.764   9.450  20.975  0.00  0.00    +0.000 A 
ENDROOT
BRANCH   1  18
ATOM     18  S   UNL     1       2.027   8.301  18.098  0.00  0.00    +0.000 S 
ATOM     19  O   UNL     1       3.112   9.154  17.711  0.00  0.00    +0.000 OA
ATOM     20  O   UNL     1       0.975   7.964  17.121  0.00  0.00    +0.000 OA
BRANCH  18  24
ATOM     21  C   UNL     1       4.103   3.975  19.432  0.00  0.00    +0.000 A 
ATOM     22  C   UNL     1       4.509   4.713  18.315  0.00  0.00    +0.000 A 
ATOM     23  C   UNL     1       3.882   5.963  17.932  0.00  0.00    +0.000 A 
ATOM     24  C   UNL     1       2.740   6.502  18.598  0.00  0.00    +0.000 A 
ATOM     25  C   UNL     1       2.357   5.779  19.743  0.00  0.00    +0.000 A 
ATOM     26  C   UNL     1       3.010   4.519  20.155  0.00  0.00    +0.000 A 
BRANCH  21  28
ATOM     27  C   UNL     1       4.237   1.546  19.221  0.00  0.00    +0.000 C 
ATOM     28  O   UNL     1       4.721   2.788  19.786  0.00  0.00    +0.000 OA
ENDBRANCH  21  28
BRANCH  26  29
ATOM     29  O   UNL     1       2.448   4.013  21.313  0.00  0.00    +0.000 OA
ATOM     30  C   UNL     1       1.468   2.975  21.268  0.00  0.00    +0.000 C 
ENDBRANCH  26  29
ENDBRANCH  18  24
ENDBRANCH   1  18
TORSDOF 4
ENDMDL
