MODEL 1
REMARK VINA RESULT:      -8.5      0.000      0.000
REMARK  Name = 
REMARK  9 active torsions:
REMARK  status: ('A' for Active; 'I' for Inactive)
REMARK    1  A    between atoms: C_1  and  N_2
REMARK    2  A    between atoms: C_3  and  C_4
REMARK    3  A    between atoms: C_4  and  O_6
REMARK    4  A    between atoms: O_6  and  C_7
REMARK    5  A    between atoms: C_7  and  C_8
REMARK    6  A    between atoms: C_16  and  C_17
REMARK    7  A    between atoms: C_20  and  N_21
REMARK    8  A    between atoms: C_22  and  C_24
REMARK    9  A    between atoms: C_27  and  C_28
REMARK                            x       y       z     vdW  Elec       q    Type
REMARK                         _______ _______ _______ _____ _____    ______ ____
ROOT
ATOM      1  C   UNL     1      -5.251  14.749  22.254  0.00  0.00    +0.000 C 
ATOM      2  N   UNL     1      -4.358  13.837  21.575  0.00  0.00    +0.000 N 
ATOM      3  C   UNL     1      -4.577  13.137  20.398  0.00  0.00    +0.000 A 
ATOM      4  C   UNL     1      -3.438  12.367  20.208  0.00  0.00    +0.000 A 
ATOM      5  C   UNL     1      -2.507  12.620  21.246  0.00  0.00    +0.000 A 
ATOM      6  C   UNL     1      -1.220  12.179  21.598  0.00  0.00    +0.000 A 
ATOM      7  N   UNL     1      -0.672  12.622  22.760  0.00  0.00    +0.000 NA
ATOM      8  C   UNL     1      -1.382  13.497  23.497  0.00  0.00    +0.000 A 
ATOM      9  N   UNL     1      -2.602  14.003  23.242  0.00  0.00    +0.000 NA
ATOM     10  C   UNL     1      -3.119  13.521  22.097  0.00  0.00    +0.000 A 
ENDROOT
BRANCH   6  11
ATOM     11  C   UNL     1      -0.461  11.236  20.769  0.00  0.00    +0.000 A 
ATOM     12  C   UNL     1      -0.137   9.956  21.244  0.00  0.00    +0.000 A 
ATOM     13  C   UNL     1       0.662   9.083  20.514  0.00  0.00    +0.000 A 
ATOM     14  C   UNL     1       1.112   9.425  19.245  0.00  0.00    +0.000 A 
ATOM     15  C   UNL     1       0.781  10.682  18.733  0.00  0.00    +0.000 A 
ATOM     16  C   UNL     1      -0.006  11.570  19.484  0.00  0.00    +0.000 A 
BRANCH  14  17
ATOM     17  N   UNL     1       1.893   8.546  18.466  0.00  0.00    +0.000 N 
ATOM     18  C   UNL     1       2.468   7.373  18.932  0.00  0.00    +0.000 C 
ATOM     19  O   UNL     1       2.330   6.891  20.051  0.00  0.00    +0.000 OA
ATOM     20  H   UNL     1       2.002   8.798  17.495  0.00  0.00    +0.000 HD
BRANCH  18  21
ATOM     21  C   UNL     1       3.342   6.630  17.989  0.00  0.00    +0.000 A 
ATOM     22  C   UNL     1       3.185   5.235  17.936  0.00  0.00    +0.000 A 
ATOM     23  C   UNL     1       3.971   4.467  17.078  0.00  0.00    +0.000 A 
ATOM     24  C   UNL     1       4.915   5.091  16.260  0.00  0.00    +0.000 A 
ATOM     25  C   UNL     1       5.057   6.485  16.293  0.00  0.00    +0.000 A 
ATOM     26  C   UNL     1       4.269   7.256  17.151  0.00  0.00    +0.000 A 
BRANCH  24  27
ATOM     27  C   UNL     1       5.728   4.307  15.380  0.00  0.00    +0.000 C 
ATOM     28  N   UNL     1       6.385   3.680  14.663  0.00  0.00    +0.000 NA
ENDBRANCH  24  27
ENDBRANCH  18  21
ENDBRANCH  14  17
ENDBRANCH   6  11
BRANCH   3  29
ATOM     29  C   UNL     1      -5.761  13.132  19.556  0.00  0.00    +0.000 C 
ATOM     30  O   UNL     1      -6.407  14.117  19.217  0.00  0.00    +0.000 OA
BRANCH  29  31
ATOM     31  O   UNL     1      -6.110  11.843  19.276  0.00  0.00    +0.000 OA
BRANCH  31  32
ATOM     32  C   UNL     1      -6.134  11.476  17.892  0.00  0.00    +0.000 C 
BRANCH  32  33
ATOM     33  C   UNL     1      -4.796  10.984  17.399  0.00  0.00    +0.000 A 
ATOM     34  C   UNL     1      -4.157  11.586  16.303  0.00  0.00    +0.000 A 
ATOM     35  C   UNL     1      -2.886  11.164  15.903  0.00  0.00    +0.000 A 
ATOM     36  C   UNL     1      -2.245  10.132  16.586  0.00  0.00    +0.000 A 
ATOM     37  C   UNL     1      -2.877   9.519  17.666  0.00  0.00    +0.000 A 
ATOM     38  C   UNL     1      -4.147   9.938  18.067  0.00  0.00    +0.000 A 
ENDBRANCH  32  33
ENDBRANCH  31  32
ENDBRANCH  29  31
ENDBRANCH   3  29
TORSDOF 8
ENDMDL
MODEL 2
REMARK VINA RESULT:      -8.1      1.802      2.144
REMARK  Name = 
REMARK  9 active torsions:
REMARK  status: ('A' for Active; 'I' for Inactive)
REMARK    1  A    between atoms: C_1  and  N_2
REMARK    2  A    between atoms: C_3  and  C_4
REMARK    3  A    between atoms: C_4  and  O_6
REMARK    4  A    between atoms: O_6  and  C_7
REMARK    5  A    between atoms: C_7  and  C_8
REMARK    6  A    between atoms: C_16  and  C_17
REMARK    7  A    between atoms: C_20  and  N_21
REMARK    8  A    between atoms: C_22  and  C_24
REMARK    9  A    between atoms: C_27  and  C_28
REMARK                            x       y       z     vdW  Elec       q    Type
REMARK                         _______ _______ _______ _____ _____    ______ ____
ROOT
ATOM      1  C   UNL     1      -5.371  15.635  21.510  0.00  0.00    +0.000 C 
ATOM      2  N   UNL     1      -4.522  14.476  21.354  0.00  0.00    +0.000 N 
ATOM      3  C   UNL     1      -4.685  13.401  20.492  0.00  0.00    +0.000 A 
ATOM      4  C   UNL     1      -3.632  12.540  20.771  0.00  0.00    +0.000 A 
ATOM      5  C   UNL     1      -2.805  13.101  21.776  0.00  0.00    +0.000 A 
ATOM      6  C   UNL     1      -1.630  12.738  22.456  0.00  0.00    +0.000 A 
ATOM      7  N   UNL     1      -1.171  13.547  23.446  0.00  0.00    +0.000 NA
ATOM      8  C   UNL     1      -1.851  14.682  23.697  0.00  0.00    +0.000 A 
ATOM      9  N   UNL     1      -2.964  15.136  23.094  0.00  0.00    +0.000 NA
ATOM     10  C   UNL     1      -3.398  14.295  22.137  0.00  0.00    +0.000 A 
ENDROOT
BRANCH   6  11
ATOM     11  C   UNL     1      -0.898  11.502  22.152  0.00  0.00    +0.000 A 
ATOM     12  C   UNL     1      -0.808  10.467  23.094  0.00  0.00    +0.000 A 
ATOM     13  C   UNL     1      -0.042   9.330  22.864  0.00  0.00    +0.000 A 
ATOM     14  C   UNL     1       0.610   9.147  21.651  0.00  0.00    +0.000 A 
ATOM     15  C   UNL     1       0.515  10.148  20.681  0.00  0.00    +0.000 A 
ATOM     16  C   UNL     1      -0.242  11.306  20.928  0.00  0.00    +0.000 A 
BRANCH  14  17
ATOM     17  N   UNL     1       1.364   7.988  21.374  0.00  0.00    +0.000 N 
ATOM     18  C   UNL     1       1.885   7.660  20.130  0.00  0.00    +0.000 C 
ATOM     19  O   UNL     1       1.834   8.350  19.117  0.00  0.00    +0.000 OA
ATOM     20  H   UNL     1       1.547   7.383  22.161  0.00  0.00    +0.000 HD
BRANCH  18  21
ATOM     21  C   UNL     1       2.565   6.346  20.009  0.00  0.00    +0.000 A 
ATOM     22  C   UNL     1       1.996   5.265  20.704  0.00  0.00    +0.000 A 
ATOM     23  C   UNL     1       2.577   4.000  20.643  0.00  0.00    +0.000 A 
ATOM     24  C   UNL     1       3.730   3.805  19.878  0.00  0.00    +0.000 A 
ATOM     25  C   UNL     1       4.287   4.875  19.166  0.00  0.00    +0.000 A 
ATOM     26  C   UNL     1       3.704   6.144  19.224  0.00  0.00    +0.000 A 
BRANCH  24  27
ATOM     27  C   UNL     1       4.335   2.508  19.816  0.00  0.00    +0.000 C 
ATOM     28  N   UNL     1       4.831   1.464  19.760  0.00  0.00    +0.000 NA
ENDBRANCH  24  27
ENDBRANCH  18  21
ENDBRANCH  14  17
ENDBRANCH   6  11
BRANCH   3  29
ATOM     29  C   UNL     1      -5.755  13.161  19.540  0.00  0.00    +0.000 C 
ATOM     30  O   UNL     1      -6.320  14.012  18.862  0.00  0.00    +0.000 OA
BRANCH  29  31
ATOM     31  O   UNL     1      -6.111  11.844  19.583  0.00  0.00    +0.000 OA
BRANCH  31  32
ATOM     32  C   UNL     1      -6.262  11.182  18.322  0.00  0.00    +0.000 C 
BRANCH  32  33
ATOM     33  C   UNL     1      -4.941  10.901  17.652  0.00  0.00    +0.000 A 
ATOM     34  C   UNL     1      -4.561  11.572  16.479  0.00  0.00    +0.000 A 
ATOM     35  C   UNL     1      -3.303  11.350  15.910  0.00  0.00    +0.000 A 
ATOM     36  C   UNL     1      -2.418  10.451  16.500  0.00  0.00    +0.000 A 
ATOM     37  C   UNL     1      -2.790   9.769  17.658  0.00  0.00    +0.000 A 
ATOM     38  C   UNL     1      -4.046   9.988  18.227  0.00  0.00    +0.000 A 
ENDBRANCH  32  33
ENDBRANCH  31  32
ENDBRANCH  29  31
ENDBRANCH   3  29
TORSDOF 8
ENDMDL
MODEL 3
REMARK VINA RESULT:      -7.9      1.879      2.553
REMARK  Name = 
REMARK  9 active torsions:
REMARK  status: ('A' for Active; 'I' for Inactive)
REMARK    1  A    between atoms: C_1  and  N_2
REMARK    2  A    between atoms: C_3  and  C_4
REMARK    3  A    between atoms: C_4  and  O_6
REMARK    4  A    between atoms: O_6  and  C_7
REMARK    5  A    between atoms: C_7  and  C_8
REMARK    6  A    between atoms: C_16  and  C_17
REMARK    7  A    between atoms: C_20  and  N_21
REMARK    8  A    between atoms: C_22  and  C_24
REMARK    9  A    between atoms: C_27  and  C_28
REMARK                            x       y       z     vdW  Elec       q    Type
REMARK                         _______ _______ _______ _____ _____    ______ ____
ROOT
ATOM      1  C   UNL     1      -5.475  15.432  22.908  0.00  0.00    +0.000 C 
ATOM      2  N   UNL     1      -4.677  14.267  22.597  0.00  0.00    +0.000 N 
ATOM      3  C   UNL     1      -5.081  13.083  21.999  0.00  0.00    +0.000 A 
ATOM      4  C   UNL     1      -3.952  12.275  21.976  0.00  0.00    +0.000 A 
ATOM      5  C   UNL     1      -2.849  12.975  22.525  0.00  0.00    +0.000 A 
ATOM      6  C   UNL     1      -1.488  12.717  22.764  0.00  0.00    +0.000 A 
ATOM      7  N   UNL     1      -0.747  13.657  23.405  0.00  0.00    +0.000 NA
ATOM      8  C   UNL     1      -1.352  14.812  23.744  0.00  0.00    +0.000 A 
ATOM      9  N   UNL     1      -2.632  15.172  23.541  0.00  0.00    +0.000 NA
ATOM     10  C   UNL     1      -3.336  14.204  22.927  0.00  0.00    +0.000 A 
ENDROOT
BRANCH   6  11
ATOM     11  C   UNL     1      -0.849  11.455  22.370  0.00  0.00    +0.000 A 
ATOM     12  C   UNL     1      -0.478  11.220  21.038  0.00  0.00    +0.000 A 
ATOM     13  C   UNL     1       0.041   9.998  20.626  0.00  0.00    +0.000 A 
ATOM     14  C   UNL     1       0.277   8.981  21.542  0.00  0.00    +0.000 A 
ATOM     15  C   UNL     1      -0.055   9.197  22.883  0.00  0.00    +0.000 A 
ATOM     16  C   UNL     1      -0.601  10.426  23.290  0.00  0.00    +0.000 A 
BRANCH  14  17
ATOM     17  N   UNL     1       0.837   7.745  21.161  0.00  0.00    +0.000 N 
ATOM     18  C   UNL     1       1.737   7.570  20.120  0.00  0.00    +0.000 C 
ATOM     19  O   UNL     1       2.232   8.456  19.431  0.00  0.00    +0.000 OA
ATOM     20  H   UNL     1       0.567   6.948  21.719  0.00  0.00    +0.000 HD
BRANCH  18  21
ATOM     21  C   UNL     1       2.138   6.176  19.802  0.00  0.00    +0.000 A 
ATOM     22  C   UNL     1       2.482   5.898  18.468  0.00  0.00    +0.000 A 
ATOM     23  C   UNL     1       2.866   4.613  18.090  0.00  0.00    +0.000 A 
ATOM     24  C   UNL     1       2.915   3.596  19.047  0.00  0.00    +0.000 A 
ATOM     25  C   UNL     1       2.595   3.875  20.382  0.00  0.00    +0.000 A 
ATOM     26  C   UNL     1       2.213   5.164  20.763  0.00  0.00    +0.000 A 
BRANCH  24  27
ATOM     27  C   UNL     1       3.304   2.272  18.662  0.00  0.00    +0.000 C 
ATOM     28  N   UNL     1       3.621   1.201  18.361  0.00  0.00    +0.000 NA
ENDBRANCH  24  27
ENDBRANCH  18  21
ENDBRANCH  14  17
ENDBRANCH   6  11
BRANCH   3  29
ATOM     29  C   UNL     1      -6.410  12.707  21.547  0.00  0.00    +0.000 C 
ATOM     30  O   UNL     1      -7.432  12.720  22.224  0.00  0.00    +0.000 OA
BRANCH  29  31
ATOM     31  O   UNL     1      -6.334  12.238  20.268  0.00  0.00    +0.000 OA
BRANCH  31  32
ATOM     32  C   UNL     1      -5.587  13.033  19.340  0.00  0.00    +0.000 C 
BRANCH  32  33
ATOM     33  C   UNL     1      -4.703  12.203  18.444  0.00  0.00    +0.000 A 
ATOM     34  C   UNL     1      -5.185  11.666  17.239  0.00  0.00    +0.000 A 
ATOM     35  C   UNL     1      -4.333  10.958  16.386  0.00  0.00    +0.000 A 
ATOM     36  C   UNL     1      -2.997  10.770  16.733  0.00  0.00    +0.000 A 
ATOM     37  C   UNL     1      -2.512  11.286  17.933  0.00  0.00    +0.000 A 
ATOM     38  C   UNL     1      -3.361  11.994  18.786  0.00  0.00    +0.000 A 
ENDBRANCH  32  33
ENDBRANCH  31  32
ENDBRANCH  29  31
ENDBRANCH   3  29
TORSDOF 8
ENDMDL
MODEL 4
REMARK VINA RESULT:      -7.8      1.215      1.604
REMARK  Name = 
REMARK  9 active torsions:
REMARK  status: ('A' for Active; 'I' for Inactive)
REMARK    1  A    between atoms: C_1  and  N_2
REMARK    2  A    between atoms: C_3  and  C_4
REMARK    3  A    between atoms: C_4  and  O_6
REMARK    4  A    between atoms: O_6  and  C_7
REMARK    5  A    between atoms: C_7  and  C_8
REMARK    6  A    between atoms: C_16  and  C_17
REMARK    7  A    between atoms: C_20  and  N_21
REMARK    8  A    between atoms: C_22  and  C_24
REMARK    9  A    between atoms: C_27  and  C_28
REMARK                            x       y       z     vdW  Elec       q    Type
REMARK                         _______ _______ _______ _____ _____    ______ ____
ROOT
ATOM      1  C   UNL     1      -6.293  15.172  22.044  0.00  0.00    +0.000 C 
ATOM      2  N   UNL     1      -5.290  14.223  21.616  0.00  0.00    +0.000 N 
ATOM      3  C   UNL     1      -5.343  13.340  20.547  0.00  0.00    +0.000 A 
ATOM      4  C   UNL     1      -4.158  12.620  20.604  0.00  0.00    +0.000 A 
ATOM      5  C   UNL     1      -3.364  13.082  21.683  0.00  0.00    +0.000 A 
ATOM      6  C   UNL     1      -2.108  12.777  22.235  0.00  0.00    +0.000 A 
ATOM      7  N   UNL     1      -1.717  13.423  23.365  0.00  0.00    +0.000 NA
ATOM      8  C   UNL     1      -2.543  14.356  23.874  0.00  0.00    +0.000 A 
ATOM      9  N   UNL     1      -3.746  14.743  23.415  0.00  0.00    +0.000 NA
ATOM     10  C   UNL     1      -4.107  14.064  22.311  0.00  0.00    +0.000 A 
ENDROOT
BRANCH   6  11
ATOM     11  C   UNL     1      -1.219  11.766  21.650  0.00  0.00    +0.000 A 
ATOM     12  C   UNL     1      -0.974  11.733  20.269  0.00  0.00    +0.000 A 
ATOM     13  C   UNL     1      -0.214  10.728  19.683  0.00  0.00    +0.000 A 
ATOM     14  C   UNL     1       0.395   9.752  20.463  0.00  0.00    +0.000 A 
ATOM     15  C   UNL     1       0.193   9.776  21.845  0.00  0.00    +0.000 A 
ATOM     16  C   UNL     1      -0.596  10.780  22.430  0.00  0.00    +0.000 A 
BRANCH  14  17
ATOM     17  N   UNL     1       1.203   8.742  19.901  0.00  0.00    +0.000 N 
ATOM     18  C   UNL     1       1.984   8.893  18.764  0.00  0.00    +0.000 C 
ATOM     19  O   UNL     1       2.147   9.928  18.127  0.00  0.00    +0.000 OA
ATOM     20  H   UNL     1       1.217   7.863  20.397  0.00  0.00    +0.000 HD
BRANCH  18  21
ATOM     21  C   UNL     1       2.688   7.685  18.265  0.00  0.00    +0.000 A 
ATOM     22  C   UNL     1       2.248   6.442  18.751  0.00  0.00    +0.000 A 
ATOM     23  C   UNL     1       2.860   5.262  18.332  0.00  0.00    +0.000 A 
ATOM     24  C   UNL     1       3.913   5.316  17.416  0.00  0.00    +0.000 A 
ATOM     25  C   UNL     1       4.339   6.552  16.911  0.00  0.00    +0.000 A 
ATOM     26  C   UNL     1       3.725   7.736  17.329  0.00  0.00    +0.000 A 
BRANCH  24  27
ATOM     27  C   UNL     1       4.549   4.107  16.986  0.00  0.00    +0.000 C 
ATOM     28  N   UNL     1       5.055   3.124  16.643  0.00  0.00    +0.000 NA
ENDBRANCH  24  27
ENDBRANCH  18  21
ENDBRANCH  14  17
ENDBRANCH   6  11
BRANCH   3  29
ATOM     29  C   UNL     1      -6.421  13.138  19.595  0.00  0.00    +0.000 C 
ATOM     30  O   UNL     1      -7.585  12.870  19.871  0.00  0.00    +0.000 OA
BRANCH  29  31
ATOM     31  O   UNL     1      -5.919  13.195  18.327  0.00  0.00    +0.000 OA
BRANCH  31  32
ATOM     32  C   UNL     1      -6.171  12.060  17.490  0.00  0.00    +0.000 C 
BRANCH  32  33
ATOM     33  C   UNL     1      -4.914  11.303  17.145  0.00  0.00    +0.000 A 
ATOM     34  C   UNL     1      -4.216  11.553  15.952  0.00  0.00    +0.000 A 
ATOM     35  C   UNL     1      -3.014  10.892  15.681  0.00  0.00    +0.000 A 
ATOM     36  C   UNL     1      -2.503   9.970  16.591  0.00  0.00    +0.000 A 
ATOM     37  C   UNL     1      -3.194   9.704  17.772  0.00  0.00    +0.000 A 
ATOM     38  C   UNL     1      -4.395  10.363  18.045  0.00  0.00    +0.000 A 
ENDBRANCH  32  33
ENDBRANCH  31  32
ENDBRANCH  29  31
ENDBRANCH   3  29
TORSDOF 8
ENDMDL
MODEL 5
REMARK VINA RESULT:      -7.7      3.926     11.741
REMARK  Name = 
REMARK  9 active torsions:
REMARK  status: ('A' for Active; 'I' for Inactive)
REMARK    1  A    between atoms: C_1  and  N_2
REMARK    2  A    between atoms: C_3  and  C_4
REMARK    3  A    between atoms: C_4  and  O_6
REMARK    4  A    between atoms: O_6  and  C_7
REMARK    5  A    between atoms: C_7  and  C_8
REMARK    6  A    between atoms: C_16  and  C_17
REMARK    7  A    between atoms: C_20  and  N_21
REMARK    8  A    between atoms: C_22  and  C_24
REMARK    9  A    between atoms: C_27  and  C_28
REMARK                            x       y       z     vdW  Elec       q    Type
REMARK                         _______ _______ _______ _____ _____    ______ ____
ROOT
ATOM      1  C   UNL     1       7.129   4.564  16.396  0.00  0.00    +0.000 C 
ATOM      2  N   UNL     1       6.245   5.521  17.024  0.00  0.00    +0.000 N 
ATOM      3  C   UNL     1       6.504   6.844  17.350  0.00  0.00    +0.000 A 
ATOM      4  C   UNL     1       5.353   7.303  17.977  0.00  0.00    +0.000 A 
ATOM      5  C   UNL     1       4.378   6.275  18.004  0.00  0.00    +0.000 A 
ATOM      6  C   UNL     1       3.061   6.124  18.472  0.00  0.00    +0.000 A 
ATOM      7  N   UNL     1       2.467   4.907  18.372  0.00  0.00    +0.000 NA
ATOM      8  C   UNL     1       3.164   3.913  17.789  0.00  0.00    +0.000 A 
ATOM      9  N   UNL     1       4.411   3.954  17.285  0.00  0.00    +0.000 NA
ATOM     10  C   UNL     1       4.971   5.169  17.426  0.00  0.00    +0.000 A 
ENDROOT
BRANCH   6  11
ATOM     11  C   UNL     1       2.318   7.228  19.091  0.00  0.00    +0.000 A 
ATOM     12  C   UNL     1       1.793   7.109  20.386  0.00  0.00    +0.000 A 
ATOM     13  C   UNL     1       1.006   8.104  20.953  0.00  0.00    +0.000 A 
ATOM     14  C   UNL     1       0.769   9.294  20.277  0.00  0.00    +0.000 A 
ATOM     15  C   UNL     1       1.303   9.454  18.996  0.00  0.00    +0.000 A 
ATOM     16  C   UNL     1       2.078   8.436  18.417  0.00  0.00    +0.000 A 
BRANCH  14  17
ATOM     17  N   UNL     1       0.005  10.337  20.841  0.00  0.00    +0.000 N 
ATOM     18  C   UNL     1      -0.091  10.602  22.200  0.00  0.00    +0.000 C 
ATOM     19  O   UNL     1       0.517  10.028  23.097  0.00  0.00    +0.000 OA
ATOM     20  H   UNL     1      -0.474  10.936  20.186  0.00  0.00    +0.000 HD
BRANCH  18  21
ATOM     21  C   UNL     1      -1.026  11.679  22.611  0.00  0.00    +0.000 A 
ATOM     22  C   UNL     1      -0.656  12.999  22.302  0.00  0.00    +0.000 A 
ATOM     23  C   UNL     1      -1.479  14.066  22.658  0.00  0.00    +0.000 A 
ATOM     24  C   UNL     1      -2.684  13.820  23.320  0.00  0.00    +0.000 A 
ATOM     25  C   UNL     1      -3.067  12.504  23.609  0.00  0.00    +0.000 A 
ATOM     26  C   UNL     1      -2.244  11.433  23.251  0.00  0.00    +0.000 A 
BRANCH  24  27
ATOM     27  C   UNL     1      -3.530  14.913  23.693  0.00  0.00    +0.000 C 
ATOM     28  N   UNL     1      -4.221  15.795  23.986  0.00  0.00    +0.000 NA
ENDBRANCH  24  27
ENDBRANCH  18  21
ENDBRANCH  14  17
ENDBRANCH   6  11
BRANCH   3  29
ATOM     29  C   UNL     1       7.730   7.600  17.156  0.00  0.00    +0.000 C 
ATOM     30  O   UNL     1       8.545   7.431  16.256  0.00  0.00    +0.000 OA
BRANCH  29  31
ATOM     31  O   UNL     1       7.891   8.471  18.193  0.00  0.00    +0.000 OA
BRANCH  31  32
ATOM     32  C   UNL     1       7.960   9.861  17.853  0.00  0.00    +0.000 C 
BRANCH  32  33
ATOM     33  C   UNL     1       9.147  10.552  18.477  0.00  0.00    +0.000 A 
ATOM     34  C   UNL     1       9.289  10.643  19.871  0.00  0.00    +0.000 A 
ATOM     35  C   UNL     1      10.430  11.224  20.432  0.00  0.00    +0.000 A 
ATOM     36  C   UNL     1      11.433  11.730  19.608  0.00  0.00    +0.000 A 
ATOM     37  C   UNL     1      11.296  11.658  18.223  0.00  0.00    +0.000 A 
ATOM     38  C   UNL     1      10.157  11.078  17.660  0.00  0.00    +0.000 A 
ENDBRANCH  32  33
ENDBRANCH  31  32
ENDBRANCH  29  31
ENDBRANCH   3  29
TORSDOF 8
ENDMDL
MODEL 6
REMARK VINA RESULT:      -7.6      3.812     11.679
REMARK  Name = 
REMARK  9 active torsions:
REMARK  status: ('A' for Active; 'I' for Inactive)
REMARK    1  A    between atoms: C_1  and  N_2
REMARK    2  A    between atoms: C_3  and  C_4
REMARK    3  A    between atoms: C_4  and  O_6
REMARK    4  A    between atoms: O_6  and  C_7
REMARK    5  A    between atoms: C_7  and  C_8
REMARK    6  A    between atoms: C_16  and  C_17
REMARK    7  A    between atoms: C_20  and  N_21
REMARK    8  A    between atoms: C_22  and  C_24
REMARK    9  A    between atoms: C_27  and  C_28
REMARK                            x       y       z     vdW  Elec       q    Type
REMARK                         _______ _______ _______ _____ _____    ______ ____
ROOT
ATOM      1  C   UNL     1       7.126   4.463  16.689  0.00  0.00    +0.000 C 
ATOM      2  N   UNL     1       6.236   5.421  17.306  0.00  0.00    +0.000 N 
ATOM      3  C   UNL     1       6.560   6.619  17.925  0.00  0.00    +0.000 A 
ATOM      4  C   UNL     1       5.358   7.131  18.393  0.00  0.00    +0.000 A 
ATOM      5  C   UNL     1       4.294   6.268  18.032  0.00  0.00    +0.000 A 
ATOM      6  C   UNL     1       2.899   6.236  18.197  0.00  0.00    +0.000 A 
ATOM      7  N   UNL     1       2.212   5.153  17.750  0.00  0.00    +0.000 NA
ATOM      8  C   UNL     1       2.906   4.179  17.132  0.00  0.00    +0.000 A 
ATOM      9  N   UNL     1       4.229   4.119  16.899  0.00  0.00    +0.000 NA
ATOM     10  C   UNL     1       4.875   5.198  17.377  0.00  0.00    +0.000 A 
ENDROOT
BRANCH   6  11
ATOM     11  C   UNL     1       2.163   7.320  18.860  0.00  0.00    +0.000 A 
ATOM     12  C   UNL     1       1.915   7.283  20.241  0.00  0.00    +0.000 A 
ATOM     13  C   UNL     1       1.140   8.249  20.872  0.00  0.00    +0.000 A 
ATOM     14  C   UNL     1       0.639   9.333  20.162  0.00  0.00    +0.000 A 
ATOM     15  C   UNL     1       0.895   9.412  18.791  0.00  0.00    +0.000 A 
ATOM     16  C   UNL     1       1.659   8.421  18.153  0.00  0.00    +0.000 A 
BRANCH  14  17
ATOM     17  N   UNL     1      -0.119  10.348  20.782  0.00  0.00    +0.000 N 
ATOM     18  C   UNL     1       0.398  11.548  21.251  0.00  0.00    +0.000 C 
ATOM     19  O   UNL     1       1.556  11.934  21.137  0.00  0.00    +0.000 OA
ATOM     20  H   UNL     1      -1.111  10.177  20.853  0.00  0.00    +0.000 HD
BRANCH  18  21
ATOM     21  C   UNL     1      -0.538  12.450  21.968  0.00  0.00    +0.000 A 
ATOM     22  C   UNL     1      -0.085  13.750  22.249  0.00  0.00    +0.000 A 
ATOM     23  C   UNL     1      -0.904  14.655  22.921  0.00  0.00    +0.000 A 
ATOM     24  C   UNL     1      -2.188  14.268  23.312  0.00  0.00    +0.000 A 
ATOM     25  C   UNL     1      -2.652  12.980  23.013  0.00  0.00    +0.000 A 
ATOM     26  C   UNL     1      -1.832  12.072  22.337  0.00  0.00    +0.000 A 
BRANCH  24  27
ATOM     27  C   UNL     1      -3.032  15.192  24.008  0.00  0.00    +0.000 C 
ATOM     28  N   UNL     1      -3.719  15.932  24.574  0.00  0.00    +0.000 NA
ENDBRANCH  24  27
ENDBRANCH  18  21
ENDBRANCH  14  17
ENDBRANCH   6  11
BRANCH   3  29
ATOM     29  C   UNL     1       7.874   7.208  18.122  0.00  0.00    +0.000 C 
ATOM     30  O   UNL     1       8.697   6.868  18.965  0.00  0.00    +0.000 OA
BRANCH  29  31
ATOM     31  O   UNL     1       8.020   8.275  17.284  0.00  0.00    +0.000 OA
BRANCH  31  32
ATOM     32  C   UNL     1       7.714   9.563  17.832  0.00  0.00    +0.000 C 
BRANCH  32  33
ATOM     33  C   UNL     1       8.932  10.267  18.375  0.00  0.00    +0.000 A 
ATOM     34  C   UNL     1       9.827  10.935  17.525  0.00  0.00    +0.000 A 
ATOM     35  C   UNL     1      10.913  11.642  18.051  0.00  0.00    +0.000 A 
ATOM     36  C   UNL     1      11.121  11.679  19.428  0.00  0.00    +0.000 A 
ATOM     37  C   UNL     1      10.246  11.007  20.280  0.00  0.00    +0.000 A 
ATOM     38  C   UNL     1       9.161  10.300  19.756  0.00  0.00    +0.000 A 
ENDBRANCH  32  33
ENDBRANCH  31  32
ENDBRANCH  29  31
ENDBRANCH   3  29
TORSDOF 8
ENDMDL
MODEL 7
REMARK VINA RESULT:      -7.5      1.921      2.450
REMARK  Name = 
REMARK  9 active torsions:
REMARK  status: ('A' for Active; 'I' for Inactive)
REMARK    1  A    between atoms: C_1  and  N_2
REMARK    2  A    between atoms: C_3  and  C_4
REMARK    3  A    between atoms: C_4  and  O_6
REMARK    4  A    between atoms: O_6  and  C_7
REMARK    5  A    between atoms: C_7  and  C_8
REMARK    6  A    between atoms: C_16  and  C_17
REMARK    7  A    between atoms: C_20  and  N_21
REMARK    8  A    between atoms: C_22  and  C_24
REMARK    9  A    between atoms: C_27  and  C_28
REMARK                            x       y       z     vdW  Elec       q    Type
REMARK                         _______ _______ _______ _____ _____    ______ ____
ROOT
ATOM      1  C   UNL     1      -5.160  15.695  20.667  0.00  0.00    +0.000 C 
ATOM      2  N   UNL     1      -4.293  14.539  20.671  0.00  0.00    +0.000 N 
ATOM      3  C   UNL     1      -4.501  13.307  20.067  0.00  0.00    +0.000 A 
ATOM      4  C   UNL     1      -3.401  12.534  20.415  0.00  0.00    +0.000 A 
ATOM      5  C   UNL     1      -2.504  13.300  21.201  0.00  0.00    +0.000 A 
ATOM      6  C   UNL     1      -1.262  13.098  21.826  0.00  0.00    +0.000 A 
ATOM      7  N   UNL     1      -0.740  14.099  22.583  0.00  0.00    +0.000 NA
ATOM      8  C   UNL     1      -1.429  15.253  22.660  0.00  0.00    +0.000 A 
ATOM      9  N   UNL     1      -2.606  15.561  22.085  0.00  0.00    +0.000 NA
ATOM     10  C   UNL     1      -3.099  14.536  21.365  0.00  0.00    +0.000 A 
ENDROOT
BRANCH   6  11
ATOM     11  C   UNL     1      -0.523  11.835  21.713  0.00  0.00    +0.000 A 
ATOM     12  C   UNL     1       0.545  11.702  20.813  0.00  0.00    +0.000 A 
ATOM     13  C   UNL     1       1.196  10.489  20.621  0.00  0.00    +0.000 A 
ATOM     14  C   UNL     1       0.853   9.372  21.373  0.00  0.00    +0.000 A 
ATOM     15  C   UNL     1      -0.188   9.482  22.299  0.00  0.00    +0.000 A 
ATOM     16  C   UNL     1      -0.859  10.704  22.472  0.00  0.00    +0.000 A 
BRANCH  14  17
ATOM     17  N   UNL     1       1.519   8.138  21.228  0.00  0.00    +0.000 N 
ATOM     18  C   UNL     1       1.852   7.556  20.013  0.00  0.00    +0.000 C 
ATOM     19  O   UNL     1       1.686   8.048  18.902  0.00  0.00    +0.000 OA
ATOM     20  H   UNL     1       1.787   7.678  22.085  0.00  0.00    +0.000 HD
BRANCH  18  21
ATOM     21  C   UNL     1       2.461   6.203  20.059  0.00  0.00    +0.000 A 
ATOM     22  C   UNL     1       3.622   5.998  19.295  0.00  0.00    +0.000 A 
ATOM     23  C   UNL     1       4.251   4.754  19.283  0.00  0.00    +0.000 A 
ATOM     24  C   UNL     1       3.726   3.706  20.043  0.00  0.00    +0.000 A 
ATOM     25  C   UNL     1       2.581   3.913  20.824  0.00  0.00    +0.000 A 
ATOM     26  C   UNL     1       1.951   5.160  20.838  0.00  0.00    +0.000 A 
BRANCH  24  27
ATOM     27  C   UNL     1       4.365   2.425  20.030  0.00  0.00    +0.000 C 
ATOM     28  N   UNL     1       4.874   1.385  20.026  0.00  0.00    +0.000 NA
ENDBRANCH  24  27
ENDBRANCH  18  21
ENDBRANCH  14  17
ENDBRANCH   6  11
BRANCH   3  29
ATOM     29  C   UNL     1      -5.645  12.864  19.289  0.00  0.00    +0.000 C 
ATOM     30  O   UNL     1      -6.310  13.557  18.528  0.00  0.00    +0.000 OA
BRANCH  29  31
ATOM     31  O   UNL     1      -5.933  11.570  19.609  0.00  0.00    +0.000 OA
BRANCH  31  32
ATOM     32  C   UNL     1      -6.017  10.646  18.518  0.00  0.00    +0.000 C 
BRANCH  32  33
ATOM     33  C   UNL     1      -4.751  10.599  17.699  0.00  0.00    +0.000 A 
ATOM     34  C   UNL     1      -4.615  11.353  16.523  0.00  0.00    +0.000 A 
ATOM     35  C   UNL     1      -3.410  11.352  15.814  0.00  0.00    +0.000 A 
ATOM     36  C   UNL     1      -2.334  10.591  16.266  0.00  0.00    +0.000 A 
ATOM     37  C   UNL     1      -2.464   9.827  17.425  0.00  0.00    +0.000 A 
ATOM     38  C   UNL     1      -3.667   9.827  18.135  0.00  0.00    +0.000 A 
ENDBRANCH  32  33
ENDBRANCH  31  32
ENDBRANCH  29  31
ENDBRANCH   3  29
TORSDOF 8
ENDMDL
MODEL 8
REMARK VINA RESULT:      -7.3      3.557     11.372
REMARK  Name = 
REMARK  9 active torsions:
REMARK  status: ('A' for Active; 'I' for Inactive)
REMARK    1  A    between atoms: C_1  and  N_2
REMARK    2  A    between atoms: C_3  and  C_4
REMARK    3  A    between atoms: C_4  and  O_6
REMARK    4  A    between atoms: O_6  and  C_7
REMARK    5  A    between atoms: C_7  and  C_8
REMARK    6  A    between atoms: C_16  and  C_17
REMARK    7  A    between atoms: C_20  and  N_21
REMARK    8  A    between atoms: C_22  and  C_24
REMARK    9  A    between atoms: C_27  and  C_28
REMARK                            x       y       z     vdW  Elec       q    Type
REMARK                         _______ _______ _______ _____ _____    ______ ____
ROOT
ATOM      1  C   UNL     1       5.757   3.803  15.912  0.00  0.00    +0.000 C 
ATOM      2  N   UNL     1       5.183   4.887  16.677  0.00  0.00    +0.000 N 
ATOM      3  C   UNL     1       5.741   6.124  16.967  0.00  0.00    +0.000 A 
ATOM      4  C   UNL     1       4.812   6.770  17.770  0.00  0.00    +0.000 A 
ATOM      5  C   UNL     1       3.671   5.948  17.944  0.00  0.00    +0.000 A 
ATOM      6  C   UNL     1       2.438   6.034  18.613  0.00  0.00    +0.000 A 
ATOM      7  N   UNL     1       1.610   4.957  18.600  0.00  0.00    +0.000 NA
ATOM      8  C   UNL     1       2.002   3.871  17.908  0.00  0.00    +0.000 A 
ATOM      9  N   UNL     1       3.141   3.691  17.215  0.00  0.00    +0.000 NA
ATOM     10  C   UNL     1       3.942   4.771  17.273  0.00  0.00    +0.000 A 
ENDROOT
BRANCH   6  11
ATOM     11  C   UNL     1       2.028   7.237  19.347  0.00  0.00    +0.000 A 
ATOM     12  C   UNL     1       1.779   7.190  20.727  0.00  0.00    +0.000 A 
ATOM     13  C   UNL     1       1.298   8.292  21.424  0.00  0.00    +0.000 A 
ATOM     14  C   UNL     1       1.113   9.511  20.784  0.00  0.00    +0.000 A 
ATOM     15  C   UNL     1       1.381   9.597  19.415  0.00  0.00    +0.000 A 
ATOM     16  C   UNL     1       1.844   8.473  18.711  0.00  0.00    +0.000 A 
BRANCH  14  17
ATOM     17  N   UNL     1       0.662  10.657  21.472  0.00  0.00    +0.000 N 
ATOM     18  C   UNL     1      -0.490  11.365  21.161  0.00  0.00    +0.000 C 
ATOM     19  O   UNL     1      -1.317  11.068  20.305  0.00  0.00    +0.000 OA
ATOM     20  H   UNL     1       1.222  10.946  22.260  0.00  0.00    +0.000 HD
BRANCH  18  21
ATOM     21  C   UNL     1      -0.747  12.606  21.934  0.00  0.00    +0.000 A 
ATOM     22  C   UNL     1      -0.110  13.778  21.492  0.00  0.00    +0.000 A 
ATOM     23  C   UNL     1      -0.298  14.983  22.167  0.00  0.00    +0.000 A 
ATOM     24  C   UNL     1      -1.134  15.027  23.285  0.00  0.00    +0.000 A 
ATOM     25  C   UNL     1      -1.789  13.865  23.714  0.00  0.00    +0.000 A 
ATOM     26  C   UNL     1      -1.603  12.656  23.038  0.00  0.00    +0.000 A 
BRANCH  24  27
ATOM     27  C   UNL     1      -1.327  16.261  23.985  0.00  0.00    +0.000 C 
ATOM     28  N   UNL     1      -1.474  17.257  24.556  0.00  0.00    +0.000 NA
ENDBRANCH  24  27
ENDBRANCH  18  21
ENDBRANCH  14  17
ENDBRANCH   6  11
BRANCH   3  29
ATOM     29  C   UNL     1       7.046   6.637  16.586  0.00  0.00    +0.000 C 
ATOM     30  O   UNL     1       7.945   5.996  16.055  0.00  0.00    +0.000 OA
BRANCH  29  31
ATOM     31  O   UNL     1       7.159   7.932  17.003  0.00  0.00    +0.000 OA
BRANCH  31  32
ATOM     32  C   UNL     1       7.987   8.163  18.149  0.00  0.00    +0.000 C 
BRANCH  32  33
ATOM     33  C   UNL     1       8.408   9.605  18.279  0.00  0.00    +0.000 A 
ATOM     34  C   UNL     1       7.829  10.608  17.486  0.00  0.00    +0.000 A 
ATOM     35  C   UNL     1       8.179  11.949  17.669  0.00  0.00    +0.000 A 
ATOM     36  C   UNL     1       9.117  12.300  18.637  0.00  0.00    +0.000 A 
ATOM     37  C   UNL     1       9.709  11.311  19.421  0.00  0.00    +0.000 A 
ATOM     38  C   UNL     1       9.360   9.971  19.239  0.00  0.00    +0.000 A 
ENDBRANCH  32  33
ENDBRANCH  31  32
ENDBRANCH  29  31
ENDBRANCH   3  29
TORSDOF 8
ENDMDL
MODEL 9
REMARK VINA RESULT:      -7.3      3.949     11.764
REMARK  Name = 
REMARK  9 active torsions:
REMARK  status: ('A' for Active; 'I' for Inactive)
REMARK    1  A    between atoms: C_1  and  N_2
REMARK    2  A    between atoms: C_3  and  C_4
REMARK    3  A    between atoms: C_4  and  O_6
REMARK    4  A    between atoms: O_6  and  C_7
REMARK    5  A    between atoms: C_7  and  C_8
REMARK    6  A    between atoms: C_16  and  C_17
REMARK    7  A    between atoms: C_20  and  N_21
REMARK    8  A    between atoms: C_22  and  C_24
REMARK    9  A    between atoms: C_27  and  C_28
REMARK                            x       y       z     vdW  Elec       q    Type
REMARK                         _______ _______ _______ _____ _____    ______ ____
ROOT
ATOM      1  C   UNL     1       7.286   4.752  16.127  0.00  0.00    +0.000 C 
ATOM      2  N   UNL     1       6.365   5.627  16.817  0.00  0.00    +0.000 N 
ATOM      3  C   UNL     1       6.580   6.924  17.260  0.00  0.00    +0.000 A 
ATOM      4  C   UNL     1       5.406   7.295  17.901  0.00  0.00    +0.000 A 
ATOM      5  C   UNL     1       4.460   6.243  17.821  0.00  0.00    +0.000 A 
ATOM      6  C   UNL     1       3.140   6.017  18.248  0.00  0.00    +0.000 A 
ATOM      7  N   UNL     1       2.583   4.797  18.033  0.00  0.00    +0.000 NA
ATOM      8  C   UNL     1       3.318   3.877  17.380  0.00  0.00    +0.000 A 
ATOM      9  N   UNL     1       4.571   3.994  16.907  0.00  0.00    +0.000 NA
ATOM     10  C   UNL     1       5.095   5.208  17.162  0.00  0.00    +0.000 A 
ENDROOT
BRANCH   6  11
ATOM     11  C   UNL     1       2.355   7.044  18.944  0.00  0.00    +0.000 A 
ATOM     12  C   UNL     1       2.003   8.241  18.302  0.00  0.00    +0.000 A 
ATOM     13  C   UNL     1       1.344   9.265  18.971  0.00  0.00    +0.000 A 
ATOM     14  C   UNL     1       0.944   9.108  20.293  0.00  0.00    +0.000 A 
ATOM     15  C   UNL     1       1.254   7.915  20.949  0.00  0.00    +0.000 A 
ATOM     16  C   UNL     1       1.942   6.892  20.276  0.00  0.00    +0.000 A 
BRANCH  14  17
ATOM     17  N   UNL     1       0.240  10.115  20.986  0.00  0.00    +0.000 N 
ATOM     18  C   UNL     1       0.561  11.464  20.964  0.00  0.00    +0.000 C 
ATOM     19  O   UNL     1       1.444  11.990  20.294  0.00  0.00    +0.000 OA
ATOM     20  H   UNL     1      -0.568   9.808  21.508  0.00  0.00    +0.000 HD
BRANCH  18  21
ATOM     21  C   UNL     1      -0.234  12.360  21.841  0.00  0.00    +0.000 A 
ATOM     22  C   UNL     1       0.162  13.707  21.906  0.00  0.00    +0.000 A 
ATOM     23  C   UNL     1      -0.533  14.610  22.709  0.00  0.00    +0.000 A 
ATOM     24  C   UNL     1      -1.634  14.174  23.448  0.00  0.00    +0.000 A 
ATOM     25  C   UNL     1      -2.046  12.837  23.368  0.00  0.00    +0.000 A 
ATOM     26  C   UNL     1      -1.352  11.931  22.561  0.00  0.00    +0.000 A 
BRANCH  24  27
ATOM     27  C   UNL     1      -2.348  15.096  24.279  0.00  0.00    +0.000 C 
ATOM     28  N   UNL     1      -2.918  15.841  24.958  0.00  0.00    +0.000 NA
ENDBRANCH  24  27
ENDBRANCH  18  21
ENDBRANCH  14  17
ENDBRANCH   6  11
BRANCH   3  29
ATOM     29  C   UNL     1       7.787   7.725  17.155  0.00  0.00    +0.000 C 
ATOM     30  O   UNL     1       8.670   7.592  16.316  0.00  0.00    +0.000 OA
BRANCH  29  31
ATOM     31  O   UNL     1       7.841   8.598  18.203  0.00  0.00    +0.000 OA
BRANCH  31  32
ATOM     32  C   UNL     1       7.972   9.985  17.873  0.00  0.00    +0.000 C 
BRANCH  32  33
ATOM     33  C   UNL     1       9.152  10.634  18.550  0.00  0.00    +0.000 A 
ATOM     34  C   UNL     1       9.194  10.796  19.944  0.00  0.00    +0.000 A 
ATOM     35  C   UNL     1      10.326  11.336  20.563  0.00  0.00    +0.000 A 
ATOM     36  C   UNL     1      11.421  11.728  19.795  0.00  0.00    +0.000 A 
ATOM     37  C   UNL     1      11.384  11.585  18.409  0.00  0.00    +0.000 A 
ATOM     38  C   UNL     1      10.254  11.047  17.790  0.00  0.00    +0.000 A 
ENDBRANCH  32  33
ENDBRANCH  31  32
ENDBRANCH  29  31
ENDBRANCH   3  29
TORSDOF 8
ENDMDL
