MODEL 1
REMARK VINA RESULT:      -6.7      0.000      0.000
REMARK  Name = 
REMARK  6 active torsions:
REMARK  status: ('A' for Active; 'I' for Inactive)
REMARK    1  A    between atoms: C_1  and  C_2
REMARK    2  A    between atoms: C_2  and  C_3
REMARK    3  A    between atoms: C_2  and  C_4
REMARK    4  A    between atoms: C_2  and  C_5
REMARK    5  A    between atoms: C_8  and  C_9
REMARK    6  A    between atoms: N_11  and  N_12
REMARK                            x       y       z     vdW  Elec       q    Type
REMARK                         _______ _______ _______ _____ _____    ______ ____
ROOT
ATOM      1  C   UNL     1       0.628   9.904  19.335  0.00  0.00    +0.000 A 
ATOM      2  C   UNL     1       1.217   9.652  18.084  0.00  0.00    +0.000 A 
ATOM      3  C   UNL     1       2.056   8.552  17.874  0.00  0.00    +0.000 A 
ATOM      4  C   UNL     1       2.332   7.668  18.911  0.00  0.00    +0.000 A 
ATOM      5  C   UNL     1       1.795   7.919  20.180  0.00  0.00    +0.000 A 
ATOM      6  C   UNL     1       0.956   9.026  20.386  0.00  0.00    +0.000 A 
ENDROOT
BRANCH   1   8
ATOM      7  C   UNL     1       0.200  12.420  19.069  0.00  0.00    +0.000 C 
ATOM      8  C   UNL     1      -0.362  11.066  19.557  0.00  0.00    +0.000 C 
ATOM      9  C   UNL     1      -0.717  11.228  21.050  0.00  0.00    +0.000 C 
ATOM     10  C   UNL     1      -1.668  10.799  18.775  0.00  0.00    +0.000 C 
ENDBRANCH   1   8
BRANCH   4  11
ATOM     11  C   UNL     1       3.206   6.492  18.613  0.00  0.00    +0.000 C 
ATOM     12  O   UNL     1       3.057   5.457  19.251  0.00  0.00    +0.000 OA
ATOM     13  N   UNL     1       4.153   6.695  17.620  0.00  0.00    +0.000 N 
ATOM     14  H   UNL     1       4.271   7.605  17.193  0.00  0.00    +0.000 HD
BRANCH  13  15
ATOM     15  N   UNL     1       5.047   5.657  17.263  0.00  0.00    +0.000 NA
ATOM     16  C   UNL     1       5.159   5.562  15.796  0.00  0.00    +0.000 C 
ATOM     17  C   UNL     1       6.369   4.822  15.297  0.00  0.00    +0.000 C 
ATOM     18  C   UNL     1       7.366   4.416  16.095  0.00  0.00    +0.000 C 
ATOM     19  C   UNL     1       7.334   4.703  17.566  0.00  0.00    +0.000 C 
ATOM     20  C   UNL     1       6.352   5.833  17.914  0.00  0.00    +0.000 C 
ENDBRANCH  13  15
ENDBRANCH   4  11
TORSDOF 3
ENDMDL
MODEL 2
REMARK VINA RESULT:      -6.6      0.256      1.051
REMARK  Name = 
REMARK  6 active torsions:
REMARK  status: ('A' for Active; 'I' for Inactive)
REMARK    1  A    between atoms: C_1  and  C_2
REMARK    2  A    between atoms: C_2  and  C_3
REMARK    3  A    between atoms: C_2  and  C_4
REMARK    4  A    between atoms: C_2  and  C_5
REMARK    5  A    between atoms: C_8  and  C_9
REMARK    6  A    between atoms: N_11  and  N_12
REMARK                            x       y       z     vdW  Elec       q    Type
REMARK                         _______ _______ _______ _____ _____    ______ ____
ROOT
ATOM      1  C   UNL     1       0.723   9.892  19.469  0.00  0.00    +0.000 A 
ATOM      2  C   UNL     1       1.281   9.725  18.190  0.00  0.00    +0.000 A 
ATOM      3  C   UNL     1       2.076   8.619  17.872  0.00  0.00    +0.000 A 
ATOM      4  C   UNL     1       2.338   7.642  18.826  0.00  0.00    +0.000 A 
ATOM      5  C   UNL     1       1.832   7.803  20.122  0.00  0.00    +0.000 A 
ATOM      6  C   UNL     1       1.037   8.917  20.436  0.00  0.00    +0.000 A 
ENDROOT
BRANCH   1   8
ATOM      7  C   UNL     1      -0.634  11.078  21.296  0.00  0.00    +0.000 C 
ATOM      8  C   UNL     1      -0.221  11.064  19.807  0.00  0.00    +0.000 C 
ATOM      9  C   UNL     1      -1.517  11.004  18.972  0.00  0.00    +0.000 C 
ATOM     10  C   UNL     1       0.483  12.407  19.511  0.00  0.00    +0.000 C 
ENDBRANCH   1   8
BRANCH   4  11
ATOM     11  C   UNL     1       3.164   6.466  18.414  0.00  0.00    +0.000 C 
ATOM     12  O   UNL     1       2.901   5.359  18.867  0.00  0.00    +0.000 OA
ATOM     13  N   UNL     1       4.204   6.749  17.540  0.00  0.00    +0.000 N 
ATOM     14  H   UNL     1       4.411   7.703  17.272  0.00  0.00    +0.000 HD
BRANCH  13  15
ATOM     15  N   UNL     1       5.063   5.717  17.093  0.00  0.00    +0.000 NA
ATOM     16  C   UNL     1       5.190   5.760  15.624  0.00  0.00    +0.000 C 
ATOM     17  C   UNL     1       6.378   5.025  15.067  0.00  0.00    +0.000 C 
ATOM     18  C   UNL     1       7.349   4.506  15.832  0.00  0.00    +0.000 C 
ATOM     19  C   UNL     1       7.308   4.652  17.324  0.00  0.00    +0.000 C 
ATOM     20  C   UNL     1       6.365   5.779  17.770  0.00  0.00    +0.000 C 
ENDBRANCH  13  15
ENDBRANCH   4  11
TORSDOF 3
ENDMDL
MODEL 3
REMARK VINA RESULT:      -6.6      0.667      1.648
REMARK  Name = 
REMARK  6 active torsions:
REMARK  status: ('A' for Active; 'I' for Inactive)
REMARK    1  A    between atoms: C_1  and  C_2
REMARK    2  A    between atoms: C_2  and  C_3
REMARK    3  A    between atoms: C_2  and  C_4
REMARK    4  A    between atoms: C_2  and  C_5
REMARK    5  A    between atoms: C_8  and  C_9
REMARK    6  A    between atoms: N_11  and  N_12
REMARK                            x       y       z     vdW  Elec       q    Type
REMARK                         _______ _______ _______ _____ _____    ______ ____
ROOT
ATOM      1  C   UNL     1       0.828   9.828  19.843  0.00  0.00    +0.000 A 
ATOM      2  C   UNL     1       1.186   8.716  20.626  0.00  0.00    +0.000 A 
ATOM      3  C   UNL     1       1.891   7.635  20.087  0.00  0.00    +0.000 A 
ATOM      4  C   UNL     1       2.261   7.630  18.746  0.00  0.00    +0.000 A 
ATOM      5  C   UNL     1       1.879   8.703  17.933  0.00  0.00    +0.000 A 
ATOM      6  C   UNL     1       1.169   9.786  18.477  0.00  0.00    +0.000 A 
ENDROOT
BRANCH   1   8
ATOM      7  C   UNL     1      -0.305  10.839  21.911  0.00  0.00    +0.000 C 
ATOM      8  C   UNL     1       0.124  11.061  20.443  0.00  0.00    +0.000 C 
ATOM      9  C   UNL     1      -1.145  11.432  19.646  0.00  0.00    +0.000 C 
ATOM     10  C   UNL     1       1.080  12.275  20.420  0.00  0.00    +0.000 C 
ENDBRANCH   1   8
BRANCH   4  11
ATOM     11  C   UNL     1       3.044   6.461  18.241  0.00  0.00    +0.000 C 
ATOM     12  O   UNL     1       2.636   5.327  18.456  0.00  0.00    +0.000 OA
ATOM     13  N   UNL     1       4.216   6.779  17.571  0.00  0.00    +0.000 N 
ATOM     14  H   UNL     1       4.532   7.739  17.504  0.00  0.00    +0.000 HD
BRANCH  13  15
ATOM     15  N   UNL     1       5.049   5.754  17.061  0.00  0.00    +0.000 NA
ATOM     16  C   UNL     1       5.182   5.884  15.599  0.00  0.00    +0.000 C 
ATOM     17  C   UNL     1       6.352   5.153  14.999  0.00  0.00    +0.000 C 
ATOM     18  C   UNL     1       7.306   4.562  15.732  0.00  0.00    +0.000 C 
ATOM     19  C   UNL     1       7.264   4.617  17.229  0.00  0.00    +0.000 C 
ATOM     20  C   UNL     1       6.351   5.739  17.743  0.00  0.00    +0.000 C 
ENDBRANCH  13  15
ENDBRANCH   4  11
TORSDOF 3
ENDMDL
MODEL 4
REMARK VINA RESULT:      -6.6      0.724      1.575
REMARK  Name = 
REMARK  6 active torsions:
REMARK  status: ('A' for Active; 'I' for Inactive)
REMARK    1  A    between atoms: C_1  and  C_2
REMARK    2  A    between atoms: C_2  and  C_3
REMARK    3  A    between atoms: C_2  and  C_4
REMARK    4  A    between atoms: C_2  and  C_5
REMARK    5  A    between atoms: C_8  and  C_9
REMARK    6  A    between atoms: N_11  and  N_12
REMARK                            x       y       z     vdW  Elec       q    Type
REMARK                         _______ _______ _______ _____ _____    ______ ____
ROOT
ATOM      1  C   UNL     1       0.854   9.740  19.970  0.00  0.00    +0.000 A 
ATOM      2  C   UNL     1       1.222   8.613  20.726  0.00  0.00    +0.000 A 
ATOM      3  C   UNL     1       1.921   7.543  20.157  0.00  0.00    +0.000 A 
ATOM      4  C   UNL     1       2.275   7.567  18.812  0.00  0.00    +0.000 A 
ATOM      5  C   UNL     1       1.884   8.656  18.025  0.00  0.00    +0.000 A 
ATOM      6  C   UNL     1       1.179   9.727  18.600  0.00  0.00    +0.000 A 
ENDROOT
BRANCH   1   8
ATOM      7  C   UNL     1      -1.102  11.394  19.819  0.00  0.00    +0.000 C 
ATOM      8  C   UNL     1       0.156  10.960  20.604  0.00  0.00    +0.000 C 
ATOM      9  C   UNL     1       1.099  12.180  20.669  0.00  0.00    +0.000 C 
ATOM     10  C   UNL     1      -0.293  10.619  22.043  0.00  0.00    +0.000 C 
ENDBRANCH   1   8
BRANCH   4  11
ATOM     11  C   UNL     1       3.054   6.409  18.274  0.00  0.00    +0.000 C 
ATOM     12  O   UNL     1       2.635   5.272  18.448  0.00  0.00    +0.000 OA
ATOM     13  N   UNL     1       4.233   6.740  17.623  0.00  0.00    +0.000 N 
ATOM     14  H   UNL     1       4.556   7.699  17.589  0.00  0.00    +0.000 HD
BRANCH  13  15
ATOM     15  N   UNL     1       5.062   5.726  17.085  0.00  0.00    +0.000 NA
ATOM     16  C   UNL     1       5.145   5.859  15.619  0.00  0.00    +0.000 C 
ATOM     17  C   UNL     1       6.304   5.143  14.981  0.00  0.00    +0.000 C 
ATOM     18  C   UNL     1       7.289   4.564  15.681  0.00  0.00    +0.000 C 
ATOM     19  C   UNL     1       7.296   4.617  17.179  0.00  0.00    +0.000 C 
ATOM     20  C   UNL     1       6.385   5.727  17.724  0.00  0.00    +0.000 C 
ENDBRANCH  13  15
ENDBRANCH   4  11
TORSDOF 3
ENDMDL
MODEL 5
REMARK VINA RESULT:      -6.6      0.496      1.034
REMARK  Name = 
REMARK  6 active torsions:
REMARK  status: ('A' for Active; 'I' for Inactive)
REMARK    1  A    between atoms: C_1  and  C_2
REMARK    2  A    between atoms: C_2  and  C_3
REMARK    3  A    between atoms: C_2  and  C_4
REMARK    4  A    between atoms: C_2  and  C_5
REMARK    5  A    between atoms: C_8  and  C_9
REMARK    6  A    between atoms: N_11  and  N_12
REMARK                            x       y       z     vdW  Elec       q    Type
REMARK                         _______ _______ _______ _____ _____    ______ ____
ROOT
ATOM      1  C   UNL     1       0.807   9.875  19.579  0.00  0.00    +0.000 A 
ATOM      2  C   UNL     1       1.283   9.771  18.260  0.00  0.00    +0.000 A 
ATOM      3  C   UNL     1       2.017   8.661  17.828  0.00  0.00    +0.000 A 
ATOM      4  C   UNL     1       2.298   7.618  18.703  0.00  0.00    +0.000 A 
ATOM      5  C   UNL     1       1.875   7.714  20.034  0.00  0.00    +0.000 A 
ATOM      6  C   UNL     1       1.141   8.831  20.464  0.00  0.00    +0.000 A 
ENDROOT
BRANCH   1   8
ATOM      7  C   UNL     1      -1.368  11.186  19.214  0.00  0.00    +0.000 C 
ATOM      8  C   UNL     1      -0.072  11.053  20.044  0.00  0.00    +0.000 C 
ATOM      9  C   UNL     1       0.681  12.396  19.937  0.00  0.00    +0.000 C 
ATOM     10  C   UNL     1      -0.487  10.849  21.518  0.00  0.00    +0.000 C 
ENDBRANCH   1   8
BRANCH   4  11
ATOM     11  C   UNL     1       3.055   6.443  18.170  0.00  0.00    +0.000 C 
ATOM     12  O   UNL     1       2.577   5.321  18.281  0.00  0.00    +0.000 OA
ATOM     13  N   UNL     1       4.283   6.741  17.598  0.00  0.00    +0.000 N 
ATOM     14  H   UNL     1       4.649   7.684  17.615  0.00  0.00    +0.000 HD
BRANCH  13  15
ATOM     15  N   UNL     1       5.095   5.707  17.073  0.00  0.00    +0.000 NA
ATOM     16  C   UNL     1       5.172   5.813  15.604  0.00  0.00    +0.000 C 
ATOM     17  C   UNL     1       6.318   5.073  14.972  0.00  0.00    +0.000 C 
ATOM     18  C   UNL     1       7.300   4.493  15.676  0.00  0.00    +0.000 C 
ATOM     19  C   UNL     1       7.316   4.572  17.173  0.00  0.00    +0.000 C 
ATOM     20  C   UNL     1       6.422   5.702  17.704  0.00  0.00    +0.000 C 
ENDBRANCH  13  15
ENDBRANCH   4  11
TORSDOF 3
ENDMDL
MODEL 6
REMARK VINA RESULT:      -6.6      0.309      1.141
REMARK  Name = 
REMARK  6 active torsions:
REMARK  status: ('A' for Active; 'I' for Inactive)
REMARK    1  A    between atoms: C_1  and  C_2
REMARK    2  A    between atoms: C_2  and  C_3
REMARK    3  A    between atoms: C_2  and  C_4
REMARK    4  A    between atoms: C_2  and  C_5
REMARK    5  A    between atoms: C_8  and  C_9
REMARK    6  A    between atoms: N_11  and  N_12
REMARK                            x       y       z     vdW  Elec       q    Type
REMARK                         _______ _______ _______ _____ _____    ______ ____
ROOT
ATOM      1  C   UNL     1       0.693   9.853  19.581  0.00  0.00    +0.000 A 
ATOM      2  C   UNL     1       1.051   8.857  20.506  0.00  0.00    +0.000 A 
ATOM      3  C   UNL     1       1.853   7.770  20.143  0.00  0.00    +0.000 A 
ATOM      4  C   UNL     1       2.325   7.646  18.840  0.00  0.00    +0.000 A 
ATOM      5  C   UNL     1       1.948   8.599  17.887  0.00  0.00    +0.000 A 
ATOM      6  C   UNL     1       1.140   9.686  18.256  0.00  0.00    +0.000 A 
ENDROOT
BRANCH   1   8
ATOM      7  C   UNL     1       0.619  12.416  19.676  0.00  0.00    +0.000 C 
ATOM      8  C   UNL     1      -0.122  11.097  19.988  0.00  0.00    +0.000 C 
ATOM      9  C   UNL     1      -0.439  11.095  21.499  0.00  0.00    +0.000 C 
ATOM     10  C   UNL     1      -1.460  11.125  19.214  0.00  0.00    +0.000 C 
ENDBRANCH   1   8
BRANCH   4  11
ATOM     11  C   UNL     1       3.208   6.481  18.526  0.00  0.00    +0.000 C 
ATOM     12  O   UNL     1       3.113   5.458  19.193  0.00  0.00    +0.000 OA
ATOM     13  N   UNL     1       4.102   6.681  17.484  0.00  0.00    +0.000 N 
ATOM     14  H   UNL     1       4.180   7.583  17.032  0.00  0.00    +0.000 HD
BRANCH  13  15
ATOM     15  N   UNL     1       5.000   5.653  17.106  0.00  0.00    +0.000 NA
ATOM     16  C   UNL     1       5.156   5.625  15.640  0.00  0.00    +0.000 C 
ATOM     17  C   UNL     1       6.376   4.899  15.144  0.00  0.00    +0.000 C 
ATOM     18  C   UNL     1       7.346   4.449  15.953  0.00  0.00    +0.000 C 
ATOM     19  C   UNL     1       7.271   4.670  17.434  0.00  0.00    +0.000 C 
ATOM     20  C   UNL     1       6.286   5.790  17.803  0.00  0.00    +0.000 C 
ENDBRANCH  13  15
ENDBRANCH   4  11
TORSDOF 3
ENDMDL
MODEL 7
REMARK VINA RESULT:      -6.6      3.160      7.492
REMARK  Name = 
REMARK  6 active torsions:
REMARK  status: ('A' for Active; 'I' for Inactive)
REMARK    1  A    between atoms: C_1  and  C_2
REMARK    2  A    between atoms: C_2  and  C_3
REMARK    3  A    between atoms: C_2  and  C_4
REMARK    4  A    between atoms: C_2  and  C_5
REMARK    5  A    between atoms: C_8  and  C_9
REMARK    6  A    between atoms: N_11  and  N_12
REMARK                            x       y       z     vdW  Elec       q    Type
REMARK                         _______ _______ _______ _____ _____    ______ ____
ROOT
ATOM      1  C   UNL     1       2.402   4.580  19.708  0.00  0.00    +0.000 A 
ATOM      2  C   UNL     1       1.997   5.604  20.581  0.00  0.00    +0.000 A 
ATOM      3  C   UNL     1       1.849   6.925  20.146  0.00  0.00    +0.000 A 
ATOM      4  C   UNL     1       2.101   7.264  18.820  0.00  0.00    +0.000 A 
ATOM      5  C   UNL     1       2.549   6.273  17.939  0.00  0.00    +0.000 A 
ATOM      6  C   UNL     1       2.699   4.949  18.382  0.00  0.00    +0.000 A 
ENDROOT
BRANCH   1   8
ATOM      7  C   UNL     1       2.053   2.911  21.626  0.00  0.00    +0.000 C 
ATOM      8  C   UNL     1       2.491   3.107  20.157  0.00  0.00    +0.000 C 
ATOM      9  C   UNL     1       3.929   2.563  20.030  0.00  0.00    +0.000 C 
ATOM     10  C   UNL     1       1.565   2.235  19.279  0.00  0.00    +0.000 C 
ENDBRANCH   1   8
BRANCH   4  11
ATOM     11  C   UNL     1       1.888   8.686  18.410  0.00  0.00    +0.000 C 
ATOM     12  O   UNL     1       2.417   9.100  17.386  0.00  0.00    +0.000 OA
ATOM     13  N   UNL     1       1.101   9.439  19.268  0.00  0.00    +0.000 N 
ATOM     14  H   UNL     1       0.765   9.050  20.140  0.00  0.00    +0.000 HD
BRANCH  13  15
ATOM     15  N   UNL     1       0.843  10.803  18.990  0.00  0.00    +0.000 NA
ATOM     16  C   UNL     1      -0.528  10.968  18.473  0.00  0.00    +0.000 C 
ATOM     17  C   UNL     1      -1.071  12.368  18.550  0.00  0.00    +0.000 C 
ATOM     18  C   UNL     1      -0.444  13.369  19.183  0.00  0.00    +0.000 C 
ATOM     19  C   UNL     1       0.859  13.133  19.885  0.00  0.00    +0.000 C 
ATOM     20  C   UNL     1       1.103  11.643  20.167  0.00  0.00    +0.000 C 
ENDBRANCH  13  15
ENDBRANCH   4  11
TORSDOF 3
ENDMDL
MODEL 8
REMARK VINA RESULT:      -6.4      2.570      3.216
REMARK  Name = 
REMARK  6 active torsions:
REMARK  status: ('A' for Active; 'I' for Inactive)
REMARK    1  A    between atoms: C_1  and  C_2
REMARK    2  A    between atoms: C_2  and  C_3
REMARK    3  A    between atoms: C_2  and  C_4
REMARK    4  A    between atoms: C_2  and  C_5
REMARK    5  A    between atoms: C_8  and  C_9
REMARK    6  A    between atoms: N_11  and  N_12
REMARK                            x       y       z     vdW  Elec       q    Type
REMARK                         _______ _______ _______ _____ _____    ______ ____
ROOT
ATOM      1  C   UNL     1       0.739  10.315  19.834  0.00  0.00    +0.000 A 
ATOM      2  C   UNL     1       0.999   9.194  20.642  0.00  0.00    +0.000 A 
ATOM      3  C   UNL     1       1.663   8.067  20.145  0.00  0.00    +0.000 A 
ATOM      4  C   UNL     1       2.089   8.026  18.822  0.00  0.00    +0.000 A 
ATOM      5  C   UNL     1       1.805   9.110  17.982  0.00  0.00    +0.000 A 
ATOM      6  C   UNL     1       1.136  10.237  18.485  0.00  0.00    +0.000 A 
ENDROOT
BRANCH   1   8
ATOM      7  C   UNL     1      -1.213  11.968  19.637  0.00  0.00    +0.000 C 
ATOM      8  C   UNL     1       0.082  11.594  20.392  0.00  0.00    +0.000 C 
ATOM      9  C   UNL     1       1.034  12.805  20.298  0.00  0.00    +0.000 C 
ATOM     10  C   UNL     1      -0.292  11.386  21.877  0.00  0.00    +0.000 C 
ENDBRANCH   1   8
BRANCH   4  11
ATOM     11  C   UNL     1       2.825   6.809  18.362  0.00  0.00    +0.000 C 
ATOM     12  O   UNL     1       3.724   6.926  17.538  0.00  0.00    +0.000 OA
ATOM     13  N   UNL     1       2.393   5.612  18.913  0.00  0.00    +0.000 N 
ATOM     14  H   UNL     1       1.588   5.584  19.527  0.00  0.00    +0.000 HD
BRANCH  13  15
ATOM     15  N   UNL     1       3.005   4.391  18.541  0.00  0.00    +0.000 NA
ATOM     16  C   UNL     1       3.729   3.812  19.688  0.00  0.00    +0.000 C 
ATOM     17  C   UNL     1       4.046   2.347  19.565  0.00  0.00    +0.000 C 
ATOM     18  C   UNL     1       3.576   1.570  18.579  0.00  0.00    +0.000 C 
ATOM     19  C   UNL     1       2.668   2.135  17.528  0.00  0.00    +0.000 C 
ATOM     20  C   UNL     1       2.025   3.458  17.968  0.00  0.00    +0.000 C 
ENDBRANCH  13  15
ENDBRANCH   4  11
TORSDOF 3
ENDMDL
MODEL 9
REMARK VINA RESULT:      -6.4      2.496      3.207
REMARK  Name = 
REMARK  6 active torsions:
REMARK  status: ('A' for Active; 'I' for Inactive)
REMARK    1  A    between atoms: C_1  and  C_2
REMARK    2  A    between atoms: C_2  and  C_3
REMARK    3  A    between atoms: C_2  and  C_4
REMARK    4  A    between atoms: C_2  and  C_5
REMARK    5  A    between atoms: C_8  and  C_9
REMARK    6  A    between atoms: N_11  and  N_12
REMARK                            x       y       z     vdW  Elec       q    Type
REMARK                         _______ _______ _______ _____ _____    ______ ____
ROOT
ATOM      1  C   UNL     1       0.732  10.328  19.628  0.00  0.00    +0.000 A 
ATOM      2  C   UNL     1       0.968   9.235  20.481  0.00  0.00    +0.000 A 
ATOM      3  C   UNL     1       1.665   8.103  20.048  0.00  0.00    +0.000 A 
ATOM      4  C   UNL     1       2.151   8.027  18.747  0.00  0.00    +0.000 A 
ATOM      5  C   UNL     1       1.892   9.081  17.863  0.00  0.00    +0.000 A 
ATOM      6  C   UNL     1       1.189  10.215  18.301  0.00  0.00    +0.000 A 
ENDROOT
BRANCH   1   8
ATOM      7  C   UNL     1      -0.179  11.624  21.647  0.00  0.00    +0.000 C 
ATOM      8  C   UNL     1       0.036  11.615  20.117  0.00  0.00    +0.000 C 
ATOM      9  C   UNL     1      -1.348  11.794  19.458  0.00  0.00    +0.000 C 
ATOM     10  C   UNL     1       0.902  12.845  19.764  0.00  0.00    +0.000 C 
ENDBRANCH   1   8
BRANCH   4  11
ATOM     11  C   UNL     1       2.920   6.806  18.358  0.00  0.00    +0.000 C 
ATOM     12  O   UNL     1       3.954   6.928  17.713  0.00  0.00    +0.000 OA
ATOM     13  N   UNL     1       2.361   5.601  18.758  0.00  0.00    +0.000 N 
ATOM     14  H   UNL     1       1.459   5.574  19.218  0.00  0.00    +0.000 HD
BRANCH  13  15
ATOM     15  N   UNL     1       2.993   4.377  18.433  0.00  0.00    +0.000 NA
ATOM     16  C   UNL     1       3.758   3.874  19.589  0.00  0.00    +0.000 C 
ATOM     17  C   UNL     1       4.107   2.412  19.533  0.00  0.00    +0.000 C 
ATOM     18  C   UNL     1       3.631   1.575  18.600  0.00  0.00    +0.000 C 
ATOM     19  C   UNL     1       2.684   2.064  17.546  0.00  0.00    +0.000 C 
ATOM     20  C   UNL     1       2.021   3.394  17.934  0.00  0.00    +0.000 C 
ENDBRANCH  13  15
ENDBRANCH   4  11
TORSDOF 3
ENDMDL
