MODEL 1
REMARK VINA RESULT:      -8.4      0.000      0.000
REMARK  Name = 
REMARK  11 active torsions:
REMARK  status: ('A' for Active; 'I' for Inactive)
REMARK    1  A    between atoms: C_1  and  C_2
REMARK    2  A    between atoms: C_2  and  C_3
REMARK    3  A    between atoms: C_2  and  C_4
REMARK    4  A    between atoms: C_2  and  N_5
REMARK    5  A    between atoms: N_5  and  S_6
REMARK    6  A    between atoms: S_6  and  C_9
REMARK    7  A    between atoms: C_12  and  N_13
REMARK    8  A    between atoms: N_13  and  C_14
REMARK    9  A    between atoms: C_20  and  N_21
REMARK   10  A    between atoms: N_21  and  C_22
REMARK   11  A    between atoms: C_22  and  C_23
REMARK                            x       y       z     vdW  Elec       q    Type
REMARK                         _______ _______ _______ _____ _____    ______ ____
ROOT
ATOM      1  C   UNL     1       1.246   9.171  19.735  0.00  0.00    +0.000 A 
ATOM      2  C   UNL     1       1.503   9.208  18.377  0.00  0.00    +0.000 A 
ATOM      3  C   UNL     1       2.214   8.154  17.790  0.00  0.00    +0.000 A 
ATOM      4  C   UNL     1       2.617   7.017  18.519  0.00  0.00    +0.000 A 
ATOM      5  C   UNL     1       2.185   6.912  19.868  0.00  0.00    +0.000 A 
ATOM      6  C   UNL     1       1.627   8.061  20.472  0.00  0.00    +0.000 A 
ENDROOT
BRANCH   1   7
ATOM      7  S   UNL     1       0.195  10.379  20.497  0.00  0.00    +0.000 S 
ATOM      8  O   UNL     1       0.945  11.607  20.635  0.00  0.00    +0.000 OA
ATOM      9  O   UNL     1      -0.381   9.720  21.649  0.00  0.00    +0.000 OA
BRANCH   7  10
ATOM     10  N   UNL     1      -1.052  10.601  19.412  0.00  0.00    +0.000 NA
ATOM     11  H   UNL     1      -1.006   9.926  18.646  0.00  0.00    +0.000 HD
BRANCH  10  13
ATOM     12  C   UNL     1      -3.076  11.625  18.417  0.00  0.00    +0.000 C 
ATOM     13  C   UNL     1      -1.748  11.870  19.129  0.00  0.00    +0.000 C 
ATOM     14  C   UNL     1      -0.851  12.831  18.336  0.00  0.00    +0.000 C 
ATOM     15  C   UNL     1      -2.027  12.526  20.497  0.00  0.00    +0.000 C 
ENDBRANCH  10  13
ENDBRANCH   7  10
ENDBRANCH   1   7
BRANCH   4  16
ATOM     16  N   UNL     1       3.484   6.095  17.950  0.00  0.00    +0.000 N 
ATOM     17  H   UNL     1       3.071   5.581  17.182  0.00  0.00    +0.000 HD
BRANCH  16  18
ATOM     18  C   UNL     1       4.945   5.959  18.100  0.00  0.00    +0.000 C 
ATOM     19  C   UNL     1       5.525   4.566  17.777  0.00  0.00    +0.000 C 
ATOM     20  C   UNL     1       5.167   4.096  16.373  0.00  0.00    +0.000 C 
ATOM     21  C   UNL     1       5.579   5.107  15.306  0.00  0.00    +0.000 C 
ATOM     22  C   UNL     1       5.218   6.553  15.655  0.00  0.00    +0.000 C 
ATOM     23  C   UNL     1       5.601   6.926  17.092  0.00  0.00    +0.000 C 
ENDBRANCH  16  18
ENDBRANCH   4  16
BRANCH   5  24
ATOM     24  N   UNL     1       2.241   5.832  20.740  0.00  0.00    +0.000 N 
ATOM     25  H   UNL     1       2.353   6.158  21.699  0.00  0.00    +0.000 HD
BRANCH  24  26
ATOM     26  C   UNL     1       1.613   4.525  20.777  0.00  0.00    +0.000 C 
BRANCH  26  27
ATOM     27  C   UNL     1       2.167   3.429  19.890  0.00  0.00    +0.000 A 
ATOM     28  C   UNL     1       1.654   3.077  18.638  0.00  0.00    +0.000 A 
ATOM     29  C   UNL     1       2.305   2.137  17.830  0.00  0.00    +0.000 A 
ATOM     30  C   UNL     1       3.472   1.518  18.267  0.00  0.00    +0.000 A 
ATOM     31  C   UNL     1       3.979   1.819  19.527  0.00  0.00    +0.000 A 
ATOM     32  C   UNL     1       3.332   2.763  20.327  0.00  0.00    +0.000 A 
ENDBRANCH  26  27
ENDBRANCH  24  26
ENDBRANCH   5  24
TORSDOF 8
ENDMDL
MODEL 2
REMARK VINA RESULT:      -8.3      0.102      1.205
REMARK  Name = 
REMARK  11 active torsions:
REMARK  status: ('A' for Active; 'I' for Inactive)
REMARK    1  A    between atoms: C_1  and  C_2
REMARK    2  A    between atoms: C_2  and  C_3
REMARK    3  A    between atoms: C_2  and  C_4
REMARK    4  A    between atoms: C_2  and  N_5
REMARK    5  A    between atoms: N_5  and  S_6
REMARK    6  A    between atoms: S_6  and  C_9
REMARK    7  A    between atoms: C_12  and  N_13
REMARK    8  A    between atoms: N_13  and  C_14
REMARK    9  A    between atoms: C_20  and  N_21
REMARK   10  A    between atoms: N_21  and  C_22
REMARK   11  A    between atoms: C_22  and  C_23
REMARK                            x       y       z     vdW  Elec       q    Type
REMARK                         _______ _______ _______ _____ _____    ______ ____
ROOT
ATOM      1  C   UNL     1       1.262   9.206  19.695  0.00  0.00    +0.000 A 
ATOM      2  C   UNL     1       1.533   9.221  18.339  0.00  0.00    +0.000 A 
ATOM      3  C   UNL     1       2.247   8.156  17.775  0.00  0.00    +0.000 A 
ATOM      4  C   UNL     1       2.639   7.029  18.526  0.00  0.00    +0.000 A 
ATOM      5  C   UNL     1       2.193   6.945  19.872  0.00  0.00    +0.000 A 
ATOM      6  C   UNL     1       1.632   8.106  20.452  0.00  0.00    +0.000 A 
ENDROOT
BRANCH   1   7
ATOM      7  S   UNL     1       0.206  10.428  20.427  0.00  0.00    +0.000 S 
ATOM      8  O   UNL     1       0.968  11.646  20.584  0.00  0.00    +0.000 OA
ATOM      9  O   UNL     1      -0.408   9.778  21.564  0.00  0.00    +0.000 OA
BRANCH   7  10
ATOM     10  N   UNL     1      -1.009  10.664  19.309  0.00  0.00    +0.000 NA
ATOM     11  H   UNL     1      -0.874  10.080  18.482  0.00  0.00    +0.000 HD
BRANCH  10  13
ATOM     12  C   UNL     1      -2.094  12.569  20.461  0.00  0.00    +0.000 C 
ATOM     13  C   UNL     1      -1.796  11.897  19.123  0.00  0.00    +0.000 C 
ATOM     14  C   UNL     1      -3.082  11.620  18.331  0.00  0.00    +0.000 C 
ATOM     15  C   UNL     1      -0.926  12.843  18.270  0.00  0.00    +0.000 C 
ENDBRANCH  10  13
ENDBRANCH   7  10
ENDBRANCH   1   7
BRANCH   4  16
ATOM     16  N   UNL     1       3.509   6.097  17.980  0.00  0.00    +0.000 N 
ATOM     17  H   UNL     1       3.091   5.548  17.239  0.00  0.00    +0.000 HD
BRANCH  16  18
ATOM     18  C   UNL     1       4.974   5.984  18.113  0.00  0.00    +0.000 C 
ATOM     19  C   UNL     1       5.570   4.594  17.804  0.00  0.00    +0.000 C 
ATOM     20  C   UNL     1       5.201   4.097  16.412  0.00  0.00    +0.000 C 
ATOM     21  C   UNL     1       5.584   5.098  15.324  0.00  0.00    +0.000 C 
ATOM     22  C   UNL     1       5.206   6.544  15.655  0.00  0.00    +0.000 C 
ATOM     23  C   UNL     1       5.602   6.945  17.082  0.00  0.00    +0.000 C 
ENDBRANCH  16  18
ENDBRANCH   4  16
BRANCH   5  24
ATOM     24  N   UNL     1       2.236   5.879  20.761  0.00  0.00    +0.000 N 
ATOM     25  H   UNL     1       2.211   6.219  21.721  0.00  0.00    +0.000 HD
BRANCH  24  26
ATOM     26  C   UNL     1       1.717   4.525  20.746  0.00  0.00    +0.000 C 
BRANCH  26  27
ATOM     27  C   UNL     1       2.423   3.486  19.898  0.00  0.00    +0.000 A 
ATOM     28  C   UNL     1       3.559   2.771  20.290  0.00  0.00    +0.000 A 
ATOM     29  C   UNL     1       4.072   1.739  19.495  0.00  0.00    +0.000 A 
ATOM     30  C   UNL     1       3.469   1.417  18.283  0.00  0.00    +0.000 A 
ATOM     31  C   UNL     1       2.364   2.142  17.851  0.00  0.00    +0.000 A 
ATOM     32  C   UNL     1       1.849   3.165  18.650  0.00  0.00    +0.000 A 
ENDBRANCH  26  27
ENDBRANCH  24  26
ENDBRANCH   5  24
TORSDOF 8
ENDMDL
MODEL 3
REMARK VINA RESULT:      -8.2      0.556      1.398
REMARK  Name = 
REMARK  11 active torsions:
REMARK  status: ('A' for Active; 'I' for Inactive)
REMARK    1  A    between atoms: C_1  and  C_2
REMARK    2  A    between atoms: C_2  and  C_3
REMARK    3  A    between atoms: C_2  and  C_4
REMARK    4  A    between atoms: C_2  and  N_5
REMARK    5  A    between atoms: N_5  and  S_6
REMARK    6  A    between atoms: S_6  and  C_9
REMARK    7  A    between atoms: C_12  and  N_13
REMARK    8  A    between atoms: N_13  and  C_14
REMARK    9  A    between atoms: C_20  and  N_21
REMARK   10  A    between atoms: N_21  and  C_22
REMARK   11  A    between atoms: C_22  and  C_23
REMARK                            x       y       z     vdW  Elec       q    Type
REMARK                         _______ _______ _______ _____ _____    ______ ____
ROOT
ATOM      1  C   UNL     1       1.248   9.348  19.594  0.00  0.00    +0.000 A 
ATOM      2  C   UNL     1       1.564   9.444  18.252  0.00  0.00    +0.000 A 
ATOM      3  C   UNL     1       2.359   8.451  17.665  0.00  0.00    +0.000 A 
ATOM      4  C   UNL     1       2.791   7.313  18.377  0.00  0.00    +0.000 A 
ATOM      5  C   UNL     1       2.306   7.139  19.700  0.00  0.00    +0.000 A 
ATOM      6  C   UNL     1       1.657   8.236  20.313  0.00  0.00    +0.000 A 
ENDROOT
BRANCH   1   7
ATOM      7  S   UNL     1       0.098  10.470  20.343  0.00  0.00    +0.000 S 
ATOM      8  O   UNL     1       0.757  11.746  20.511  0.00  0.00    +0.000 OA
ATOM      9  O   UNL     1      -0.455   9.759  21.475  0.00  0.00    +0.000 OA
BRANCH   7  10
ATOM     10  N   UNL     1      -1.137  10.616  19.231  0.00  0.00    +0.000 NA
ATOM     11  H   UNL     1      -1.097   9.876  18.529  0.00  0.00    +0.000 HD
BRANCH  10  13
ATOM     12  C   UNL     1      -0.838  12.813  18.129  0.00  0.00    +0.000 C 
ATOM     13  C   UNL     1      -1.808  11.867  18.832  0.00  0.00    +0.000 C 
ATOM     14  C   UNL     1      -2.485  12.542  20.033  0.00  0.00    +0.000 C 
ATOM     15  C   UNL     1      -2.921  11.465  17.843  0.00  0.00    +0.000 C 
ENDBRANCH  10  13
ENDBRANCH   7  10
ENDBRANCH   1   7
BRANCH   4  16
ATOM     16  N   UNL     1       3.733   6.460  17.821  0.00  0.00    +0.000 N 
ATOM     17  H   UNL     1       3.477   5.483  17.893  0.00  0.00    +0.000 HD
BRANCH  16  18
ATOM     18  C   UNL     1       4.864   6.761  16.923  0.00  0.00    +0.000 C 
ATOM     19  C   UNL     1       6.236   6.938  17.608  0.00  0.00    +0.000 C 
ATOM     20  C   UNL     1       6.630   5.727  18.445  0.00  0.00    +0.000 C 
ATOM     21  C   UNL     1       6.600   4.433  17.634  0.00  0.00    +0.000 C 
ATOM     22  C   UNL     1       5.352   4.283  16.761  0.00  0.00    +0.000 C 
ATOM     23  C   UNL     1       5.027   5.556  15.972  0.00  0.00    +0.000 C 
ENDBRANCH  16  18
ENDBRANCH   4  16
BRANCH   5  24
ATOM     24  N   UNL     1       2.382   6.035  20.540  0.00  0.00    +0.000 N 
ATOM     25  H   UNL     1       2.576   6.331  21.496  0.00  0.00    +0.000 HD
BRANCH  24  26
ATOM     26  C   UNL     1       1.709   4.752  20.591  0.00  0.00    +0.000 C 
BRANCH  26  27
ATOM     27  C   UNL     1       2.242   3.618  19.739  0.00  0.00    +0.000 A 
ATOM     28  C   UNL     1       1.716   3.231  18.503  0.00  0.00    +0.000 A 
ATOM     29  C   UNL     1       2.349   2.256  17.723  0.00  0.00    +0.000 A 
ATOM     30  C   UNL     1       3.510   1.635  18.175  0.00  0.00    +0.000 A 
ATOM     31  C   UNL     1       4.029   1.971  19.420  0.00  0.00    +0.000 A 
ATOM     32  C   UNL     1       3.401   2.952  20.192  0.00  0.00    +0.000 A 
ENDBRANCH  26  27
ENDBRANCH  24  26
ENDBRANCH   5  24
TORSDOF 8
ENDMDL
MODEL 4
REMARK VINA RESULT:      -8.2      0.635      1.789
REMARK  Name = 
REMARK  11 active torsions:
REMARK  status: ('A' for Active; 'I' for Inactive)
REMARK    1  A    between atoms: C_1  and  C_2
REMARK    2  A    between atoms: C_2  and  C_3
REMARK    3  A    between atoms: C_2  and  C_4
REMARK    4  A    between atoms: C_2  and  N_5
REMARK    5  A    between atoms: N_5  and  S_6
REMARK    6  A    between atoms: S_6  and  C_9
REMARK    7  A    between atoms: C_12  and  N_13
REMARK    8  A    between atoms: N_13  and  C_14
REMARK    9  A    between atoms: C_20  and  N_21
REMARK   10  A    between atoms: N_21  and  C_22
REMARK   11  A    between atoms: C_22  and  C_23
REMARK                            x       y       z     vdW  Elec       q    Type
REMARK                         _______ _______ _______ _____ _____    ______ ____
ROOT
ATOM      1  C   UNL     1       1.267   9.227  19.633  0.00  0.00    +0.000 A 
ATOM      2  C   UNL     1       1.716   9.281  18.327  0.00  0.00    +0.000 A 
ATOM      3  C   UNL     1       2.551   8.262  17.850  0.00  0.00    +0.000 A 
ATOM      4  C   UNL     1       2.893   7.139  18.632  0.00  0.00    +0.000 A 
ATOM      5  C   UNL     1       2.276   7.009  19.905  0.00  0.00    +0.000 A 
ATOM      6  C   UNL     1       1.586   8.131  20.420  0.00  0.00    +0.000 A 
ENDROOT
BRANCH   1   7
ATOM      7  S   UNL     1       0.065  10.384  20.233  0.00  0.00    +0.000 S 
ATOM      8  O   UNL     1       0.734  11.641  20.481  0.00  0.00    +0.000 OA
ATOM      9  O   UNL     1      -0.645   9.693  21.287  0.00  0.00    +0.000 OA
BRANCH   7  10
ATOM     10  N   UNL     1      -1.017  10.561  18.976  0.00  0.00    +0.000 NA
ATOM     11  H   UNL     1      -0.819   9.904  18.218  0.00  0.00    +0.000 HD
BRANCH  10  13
ATOM     12  C   UNL     1      -0.766  12.864  18.104  0.00  0.00    +0.000 C 
ATOM     13  C   UNL     1      -1.733  11.796  18.608  0.00  0.00    +0.000 C 
ATOM     14  C   UNL     1      -2.587  12.311  19.774  0.00  0.00    +0.000 C 
ATOM     15  C   UNL     1      -2.697  11.414  17.466  0.00  0.00    +0.000 C 
ENDBRANCH  10  13
ENDBRANCH   7  10
ENDBRANCH   1   7
BRANCH   4  16
ATOM     16  N   UNL     1       3.873   6.260  18.197  0.00  0.00    +0.000 N 
ATOM     17  H   UNL     1       4.007   5.473  18.820  0.00  0.00    +0.000 HD
BRANCH  16  18
ATOM     18  C   UNL     1       4.521   6.148  16.876  0.00  0.00    +0.000 C 
ATOM     19  C   UNL     1       5.808   6.978  16.688  0.00  0.00    +0.000 C 
ATOM     20  C   UNL     1       6.865   6.661  17.740  0.00  0.00    +0.000 C 
ATOM     21  C   UNL     1       7.192   5.171  17.796  0.00  0.00    +0.000 C 
ATOM     22  C   UNL     1       5.957   4.268  17.776  0.00  0.00    +0.000 C 
ATOM     23  C   UNL     1       4.945   4.675  16.698  0.00  0.00    +0.000 C 
ENDBRANCH  16  18
ENDBRANCH   4  16
BRANCH   5  24
ATOM     24  N   UNL     1       2.252   5.929  20.778  0.00  0.00    +0.000 N 
ATOM     25  H   UNL     1       2.185   6.255  21.741  0.00  0.00    +0.000 HD
BRANCH  24  26
ATOM     26  C   UNL     1       1.707   4.587  20.715  0.00  0.00    +0.000 C 
BRANCH  26  27
ATOM     27  C   UNL     1       2.397   3.564  19.835  0.00  0.00    +0.000 A 
ATOM     28  C   UNL     1       3.492   2.786  20.221  0.00  0.00    +0.000 A 
ATOM     29  C   UNL     1       3.988   1.775  19.388  0.00  0.00    +0.000 A 
ATOM     30  C   UNL     1       3.407   1.536  18.146  0.00  0.00    +0.000 A 
ATOM     31  C   UNL     1       2.344   2.325  17.722  0.00  0.00    +0.000 A 
ATOM     32  C   UNL     1       1.846   3.327  18.558  0.00  0.00    +0.000 A 
ENDBRANCH  26  27
ENDBRANCH  24  26
ENDBRANCH   5  24
TORSDOF 8
ENDMDL
MODEL 5
REMARK VINA RESULT:      -8.2      0.672      1.318
REMARK  Name = 
REMARK  11 active torsions:
REMARK  status: ('A' for Active; 'I' for Inactive)
REMARK    1  A    between atoms: C_1  and  C_2
REMARK    2  A    between atoms: C_2  and  C_3
REMARK    3  A    between atoms: C_2  and  C_4
REMARK    4  A    between atoms: C_2  and  N_5
REMARK    5  A    between atoms: N_5  and  S_6
REMARK    6  A    between atoms: S_6  and  C_9
REMARK    7  A    between atoms: C_12  and  N_13
REMARK    8  A    between atoms: N_13  and  C_14
REMARK    9  A    between atoms: C_20  and  N_21
REMARK   10  A    between atoms: N_21  and  C_22
REMARK   11  A    between atoms: C_22  and  C_23
REMARK                            x       y       z     vdW  Elec       q    Type
REMARK                         _______ _______ _______ _____ _____    ______ ____
ROOT
ATOM      1  C   UNL     1       1.305   9.163  19.594  0.00  0.00    +0.000 A 
ATOM      2  C   UNL     1       1.761   9.172  18.289  0.00  0.00    +0.000 A 
ATOM      3  C   UNL     1       2.566   8.117  17.840  0.00  0.00    +0.000 A 
ATOM      4  C   UNL     1       2.871   7.004  18.650  0.00  0.00    +0.000 A 
ATOM      5  C   UNL     1       2.244   6.923  19.922  0.00  0.00    +0.000 A 
ATOM      6  C   UNL     1       1.587   8.077  20.407  0.00  0.00    +0.000 A 
ENDROOT
BRANCH   1   7
ATOM      7  S   UNL     1       0.137  10.370  20.160  0.00  0.00    +0.000 S 
ATOM      8  O   UNL     1       0.818  11.639  20.272  0.00  0.00    +0.000 OA
ATOM      9  O   UNL     1      -0.519   9.769  21.301  0.00  0.00    +0.000 OA
BRANCH   7  10
ATOM     10  N   UNL     1      -1.009  10.451  18.950  0.00  0.00    +0.000 NA
ATOM     11  H   UNL     1      -0.885   9.701  18.268  0.00  0.00    +0.000 HD
BRANCH  10  13
ATOM     12  C   UNL     1      -2.573  11.370  17.265  0.00  0.00    +0.000 C 
ATOM     13  C   UNL     1      -1.691  11.668  18.474  0.00  0.00    +0.000 C 
ATOM     14  C   UNL     1      -0.684  12.788  18.176  0.00  0.00    +0.000 C 
ATOM     15  C   UNL     1      -2.582  12.150  19.638  0.00  0.00    +0.000 C 
ENDBRANCH  10  13
ENDBRANCH   7  10
ENDBRANCH   1   7
BRANCH   4  16
ATOM     16  N   UNL     1       3.825   6.084  18.240  0.00  0.00    +0.000 N 
ATOM     17  H   UNL     1       4.008   5.366  18.930  0.00  0.00    +0.000 HD
BRANCH  16  18
ATOM     18  C   UNL     1       4.381   5.838  16.896  0.00  0.00    +0.000 C 
ATOM     19  C   UNL     1       5.434   6.854  16.409  0.00  0.00    +0.000 C 
ATOM     20  C   UNL     1       6.610   6.983  17.370  0.00  0.00    +0.000 C 
ATOM     21  C   UNL     1       7.263   5.634  17.661  0.00  0.00    +0.000 C 
ATOM     22  C   UNL     1       6.262   4.514  17.953  0.00  0.00    +0.000 C 
ATOM     23  C   UNL     1       5.107   4.477  16.945  0.00  0.00    +0.000 C 
ENDBRANCH  16  18
ENDBRANCH   4  16
BRANCH   5  24
ATOM     24  N   UNL     1       2.184   5.865  20.821  0.00  0.00    +0.000 N 
ATOM     25  H   UNL     1       2.164   6.214  21.777  0.00  0.00    +0.000 HD
BRANCH  24  26
ATOM     26  C   UNL     1       1.561   4.555  20.804  0.00  0.00    +0.000 C 
BRANCH  26  27
ATOM     27  C   UNL     1       2.126   3.494  19.883  0.00  0.00    +0.000 A 
ATOM     28  C   UNL     1       1.592   3.148  18.638  0.00  0.00    +0.000 A 
ATOM     29  C   UNL     1       2.252   2.244  17.796  0.00  0.00    +0.000 A 
ATOM     30  C   UNL     1       3.449   1.656  18.192  0.00  0.00    +0.000 A 
ATOM     31  C   UNL     1       3.979   1.951  19.444  0.00  0.00    +0.000 A 
ATOM     32  C   UNL     1       3.323   2.859  20.278  0.00  0.00    +0.000 A 
ENDBRANCH  26  27
ENDBRANCH  24  26
ENDBRANCH   5  24
TORSDOF 8
ENDMDL
MODEL 6
REMARK VINA RESULT:      -8.2      0.977      1.789
REMARK  Name = 
REMARK  11 active torsions:
REMARK  status: ('A' for Active; 'I' for Inactive)
REMARK    1  A    between atoms: C_1  and  C_2
REMARK    2  A    between atoms: C_2  and  C_3
REMARK    3  A    between atoms: C_2  and  C_4
REMARK    4  A    between atoms: C_2  and  N_5
REMARK    5  A    between atoms: N_5  and  S_6
REMARK    6  A    between atoms: S_6  and  C_9
REMARK    7  A    between atoms: C_12  and  N_13
REMARK    8  A    between atoms: N_13  and  C_14
REMARK    9  A    between atoms: C_20  and  N_21
REMARK   10  A    between atoms: N_21  and  C_22
REMARK   11  A    between atoms: C_22  and  C_23
REMARK                            x       y       z     vdW  Elec       q    Type
REMARK                         _______ _______ _______ _____ _____    ______ ____
ROOT
ATOM      1  C   UNL     1       1.234   9.273  19.096  0.00  0.00    +0.000 A 
ATOM      2  C   UNL     1       1.834   9.215  17.853  0.00  0.00    +0.000 A 
ATOM      3  C   UNL     1       2.723   8.170  17.573  0.00  0.00    +0.000 A 
ATOM      4  C   UNL     1       2.975   7.128  18.490  0.00  0.00    +0.000 A 
ATOM      5  C   UNL     1       2.212   7.105  19.687  0.00  0.00    +0.000 A 
ATOM      6  C   UNL     1       1.461   8.258  20.012  0.00  0.00    +0.000 A 
ENDROOT
BRANCH   1   7
ATOM      7  S   UNL     1      -0.036  10.462  19.442  0.00  0.00    +0.000 S 
ATOM      8  O   UNL     1       0.448  11.765  19.048  0.00  0.00    +0.000 OA
ATOM      9  O   UNL     1      -0.454  10.197  20.801  0.00  0.00    +0.000 OA
BRANCH   7  10
ATOM     10  N   UNL     1      -1.312  10.015  18.464  0.00  0.00    +0.000 NA
ATOM     11  H   UNL     1      -1.025   9.323  17.769  0.00  0.00    +0.000 HD
BRANCH  10  13
ATOM     12  C   UNL     1      -2.718  11.926  19.174  0.00  0.00    +0.000 C 
ATOM     13  C   UNL     1      -2.482  10.845  18.122  0.00  0.00    +0.000 C 
ATOM     14  C   UNL     1      -3.732   9.981  17.909  0.00  0.00    +0.000 C 
ATOM     15  C   UNL     1      -2.156  11.521  16.774  0.00  0.00    +0.000 C 
ENDBRANCH  10  13
ENDBRANCH   7  10
ENDBRANCH   1   7
BRANCH   4  16
ATOM     16  N   UNL     1       4.003   6.227  18.255  0.00  0.00    +0.000 N 
ATOM     17  H   UNL     1       4.219   5.651  19.060  0.00  0.00    +0.000 HD
BRANCH  16  18
ATOM     18  C   UNL     1       4.610   5.800  16.980  0.00  0.00    +0.000 C 
ATOM     19  C   UNL     1       5.680   6.746  16.397  0.00  0.00    +0.000 C 
ATOM     20  C   UNL     1       6.819   7.014  17.374  0.00  0.00    +0.000 C 
ATOM     21  C   UNL     1       7.462   5.723  17.875  0.00  0.00    +0.000 C 
ATOM     22  C   UNL     1       6.451   4.648  18.281  0.00  0.00    +0.000 C 
ATOM     23  C   UNL     1       5.336   4.464  17.245  0.00  0.00    +0.000 C 
ENDBRANCH  16  18
ENDBRANCH   4  16
BRANCH   5  24
ATOM     24  N   UNL     1       2.089   6.107  20.647  0.00  0.00    +0.000 N 
ATOM     25  H   UNL     1       2.018   6.519  21.576  0.00  0.00    +0.000 HD
BRANCH  24  26
ATOM     26  C   UNL     1       1.454   4.804  20.679  0.00  0.00    +0.000 C 
BRANCH  26  27
ATOM     27  C   UNL     1       2.036   3.692  19.829  0.00  0.00    +0.000 A 
ATOM     28  C   UNL     1       1.588   3.344  18.552  0.00  0.00    +0.000 A 
ATOM     29  C   UNL     1       2.265   2.387  17.786  0.00  0.00    +0.000 A 
ATOM     30  C   UNL     1       3.392   1.748  18.292  0.00  0.00    +0.000 A 
ATOM     31  C   UNL     1       3.833   2.046  19.577  0.00  0.00    +0.000 A 
ATOM     32  C   UNL     1       3.161   3.007  20.335  0.00  0.00    +0.000 A 
ENDBRANCH  26  27
ENDBRANCH  24  26
ENDBRANCH   5  24
TORSDOF 8
ENDMDL
MODEL 7
REMARK VINA RESULT:      -8.1      1.101      1.938
REMARK  Name = 
REMARK  11 active torsions:
REMARK  status: ('A' for Active; 'I' for Inactive)
REMARK    1  A    between atoms: C_1  and  C_2
REMARK    2  A    between atoms: C_2  and  C_3
REMARK    3  A    between atoms: C_2  and  C_4
REMARK    4  A    between atoms: C_2  and  N_5
REMARK    5  A    between atoms: N_5  and  S_6
REMARK    6  A    between atoms: S_6  and  C_9
REMARK    7  A    between atoms: C_12  and  N_13
REMARK    8  A    between atoms: N_13  and  C_14
REMARK    9  A    between atoms: C_20  and  N_21
REMARK   10  A    between atoms: N_21  and  C_22
REMARK   11  A    between atoms: C_22  and  C_23
REMARK                            x       y       z     vdW  Elec       q    Type
REMARK                         _______ _______ _______ _____ _____    ______ ____
ROOT
ATOM      1  C   UNL     1       1.297   9.245  18.947  0.00  0.00    +0.000 A 
ATOM      2  C   UNL     1       1.933   9.140  17.724  0.00  0.00    +0.000 A 
ATOM      3  C   UNL     1       2.828   8.084  17.510  0.00  0.00    +0.000 A 
ATOM      4  C   UNL     1       3.052   7.078  18.473  0.00  0.00    +0.000 A 
ATOM      5  C   UNL     1       2.255   7.101  19.648  0.00  0.00    +0.000 A 
ATOM      6  C   UNL     1       1.497   8.266  19.907  0.00  0.00    +0.000 A 
ENDROOT
BRANCH   1   7
ATOM      7  S   UNL     1       0.020  10.447  19.211  0.00  0.00    +0.000 S 
ATOM      8  O   UNL     1       0.648  11.718  19.488  0.00  0.00    +0.000 OA
ATOM      9  O   UNL     1      -0.893   9.840  20.154  0.00  0.00    +0.000 OA
BRANCH   7  10
ATOM     10  N   UNL     1      -0.793  10.526  17.756  0.00  0.00    +0.000 NA
ATOM     11  H   UNL     1      -0.180  10.840  17.002  0.00  0.00    +0.000 HD
BRANCH  10  13
ATOM     12  C   UNL     1      -3.050   9.518  17.896  0.00  0.00    +0.000 C 
ATOM     13  C   UNL     1      -2.236  10.768  17.575  0.00  0.00    +0.000 C 
ATOM     14  C   UNL     1      -2.538  11.293  16.164  0.00  0.00    +0.000 C 
ATOM     15  C   UNL     1      -2.617  11.884  18.570  0.00  0.00    +0.000 C 
ENDBRANCH  10  13
ENDBRANCH   7  10
ENDBRANCH   1   7
BRANCH   4  16
ATOM     16  N   UNL     1       4.086   6.168  18.302  0.00  0.00    +0.000 N 
ATOM     17  H   UNL     1       4.284   5.630  19.137  0.00  0.00    +0.000 HD
BRANCH  16  18
ATOM     18  C   UNL     1       4.721   5.684  17.062  0.00  0.00    +0.000 C 
ATOM     19  C   UNL     1       5.760   6.632  16.426  0.00  0.00    +0.000 C 
ATOM     20  C   UNL     1       6.877   7.006  17.393  0.00  0.00    +0.000 C 
ATOM     21  C   UNL     1       7.564   5.775  17.980  0.00  0.00    +0.000 C 
ATOM     22  C   UNL     1       6.592   4.690  18.447  0.00  0.00    +0.000 C 
ATOM     23  C   UNL     1       5.494   4.397  17.417  0.00  0.00    +0.000 C 
ENDBRANCH  16  18
ENDBRANCH   4  16
BRANCH   5  24
ATOM     24  N   UNL     1       2.103   6.141  20.641  0.00  0.00    +0.000 N 
ATOM     25  H   UNL     1       1.871   6.585  21.529  0.00  0.00    +0.000 HD
BRANCH  24  26
ATOM     26  C   UNL     1       1.599   4.782  20.669  0.00  0.00    +0.000 C 
BRANCH  26  27
ATOM     27  C   UNL     1       2.310   3.726  19.847  0.00  0.00    +0.000 A 
ATOM     28  C   UNL     1       3.414   2.986  20.280  0.00  0.00    +0.000 A 
ATOM     29  C   UNL     1       3.931   1.941  19.504  0.00  0.00    +0.000 A 
ATOM     30  C   UNL     1       3.364   1.631  18.272  0.00  0.00    +0.000 A 
ATOM     31  C   UNL     1       2.292   2.380  17.800  0.00  0.00    +0.000 A 
ATOM     32  C   UNL     1       1.773   3.416  18.580  0.00  0.00    +0.000 A 
ENDBRANCH  26  27
ENDBRANCH  24  26
ENDBRANCH   5  24
TORSDOF 8
ENDMDL
MODEL 8
REMARK VINA RESULT:      -8.1      0.949      1.687
REMARK  Name = 
REMARK  11 active torsions:
REMARK  status: ('A' for Active; 'I' for Inactive)
REMARK    1  A    between atoms: C_1  and  C_2
REMARK    2  A    between atoms: C_2  and  C_3
REMARK    3  A    between atoms: C_2  and  C_4
REMARK    4  A    between atoms: C_2  and  N_5
REMARK    5  A    between atoms: N_5  and  S_6
REMARK    6  A    between atoms: S_6  and  C_9
REMARK    7  A    between atoms: C_12  and  N_13
REMARK    8  A    between atoms: N_13  and  C_14
REMARK    9  A    between atoms: C_20  and  N_21
REMARK   10  A    between atoms: N_21  and  C_22
REMARK   11  A    between atoms: C_22  and  C_23
REMARK                            x       y       z     vdW  Elec       q    Type
REMARK                         _______ _______ _______ _____ _____    ______ ____
ROOT
ATOM      1  C   UNL     1       1.439   9.326  19.615  0.00  0.00    +0.000 A 
ATOM      2  C   UNL     1       1.778   9.321  18.275  0.00  0.00    +0.000 A 
ATOM      3  C   UNL     1       2.437   8.206  17.742  0.00  0.00    +0.000 A 
ATOM      4  C   UNL     1       2.705   7.052  18.507  0.00  0.00    +0.000 A 
ATOM      5  C   UNL     1       2.188   7.002  19.829  0.00  0.00    +0.000 A 
ATOM      6  C   UNL     1       1.687   8.201  20.385  0.00  0.00    +0.000 A 
ENDROOT
BRANCH   1   7
ATOM      7  S   UNL     1       0.444  10.624  20.299  0.00  0.00    +0.000 S 
ATOM      8  O   UNL     1       0.728  10.712  21.713  0.00  0.00    +0.000 OA
ATOM      9  O   UNL     1      -0.898  10.377  19.818  0.00  0.00    +0.000 OA
BRANCH   7  10
ATOM     10  N   UNL     1       0.969  12.010  19.533  0.00  0.00    +0.000 NA
ATOM     11  H   UNL     1       1.989  12.066  19.520  0.00  0.00    +0.000 HD
BRANCH  10  13
ATOM     12  C   UNL     1       1.198  14.463  19.291  0.00  0.00    +0.000 C 
ATOM     13  C   UNL     1       0.238  13.286  19.441  0.00  0.00    +0.000 C 
ATOM     14  C   UNL     1      -0.704  13.474  20.639  0.00  0.00    +0.000 C 
ATOM     15  C   UNL     1      -0.641  13.193  18.177  0.00  0.00    +0.000 C 
ENDBRANCH  10  13
ENDBRANCH   7  10
ENDBRANCH   1   7
BRANCH   4  16
ATOM     16  N   UNL     1       3.529   6.057  18.002  0.00  0.00    +0.000 N 
ATOM     17  H   UNL     1       3.075   5.479  17.305  0.00  0.00    +0.000 HD
BRANCH  16  18
ATOM     18  C   UNL     1       4.992   5.899  18.110  0.00  0.00    +0.000 C 
ATOM     19  C   UNL     1       5.548   4.515  17.715  0.00  0.00    +0.000 C 
ATOM     20  C   UNL     1       5.151   4.108  16.301  0.00  0.00    +0.000 C 
ATOM     21  C   UNL     1       5.549   5.160  15.267  0.00  0.00    +0.000 C 
ATOM     22  C   UNL     1       5.213   6.593  15.686  0.00  0.00    +0.000 C 
ATOM     23  C   UNL     1       5.634   6.901  17.128  0.00  0.00    +0.000 C 
ENDBRANCH  16  18
ENDBRANCH   4  16
BRANCH   5  24
ATOM     24  N   UNL     1       2.107   5.935  20.715  0.00  0.00    +0.000 N 
ATOM     25  H   UNL     1       1.984   6.275  21.668  0.00  0.00    +0.000 HD
BRANCH  24  26
ATOM     26  C   UNL     1       1.560   4.594  20.639  0.00  0.00    +0.000 C 
BRANCH  26  27
ATOM     27  C   UNL     1       2.303   3.552  19.828  0.00  0.00    +0.000 A 
ATOM     28  C   UNL     1       3.448   2.873  20.255  0.00  0.00    +0.000 A 
ATOM     29  C   UNL     1       3.997   1.834  19.493  0.00  0.00    +0.000 A 
ATOM     30  C   UNL     1       3.421   1.469  18.280  0.00  0.00    +0.000 A 
ATOM     31  C   UNL     1       2.308   2.158  17.813  0.00  0.00    +0.000 A 
ATOM     32  C   UNL     1       1.757   3.187  18.579  0.00  0.00    +0.000 A 
ENDBRANCH  26  27
ENDBRANCH  24  26
ENDBRANCH   5  24
TORSDOF 8
ENDMDL
MODEL 9
REMARK VINA RESULT:      -8.0      1.263      1.576
REMARK  Name = 
REMARK  11 active torsions:
REMARK  status: ('A' for Active; 'I' for Inactive)
REMARK    1  A    between atoms: C_1  and  C_2
REMARK    2  A    between atoms: C_2  and  C_3
REMARK    3  A    between atoms: C_2  and  C_4
REMARK    4  A    between atoms: C_2  and  N_5
REMARK    5  A    between atoms: N_5  and  S_6
REMARK    6  A    between atoms: S_6  and  C_9
REMARK    7  A    between atoms: C_12  and  N_13
REMARK    8  A    between atoms: N_13  and  C_14
REMARK    9  A    between atoms: C_20  and  N_21
REMARK   10  A    between atoms: N_21  and  C_22
REMARK   11  A    between atoms: C_22  and  C_23
REMARK                            x       y       z     vdW  Elec       q    Type
REMARK                         _______ _______ _______ _____ _____    ______ ____
ROOT
ATOM      1  C   UNL     1       1.305   9.216  19.395  0.00  0.00    +0.000 A 
ATOM      2  C   UNL     1       1.607   9.147  18.048  0.00  0.00    +0.000 A 
ATOM      3  C   UNL     1       2.336   8.051  17.568  0.00  0.00    +0.000 A 
ATOM      4  C   UNL     1       2.712   6.974  18.397  0.00  0.00    +0.000 A 
ATOM      5  C   UNL     1       2.235   6.975  19.735  0.00  0.00    +0.000 A 
ATOM      6  C   UNL     1       1.660   8.168  20.229  0.00  0.00    +0.000 A 
ENDROOT
BRANCH   1   7
ATOM      7  S   UNL     1       0.232  10.480  20.026  0.00  0.00    +0.000 S 
ATOM      8  O   UNL     1      -0.387   9.983  21.233  0.00  0.00    +0.000 OA
ATOM      9  O   UNL     1      -0.565  10.909  18.897  0.00  0.00    +0.000 OA
BRANCH   7  10
ATOM     10  N   UNL     1       1.246  11.752  20.395  0.00  0.00    +0.000 NA
ATOM     11  H   UNL     1       1.890  11.509  21.150  0.00  0.00    +0.000 HD
BRANCH  10  13
ATOM     12  C   UNL     1      -0.424  13.537  20.786  0.00  0.00    +0.000 C 
ATOM     13  C   UNL     1       0.948  13.185  20.219  0.00  0.00    +0.000 C 
ATOM     14  C   UNL     1       1.075  13.601  18.747  0.00  0.00    +0.000 C 
ATOM     15  C   UNL     1       2.028  13.953  21.008  0.00  0.00    +0.000 C 
ENDBRANCH  10  13
ENDBRANCH   7  10
ENDBRANCH   1   7
BRANCH   4  16
ATOM     16  N   UNL     1       3.596   6.012  17.931  0.00  0.00    +0.000 N 
ATOM     17  H   UNL     1       3.175   5.373  17.268  0.00  0.00    +0.000 HD
BRANCH  16  18
ATOM     18  C   UNL     1       5.066   5.956  18.031  0.00  0.00    +0.000 C 
ATOM     19  C   UNL     1       5.707   4.585  17.729  0.00  0.00    +0.000 C 
ATOM     20  C   UNL     1       5.324   4.052  16.353  0.00  0.00    +0.000 C 
ATOM     21  C   UNL     1       5.645   5.050  15.242  0.00  0.00    +0.000 C 
ATOM     22  C   UNL     1       5.221   6.485  15.561  0.00  0.00    +0.000 C 
ATOM     23  C   UNL     1       5.634   6.923  16.971  0.00  0.00    +0.000 C 
ENDBRANCH  16  18
ENDBRANCH   4  16
BRANCH   5  24
ATOM     24  N   UNL     1       2.260   5.966  20.691  0.00  0.00    +0.000 N 
ATOM     25  H   UNL     1       2.306   6.367  21.626  0.00  0.00    +0.000 HD
BRANCH  24  26
ATOM     26  C   UNL     1       1.660   4.650  20.791  0.00  0.00    +0.000 C 
BRANCH  26  27
ATOM     27  C   UNL     1       2.184   3.543  19.899  0.00  0.00    +0.000 A 
ATOM     28  C   UNL     1       1.632   3.179  18.667  0.00  0.00    +0.000 A 
ATOM     29  C   UNL     1       2.256   2.230  17.849  0.00  0.00    +0.000 A 
ATOM     30  C   UNL     1       3.434   1.613  18.257  0.00  0.00    +0.000 A 
ATOM     31  C   UNL     1       3.980   1.925  19.497  0.00  0.00    +0.000 A 
ATOM     32  C   UNL     1       3.361   2.880  20.307  0.00  0.00    +0.000 A 
ENDBRANCH  26  27
ENDBRANCH  24  26
ENDBRANCH   5  24
TORSDOF 8
ENDMDL
