MODEL 1
REMARK VINA RESULT:      -6.9      0.000      0.000
REMARK  Name = 
REMARK  3 active torsions:
REMARK  status: ('A' for Active; 'I' for Inactive)
REMARK    1  A    between atoms: C_2  and  OXT_3
REMARK    2  A    between atoms: C_2  and  CA_4
REMARK    3  A    between atoms: C_7  and  C_8
REMARK                            x       y       z     vdW  Elec       q    Type
REMARK                         _______ _______ _______ _____ _____    ______ ____
ROOT
ATOM      1  CA  UNL     1       5.860   4.790  15.428  0.00  0.00    +0.000 A 
ATOM      2  C   UNL     1       5.379   5.987  15.926  0.00  0.00    +0.000 A 
ATOM      3  C   UNL     1       4.428   5.932  16.946  0.00  0.00    +0.000 A 
ATOM      4  C   UNL     1       3.971   4.700  17.444  0.00  0.00    +0.000 A 
ATOM      5  C   UNL     1       4.539   3.559  16.861  0.00  0.00    +0.000 A 
ATOM      6  N   UNL     1       5.470   3.561  15.872  0.00  0.00    +0.000 NA
ENDROOT
BRANCH   4   7
ATOM      7  C   UNL     1       2.950   4.619  18.511  0.00  0.00    +0.000 A 
ATOM      8  C   UNL     1       2.856   5.607  19.509  0.00  0.00    +0.000 A 
ATOM      9  C   UNL     1       1.907   5.527  20.533  0.00  0.00    +0.000 A 
ATOM     10  C   UNL     1       1.018   4.459  20.576  0.00  0.00    +0.000 A 
ATOM     11  C   UNL     1       1.078   3.473  19.596  0.00  0.00    +0.000 A 
ATOM     12  C   UNL     1       2.035   3.550  18.579  0.00  0.00    +0.000 A 
ENDBRANCH   4   7
BRANCH   1  14
ATOM     13  O   UNL     1       7.767   5.591  14.195  0.00  0.00    +0.000 OA
ATOM     14  C   UNL     1       6.868   4.780  14.329  0.00  0.00    +0.000 C 
BRANCH  14  15
ATOM     15  OXT UNL     1       6.640   3.739  13.491  0.00  0.00    +0.000 OA
ATOM     16  HXT UNL     1       7.308   3.774  12.763  0.00  0.00    +0.000 HD
ENDBRANCH  14  15
ENDBRANCH   1  14
TORSDOF 3
ENDMDL
MODEL 2
REMARK VINA RESULT:      -6.9      0.019      1.241
REMARK  Name = 
REMARK  3 active torsions:
REMARK  status: ('A' for Active; 'I' for Inactive)
REMARK    1  A    between atoms: C_2  and  OXT_3
REMARK    2  A    between atoms: C_2  and  CA_4
REMARK    3  A    between atoms: C_7  and  C_8
REMARK                            x       y       z     vdW  Elec       q    Type
REMARK                         _______ _______ _______ _____ _____    ______ ____
ROOT
ATOM      1  CA  UNL     1       5.862   4.788  15.433  0.00  0.00    +0.000 A 
ATOM      2  C   UNL     1       5.372   5.985  15.924  0.00  0.00    +0.000 A 
ATOM      3  C   UNL     1       4.427   5.930  16.949  0.00  0.00    +0.000 A 
ATOM      4  C   UNL     1       3.984   4.697  17.460  0.00  0.00    +0.000 A 
ATOM      5  C   UNL     1       4.559   3.557  16.883  0.00  0.00    +0.000 A 
ATOM      6  N   UNL     1       5.486   3.559  15.890  0.00  0.00    +0.000 NA
ENDROOT
BRANCH   4   7
ATOM      7  C   UNL     1       2.969   4.615  18.533  0.00  0.00    +0.000 A 
ATOM      8  C   UNL     1       2.064   3.540  18.601  0.00  0.00    +0.000 A 
ATOM      9  C   UNL     1       1.089   3.465  19.600  0.00  0.00    +0.000 A 
ATOM     10  C   UNL     1       1.004   4.461  20.566  0.00  0.00    +0.000 A 
ATOM     11  C   UNL     1       1.894   5.530  20.533  0.00  0.00    +0.000 A 
ATOM     12  C   UNL     1       2.863   5.608  19.526  0.00  0.00    +0.000 A 
ENDBRANCH   4   7
BRANCH   1  14
ATOM     13  O   UNL     1       7.761   5.590  14.189  0.00  0.00    +0.000 OA
ATOM     14  C   UNL     1       6.864   4.779  14.329  0.00  0.00    +0.000 C 
BRANCH  14  15
ATOM     15  OXT UNL     1       6.633   3.736  13.493  0.00  0.00    +0.000 OA
ATOM     16  HXT UNL     1       7.376   3.690  12.842  0.00  0.00    +0.000 HD
ENDBRANCH  14  15
ENDBRANCH   1  14
TORSDOF 3
ENDMDL
MODEL 3
REMARK VINA RESULT:      -6.7      1.520      1.802
REMARK  Name = 
REMARK  3 active torsions:
REMARK  status: ('A' for Active; 'I' for Inactive)
REMARK    1  A    between atoms: C_2  and  OXT_3
REMARK    2  A    between atoms: C_2  and  CA_4
REMARK    3  A    between atoms: C_7  and  C_8
REMARK                            x       y       z     vdW  Elec       q    Type
REMARK                         _______ _______ _______ _____ _____    ______ ____
ROOT
ATOM      1  CA  UNL     1       5.870   4.394  16.267  0.00  0.00    +0.000 A 
ATOM      2  C   UNL     1       4.564   4.101  15.917  0.00  0.00    +0.000 A 
ATOM      3  C   UNL     1       3.659   3.833  16.944  0.00  0.00    +0.000 A 
ATOM      4  C   UNL     1       4.065   3.852  18.290  0.00  0.00    +0.000 A 
ATOM      5  C   UNL     1       5.412   4.166  18.515  0.00  0.00    +0.000 A 
ATOM      6  N   UNL     1       6.328   4.441  17.550  0.00  0.00    +0.000 NA
ENDROOT
BRANCH   4   7
ATOM      7  C   UNL     1       3.127   3.552  19.393  0.00  0.00    +0.000 A 
ATOM      8  C   UNL     1       1.798   4.016  19.369  0.00  0.00    +0.000 A 
ATOM      9  C   UNL     1       0.912   3.754  20.418  0.00  0.00    +0.000 A 
ATOM     10  C   UNL     1       1.331   3.007  21.514  0.00  0.00    +0.000 A 
ATOM     11  C   UNL     1       2.634   2.523  21.560  0.00  0.00    +0.000 A 
ATOM     12  C   UNL     1       3.523   2.796  20.514  0.00  0.00    +0.000 A 
ENDBRANCH   4   7
BRANCH   1  14
ATOM     13  O   UNL     1       7.708   5.577  15.257  0.00  0.00    +0.000 OA
ATOM     14  C   UNL     1       6.888   4.677  15.215  0.00  0.00    +0.000 C 
BRANCH  14  15
ATOM     15  OXT UNL     1       6.773   3.789  14.197  0.00  0.00    +0.000 OA
ATOM     16  HXT UNL     1       7.002   2.891  14.541  0.00  0.00    +0.000 HD
ENDBRANCH  14  15
ENDBRANCH   1  14
TORSDOF 3
ENDMDL
MODEL 4
REMARK VINA RESULT:      -6.7      3.950      5.903
REMARK  Name = 
REMARK  3 active torsions:
REMARK  status: ('A' for Active; 'I' for Inactive)
REMARK    1  A    between atoms: C_2  and  OXT_3
REMARK    2  A    between atoms: C_2  and  CA_4
REMARK    3  A    between atoms: C_7  and  C_8
REMARK                            x       y       z     vdW  Elec       q    Type
REMARK                         _______ _______ _______ _____ _____    ______ ____
ROOT
ATOM      1  CA  UNL     1       2.011   3.529  18.921  0.00  0.00    +0.000 A 
ATOM      2  C   UNL     1       1.970   4.616  18.067  0.00  0.00    +0.000 A 
ATOM      3  C   UNL     1       3.149   5.336  17.874  0.00  0.00    +0.000 A 
ATOM      4  C   UNL     1       4.336   4.973  18.533  0.00  0.00    +0.000 A 
ATOM      5  C   UNL     1       4.250   3.851  19.368  0.00  0.00    +0.000 A 
ATOM      6  N   UNL     1       3.129   3.114  19.583  0.00  0.00    +0.000 NA
ENDROOT
BRANCH   4   7
ATOM      7  C   UNL     1       5.592   5.734  18.358  0.00  0.00    +0.000 A 
ATOM      8  C   UNL     1       5.708   6.737  17.377  0.00  0.00    +0.000 A 
ATOM      9  C   UNL     1       6.898   7.447  17.192  0.00  0.00    +0.000 A 
ATOM     10  C   UNL     1       8.001   7.179  17.995  0.00  0.00    +0.000 A 
ATOM     11  C   UNL     1       7.913   6.203  18.982  0.00  0.00    +0.000 A 
ATOM     12  C   UNL     1       6.724   5.486  19.158  0.00  0.00    +0.000 A 
ENDBRANCH   4   7
BRANCH   1  14
ATOM     13  O   UNL     1       0.230   2.005  18.366  0.00  0.00    +0.000 OA
ATOM     14  C   UNL     1       0.782   2.725  19.180  0.00  0.00    +0.000 C 
BRANCH  14  15
ATOM     15  OXT UNL     1       0.358   2.911  20.454  0.00  0.00    +0.000 OA
ATOM     16  HXT UNL     1       0.840   3.687  20.832  0.00  0.00    +0.000 HD
ENDBRANCH  14  15
ENDBRANCH   1  14
TORSDOF 3
ENDMDL
MODEL 5
REMARK VINA RESULT:      -6.6      2.417      2.845
REMARK  Name = 
REMARK  3 active torsions:
REMARK  status: ('A' for Active; 'I' for Inactive)
REMARK    1  A    between atoms: C_2  and  OXT_3
REMARK    2  A    between atoms: C_2  and  CA_4
REMARK    3  A    between atoms: C_7  and  C_8
REMARK                            x       y       z     vdW  Elec       q    Type
REMARK                         _______ _______ _______ _____ _____    ______ ____
ROOT
ATOM      1  CA  UNL     1       6.367   6.364  18.035  0.00  0.00    +0.000 A 
ATOM      2  C   UNL     1       5.238   6.642  17.286  0.00  0.00    +0.000 A 
ATOM      3  C   UNL     1       4.070   5.940  17.586  0.00  0.00    +0.000 A 
ATOM      4  C   UNL     1       4.045   4.978  18.610  0.00  0.00    +0.000 A 
ATOM      5  C   UNL     1       5.251   4.792  19.299  0.00  0.00    +0.000 A 
ATOM      6  N   UNL     1       6.411   5.453  19.050  0.00  0.00    +0.000 NA
ENDROOT
BRANCH   4   7
ATOM      7  C   UNL     1       2.823   4.209  18.931  0.00  0.00    +0.000 A 
ATOM      8  C   UNL     1       1.988   4.579  20.002  0.00  0.00    +0.000 A 
ATOM      9  C   UNL     1       0.843   3.845  20.325  0.00  0.00    +0.000 A 
ATOM     10  C   UNL     1       0.496   2.728  19.573  0.00  0.00    +0.000 A 
ATOM     11  C   UNL     1       1.295   2.346  18.500  0.00  0.00    +0.000 A 
ATOM     12  C   UNL     1       2.447   3.075  18.186  0.00  0.00    +0.000 A 
ENDBRANCH   4   7
BRANCH   1  14
ATOM     13  O   UNL     1       7.988   7.509  16.671  0.00  0.00    +0.000 OA
ATOM     14  C   UNL     1       7.651   7.070  17.757  0.00  0.00    +0.000 C 
BRANCH  14  15
ATOM     15  OXT UNL     1       8.397   7.152  18.885  0.00  0.00    +0.000 OA
ATOM     16  HXT UNL     1       8.621   6.235  19.177  0.00  0.00    +0.000 HD
ENDBRANCH  14  15
ENDBRANCH   1  14
TORSDOF 3
ENDMDL
MODEL 6
REMARK VINA RESULT:      -6.6      1.759      2.270
REMARK  Name = 
REMARK  3 active torsions:
REMARK  status: ('A' for Active; 'I' for Inactive)
REMARK    1  A    between atoms: C_2  and  OXT_3
REMARK    2  A    between atoms: C_2  and  CA_4
REMARK    3  A    between atoms: C_7  and  C_8
REMARK                            x       y       z     vdW  Elec       q    Type
REMARK                         _______ _______ _______ _____ _____    ______ ____
ROOT
ATOM      1  CA  UNL     1       6.071   5.161  16.780  0.00  0.00    +0.000 A 
ATOM      2  C   UNL     1       5.217   4.160  16.356  0.00  0.00    +0.000 A 
ATOM      3  C   UNL     1       4.236   3.720  17.247  0.00  0.00    +0.000 A 
ATOM      4  C   UNL     1       4.127   4.273  18.534  0.00  0.00    +0.000 A 
ATOM      5  C   UNL     1       5.048   5.284  18.842  0.00  0.00    +0.000 A 
ATOM      6  N   UNL     1       6.014   5.750  18.009  0.00  0.00    +0.000 NA
ENDROOT
BRANCH   4   7
ATOM      7  C   UNL     1       3.109   3.809  19.501  0.00  0.00    +0.000 A 
ATOM      8  C   UNL     1       3.444   2.934  20.551  0.00  0.00    +0.000 A 
ATOM      9  C   UNL     1       2.482   2.475  21.456  0.00  0.00    +0.000 A 
ATOM     10  C   UNL     1       1.161   2.892  21.341  0.00  0.00    +0.000 A 
ATOM     11  C   UNL     1       0.802   3.767  20.321  0.00  0.00    +0.000 A 
ATOM     12  C   UNL     1       1.764   4.217  19.410  0.00  0.00    +0.000 A 
ENDBRANCH   4   7
BRANCH   1  14
ATOM     13  O   UNL     1       7.482   5.150  14.829  0.00  0.00    +0.000 OA
ATOM     14  C   UNL     1       7.148   5.666  15.881  0.00  0.00    +0.000 C 
BRANCH  14  15
ATOM     15  OXT UNL     1       7.711   6.784  16.402  0.00  0.00    +0.000 OA
ATOM     16  HXT UNL     1       6.999   7.456  16.537  0.00  0.00    +0.000 HD
ENDBRANCH  14  15
ENDBRANCH   1  14
TORSDOF 3
ENDMDL
MODEL 7
REMARK VINA RESULT:      -6.6      1.587      1.950
REMARK  Name = 
REMARK  3 active torsions:
REMARK  status: ('A' for Active; 'I' for Inactive)
REMARK    1  A    between atoms: C_2  and  OXT_3
REMARK    2  A    between atoms: C_2  and  CA_4
REMARK    3  A    between atoms: C_7  and  C_8
REMARK                            x       y       z     vdW  Elec       q    Type
REMARK                         _______ _______ _______ _____ _____    ______ ____
ROOT
ATOM      1  CA  UNL     1       5.936   4.604  16.409  0.00  0.00    +0.000 A 
ATOM      2  C   UNL     1       6.301   4.830  17.724  0.00  0.00    +0.000 A 
ATOM      3  C   UNL     1       5.392   4.477  18.722  0.00  0.00    +0.000 A 
ATOM      4  C   UNL     1       4.144   3.918  18.399  0.00  0.00    +0.000 A 
ATOM      5  C   UNL     1       3.894   3.735  17.032  0.00  0.00    +0.000 A 
ATOM      6  N   UNL     1       4.748   4.056  16.025  0.00  0.00    +0.000 NA
ENDROOT
BRANCH   4   7
ATOM      7  C   UNL     1       3.157   3.554  19.439  0.00  0.00    +0.000 A 
ATOM      8  C   UNL     1       1.813   3.961  19.345  0.00  0.00    +0.000 A 
ATOM      9  C   UNL     1       0.879   3.638  20.334  0.00  0.00    +0.000 A 
ATOM     10  C   UNL     1       1.266   2.888  21.439  0.00  0.00    +0.000 A 
ATOM     11  C   UNL     1       2.585   2.460  21.553  0.00  0.00    +0.000 A 
ATOM     12  C   UNL     1       3.520   2.793  20.567  0.00  0.00    +0.000 A 
ENDBRANCH   4   7
BRANCH   1  14
ATOM     13  O   UNL     1       6.857   4.463  14.188  0.00  0.00    +0.000 OA
ATOM     14  C   UNL     1       6.857   4.972  15.296  0.00  0.00    +0.000 C 
BRANCH  14  15
ATOM     15  OXT UNL     1       7.704   5.954  15.690  0.00  0.00    +0.000 OA
ATOM     16  HXT UNL     1       7.537   6.143  16.646  0.00  0.00    +0.000 HD
ENDBRANCH  14  15
ENDBRANCH   1  14
TORSDOF 3
ENDMDL
MODEL 8
REMARK VINA RESULT:      -6.6      1.442      1.787
REMARK  Name = 
REMARK  3 active torsions:
REMARK  status: ('A' for Active; 'I' for Inactive)
REMARK    1  A    between atoms: C_2  and  OXT_3
REMARK    2  A    between atoms: C_2  and  CA_4
REMARK    3  A    between atoms: C_7  and  C_8
REMARK                            x       y       z     vdW  Elec       q    Type
REMARK                         _______ _______ _______ _____ _____    ______ ____
ROOT
ATOM      1  CA  UNL     1       6.165   4.437  15.989  0.00  0.00    +0.000 A 
ATOM      2  C   UNL     1       6.742   4.620  17.232  0.00  0.00    +0.000 A 
ATOM      3  C   UNL     1       5.935   4.442  18.357  0.00  0.00    +0.000 A 
ATOM      4  C   UNL     1       4.578   4.096  18.228  0.00  0.00    +0.000 A 
ATOM      5  C   UNL     1       4.114   3.935  16.915  0.00  0.00    +0.000 A 
ATOM      6  N   UNL     1       4.860   4.091  15.791  0.00  0.00    +0.000 NA
ENDROOT
BRANCH   4   7
ATOM      7  C   UNL     1       3.700   3.922  19.405  0.00  0.00    +0.000 A 
ATOM      8  C   UNL     1       3.728   2.738  20.167  0.00  0.00    +0.000 A 
ATOM      9  C   UNL     1       2.886   2.558  21.269  0.00  0.00    +0.000 A 
ATOM     10  C   UNL     1       2.004   3.564  21.644  0.00  0.00    +0.000 A 
ATOM     11  C   UNL     1       1.964   4.751  20.918  0.00  0.00    +0.000 A 
ATOM     12  C   UNL     1       2.799   4.925  19.809  0.00  0.00    +0.000 A 
ENDBRANCH   4   7
BRANCH   1  14
ATOM     13  O   UNL     1       7.809   5.493  14.581  0.00  0.00    +0.000 OA
ATOM     14  C   UNL     1       6.969   4.625  14.748  0.00  0.00    +0.000 C 
BRANCH  14  15
ATOM     15  OXT UNL     1       6.633   3.693  13.823  0.00  0.00    +0.000 OA
ATOM     16  HXT UNL     1       5.671   3.489  13.923  0.00  0.00    +0.000 HD
ENDBRANCH  14  15
ENDBRANCH   1  14
TORSDOF 3
ENDMDL
MODEL 9
REMARK VINA RESULT:      -6.6      1.450      1.516
REMARK  Name = 
REMARK  3 active torsions:
REMARK  status: ('A' for Active; 'I' for Inactive)
REMARK    1  A    between atoms: C_2  and  OXT_3
REMARK    2  A    between atoms: C_2  and  CA_4
REMARK    3  A    between atoms: C_7  and  C_8
REMARK                            x       y       z     vdW  Elec       q    Type
REMARK                         _______ _______ _______ _____ _____    ______ ____
ROOT
ATOM      1  CA  UNL     1       6.151   4.405  16.012  0.00  0.00    +0.000 A 
ATOM      2  C   UNL     1       6.704   4.657  17.254  0.00  0.00    +0.000 A 
ATOM      3  C   UNL     1       5.897   4.469  18.376  0.00  0.00    +0.000 A 
ATOM      4  C   UNL     1       4.563   4.046  18.246  0.00  0.00    +0.000 A 
ATOM      5  C   UNL     1       4.121   3.820  16.935  0.00  0.00    +0.000 A 
ATOM      6  N   UNL     1       4.870   3.982  15.813  0.00  0.00    +0.000 NA
ENDROOT
BRANCH   4   7
ATOM      7  C   UNL     1       3.683   3.859  19.420  0.00  0.00    +0.000 A 
ATOM      8  C   UNL     1       2.813   4.879  19.850  0.00  0.00    +0.000 A 
ATOM      9  C   UNL     1       1.994   4.717  20.972  0.00  0.00    +0.000 A 
ATOM     10  C   UNL     1       2.015   3.524  21.684  0.00  0.00    +0.000 A 
ATOM     11  C   UNL     1       2.855   2.493  21.275  0.00  0.00    +0.000 A 
ATOM     12  C   UNL     1       3.682   2.661  20.159  0.00  0.00    +0.000 A 
ENDBRANCH   4   7
BRANCH   1  14
ATOM     13  O   UNL     1       7.821   5.446  14.624  0.00  0.00    +0.000 OA
ATOM     14  C   UNL     1       6.957   4.600  14.773  0.00  0.00    +0.000 C 
BRANCH  14  15
ATOM     15  OXT UNL     1       6.590   3.700  13.827  0.00  0.00    +0.000 OA
ATOM     16  HXT UNL     1       6.685   2.793  14.208  0.00  0.00    +0.000 HD
ENDBRANCH  14  15
ENDBRANCH   1  14
TORSDOF 3
ENDMDL
