MODEL 1
REMARK VINA RESULT:      -8.7      0.000      0.000
REMARK  Name = 
REMARK  11 active torsions:
REMARK  status: ('A' for Active; 'I' for Inactive)
REMARK    1  A    between atoms: C_1  and  C_2
REMARK    2  A    between atoms: C_2  and  O_3
REMARK    3  A    between atoms: O_3  and  C_4
REMARK    4  A    between atoms: C_7  and  C_8
REMARK    5  A    between atoms: C_11  and  S_12
REMARK    6  A    between atoms: S_12  and  C_13
REMARK    7  A    between atoms: C_13  and  C_14
REMARK    8  A    between atoms: N_16  and  C_17
REMARK    9  A    between atoms: C_22  and  C_23
REMARK   10  A    between atoms: N_25  and  C_26
REMARK   11  A    between atoms: C_26  and  C_27
REMARK                            x       y       z     vdW  Elec       q    Type
REMARK                         _______ _______ _______ _____ _____    ______ ____
ROOT
ATOM      1  C   UNL     1       4.741   3.832  17.507  0.00  0.00    +0.000 C 
ATOM      2  O   UNL     1       4.029   2.857  17.276  0.00  0.00    +0.000 OA
ATOM      3  N   UNL     1       4.711   4.549  18.703  0.00  0.00    +0.000 N 
ATOM      4  H   UNL     1       4.865   5.540  18.541  0.00  0.00    +0.000 HD
ENDROOT
BRANCH   3   5
ATOM      5  C   UNL     1       3.700   4.265  19.662  0.00  0.00    +0.000 A 
ATOM      6  C   UNL     1       3.621   2.941  20.118  0.00  0.00    +0.000 A 
ATOM      7  C   UNL     1       2.625   2.542  21.014  0.00  0.00    +0.000 A 
ATOM      8  C   UNL     1       1.672   3.456  21.445  0.00  0.00    +0.000 A 
ATOM      9  C   UNL     1       1.718   4.767  20.975  0.00  0.00    +0.000 A 
ATOM     10  C   UNL     1       2.723   5.188  20.084  0.00  0.00    +0.000 A 
BRANCH  10  11
ATOM     11  C   UNL     1       2.537   6.552  19.518  0.00  0.00    +0.000 C 
ATOM     12  O   UNL     1       3.109   6.850  18.472  0.00  0.00    +0.000 OA
ATOM     13  N   UNL     1       1.709   7.413  20.191  0.00  0.00    +0.000 N 
ATOM     14  H   UNL     1       1.073   7.027  20.879  0.00  0.00    +0.000 HD
BRANCH  13  15
ATOM     15  C   UNL     1       1.484   8.758  19.713  0.00  0.00    +0.000 C 
BRANCH  15  16
ATOM     16  C   UNL     1       0.704   9.587  20.697  0.00  0.00    +0.000 A 
ATOM     17  C   UNL     1       0.345   9.066  21.948  0.00  0.00    +0.000 A 
ATOM     18  C   UNL     1      -0.342   9.855  22.873  0.00  0.00    +0.000 A 
ATOM     19  C   UNL     1      -0.684  11.168  22.553  0.00  0.00    +0.000 A 
ATOM     20  C   UNL     1      -0.357  11.686  21.303  0.00  0.00    +0.000 A 
ATOM     21  C   UNL     1       0.330  10.903  20.379  0.00  0.00    +0.000 A 
ENDBRANCH  15  16
ENDBRANCH  13  15
ENDBRANCH  10  11
ENDBRANCH   3   5
BRANCH   1  22
ATOM     22  C   UNL     1       5.816   4.289  16.535  0.00  0.00    +0.000 C 
BRANCH  22  23
ATOM     23  S   UNL     1       5.566   6.003  15.979  0.00  0.00    +0.000 S 
BRANCH  23  27
ATOM     24  C   UNL     1       7.867   8.285  18.055  0.00  0.00    +0.000 A 
ATOM     25  N   UNL     1       8.209   7.116  18.560  0.00  0.00    +0.000 NA
ATOM     26  N   UNL     1       7.444   6.169  17.923  0.00  0.00    +0.000 NA
ATOM     27  C   UNL     1       6.681   6.810  17.061  0.00  0.00    +0.000 A 
ATOM     28  O   UNL     1       6.878   8.172  17.104  0.00  0.00    +0.000 OA
BRANCH  24  32
ATOM     29  C   UNL     1       9.429  12.215  18.789  0.00  0.00    +0.000 A 
ATOM     30  C   UNL     1       8.619  11.955  17.686  0.00  0.00    +0.000 A 
ATOM     31  C   UNL     1       8.138  10.662  17.450  0.00  0.00    +0.000 A 
ATOM     32  C   UNL     1       8.463   9.596  18.307  0.00  0.00    +0.000 A 
ATOM     33  C   UNL     1       9.327   9.857  19.380  0.00  0.00    +0.000 A 
ATOM     34  C   UNL     1       9.808  11.158  19.619  0.00  0.00    +0.000 A 
BRANCH  29  35
ATOM     35  O   UNL     1       9.822  13.517  18.930  0.00  0.00    +0.000 OA
BRANCH  35  37
ATOM     36  C   UNL     1      11.284  14.532  20.521  0.00  0.00    +0.000 C 
ATOM     37  C   UNL     1      11.203  13.718  19.239  0.00  0.00    +0.000 C 
ENDBRANCH  35  37
ENDBRANCH  29  35
ENDBRANCH  24  32
ENDBRANCH  23  27
ENDBRANCH  22  23
ENDBRANCH   1  22
TORSDOF 10
ENDMDL
MODEL 2
REMARK VINA RESULT:      -8.5      1.418      1.701
REMARK  Name = 
REMARK  11 active torsions:
REMARK  status: ('A' for Active; 'I' for Inactive)
REMARK    1  A    between atoms: C_1  and  C_2
REMARK    2  A    between atoms: C_2  and  O_3
REMARK    3  A    between atoms: O_3  and  C_4
REMARK    4  A    between atoms: C_7  and  C_8
REMARK    5  A    between atoms: C_11  and  S_12
REMARK    6  A    between atoms: S_12  and  C_13
REMARK    7  A    between atoms: C_13  and  C_14
REMARK    8  A    between atoms: N_16  and  C_17
REMARK    9  A    between atoms: C_22  and  C_23
REMARK   10  A    between atoms: N_25  and  C_26
REMARK   11  A    between atoms: C_26  and  C_27
REMARK                            x       y       z     vdW  Elec       q    Type
REMARK                         _______ _______ _______ _____ _____    ______ ____
ROOT
ATOM      1  C   UNL     1       6.031   5.032  18.693  0.00  0.00    +0.000 C 
ATOM      2  O   UNL     1       6.500   4.951  19.827  0.00  0.00    +0.000 OA
ATOM      3  N   UNL     1       4.671   4.914  18.406  0.00  0.00    +0.000 N 
ATOM      4  H   UNL     1       4.523   4.444  17.518  0.00  0.00    +0.000 HD
ENDROOT
BRANCH   3   5
ATOM      5  C   UNL     1       3.772   4.516  19.434  0.00  0.00    +0.000 A 
ATOM      6  C   UNL     1       3.825   3.172  19.829  0.00  0.00    +0.000 A 
ATOM      7  C   UNL     1       2.944   2.664  20.787  0.00  0.00    +0.000 A 
ATOM      8  C   UNL     1       1.972   3.487  21.343  0.00  0.00    +0.000 A 
ATOM      9  C   UNL     1       1.886   4.817  20.937  0.00  0.00    +0.000 A 
ATOM     10  C   UNL     1       2.776   5.348  19.983  0.00  0.00    +0.000 A 
BRANCH  10  11
ATOM     11  C   UNL     1       2.447   6.718  19.503  0.00  0.00    +0.000 C 
ATOM     12  O   UNL     1       2.700   7.022  18.340  0.00  0.00    +0.000 OA
ATOM     13  N   UNL     1       1.852   7.578  20.391  0.00  0.00    +0.000 N 
ATOM     14  H   UNL     1       1.436   7.189  21.229  0.00  0.00    +0.000 HD
BRANCH  13  15
ATOM     15  C   UNL     1       1.511   8.928  20.007  0.00  0.00    +0.000 C 
BRANCH  15  16
ATOM     16  C   UNL     1       0.641   9.606  21.029  0.00  0.00    +0.000 A 
ATOM     17  C   UNL     1       0.164   8.903  22.145  0.00  0.00    +0.000 A 
ATOM     18  C   UNL     1      -0.609   9.550  23.111  0.00  0.00    +0.000 A 
ATOM     19  C   UNL     1      -0.919  10.902  22.968  0.00  0.00    +0.000 A 
ATOM     20  C   UNL     1      -0.474  11.602  21.850  0.00  0.00    +0.000 A 
ATOM     21  C   UNL     1       0.298  10.961  20.886  0.00  0.00    +0.000 A 
ENDBRANCH  15  16
ENDBRANCH  13  15
ENDBRANCH  10  11
ENDBRANCH   3   5
BRANCH   1  22
ATOM     22  C   UNL     1       6.893   5.381  17.491  0.00  0.00    +0.000 C 
BRANCH  22  23
ATOM     23  S   UNL     1       6.450   6.987  16.762  0.00  0.00    +0.000 S 
BRANCH  23  27
ATOM     24  C   UNL     1       8.709   9.672  18.343  0.00  0.00    +0.000 A 
ATOM     25  N   UNL     1       9.037   8.641  19.098  0.00  0.00    +0.000 NA
ATOM     26  N   UNL     1       8.284   7.576  18.665  0.00  0.00    +0.000 NA
ATOM     27  C   UNL     1       7.542   8.012  17.667  0.00  0.00    +0.000 A 
ATOM     28  O   UNL     1       7.741   9.352  17.417  0.00  0.00    +0.000 OA
BRANCH  24  32
ATOM     29  C   UNL     1      10.467  13.585  18.473  0.00  0.00    +0.000 A 
ATOM     30  C   UNL     1       9.325  13.282  19.210  0.00  0.00    +0.000 A 
ATOM     31  C   UNL     1       8.752  12.008  19.136  0.00  0.00    +0.000 A 
ATOM     32  C   UNL     1       9.303  11.008  18.317  0.00  0.00    +0.000 A 
ATOM     33  C   UNL     1      10.418  11.340  17.535  0.00  0.00    +0.000 A 
ATOM     34  C   UNL     1      10.996  12.621  17.612  0.00  0.00    +0.000 A 
BRANCH  29  35
ATOM     35  O   UNL     1      10.950  14.853  18.639  0.00  0.00    +0.000 OA
BRANCH  35  37
ATOM     36  C   UNL     1      10.750  16.403  16.835  0.00  0.00    +0.000 C 
ATOM     37  C   UNL     1      10.125  15.903  18.128  0.00  0.00    +0.000 C 
ENDBRANCH  35  37
ENDBRANCH  29  35
ENDBRANCH  24  32
ENDBRANCH  23  27
ENDBRANCH  22  23
ENDBRANCH   1  22
TORSDOF 10
ENDMDL
MODEL 3
REMARK VINA RESULT:      -8.2      1.499      1.891
REMARK  Name = 
REMARK  11 active torsions:
REMARK  status: ('A' for Active; 'I' for Inactive)
REMARK    1  A    between atoms: C_1  and  C_2
REMARK    2  A    between atoms: C_2  and  O_3
REMARK    3  A    between atoms: O_3  and  C_4
REMARK    4  A    between atoms: C_7  and  C_8
REMARK    5  A    between atoms: C_11  and  S_12
REMARK    6  A    between atoms: S_12  and  C_13
REMARK    7  A    between atoms: C_13  and  C_14
REMARK    8  A    between atoms: N_16  and  C_17
REMARK    9  A    between atoms: C_22  and  C_23
REMARK   10  A    between atoms: N_25  and  C_26
REMARK   11  A    between atoms: C_26  and  C_27
REMARK                            x       y       z     vdW  Elec       q    Type
REMARK                         _______ _______ _______ _____ _____    ______ ____
ROOT
ATOM      1  C   UNL     1       5.343   4.831  18.997  0.00  0.00    +0.000 C 
ATOM      2  O   UNL     1       5.164   5.767  19.775  0.00  0.00    +0.000 OA
ATOM      3  N   UNL     1       4.433   3.791  18.810  0.00  0.00    +0.000 N 
ATOM      4  H   UNL     1       4.911   2.910  18.645  0.00  0.00    +0.000 HD
ENDROOT
BRANCH   3   5
ATOM      5  C   UNL     1       3.303   3.690  19.668  0.00  0.00    +0.000 A 
ATOM      6  C   UNL     1       3.160   2.491  20.380  0.00  0.00    +0.000 A 
ATOM      7  C   UNL     1       2.054   2.264  21.203  0.00  0.00    +0.000 A 
ATOM      8  C   UNL     1       1.054   3.224  21.302  0.00  0.00    +0.000 A 
ATOM      9  C   UNL     1       1.165   4.407  20.575  0.00  0.00    +0.000 A 
ATOM     10  C   UNL     1       2.281   4.657  19.753  0.00  0.00    +0.000 A 
BRANCH  10  11
ATOM     11  C   UNL     1       2.176   5.866  18.891  0.00  0.00    +0.000 C 
ATOM     12  O   UNL     1       2.137   5.730  17.671  0.00  0.00    +0.000 OA
ATOM     13  N   UNL     1       2.105   7.086  19.513  0.00  0.00    +0.000 N 
ATOM     14  H   UNL     1       1.875   7.109  20.499  0.00  0.00    +0.000 HD
BRANCH  13  15
ATOM     15  C   UNL     1       2.011   8.308  18.748  0.00  0.00    +0.000 C 
BRANCH  15  16
ATOM     16  C   UNL     1       1.046   9.287  19.357  0.00  0.00    +0.000 A 
ATOM     17  C   UNL     1       0.853   9.334  20.745  0.00  0.00    +0.000 A 
ATOM     18  C   UNL     1      -0.014  10.274  21.307  0.00  0.00    +0.000 A 
ATOM     19  C   UNL     1      -0.702  11.168  20.489  0.00  0.00    +0.000 A 
ATOM     20  C   UNL     1      -0.539  11.111  19.107  0.00  0.00    +0.000 A 
ATOM     21  C   UNL     1       0.326  10.177  18.543  0.00  0.00    +0.000 A 
ENDBRANCH  15  16
ENDBRANCH  13  15
ENDBRANCH  10  11
ENDBRANCH   3   5
BRANCH   1  22
ATOM     22  C   UNL     1       6.548   4.777  18.071  0.00  0.00    +0.000 C 
BRANCH  22  23
ATOM     23  S   UNL     1       8.073   5.345  18.883  0.00  0.00    +0.000 S 
BRANCH  23  27
ATOM     24  C   UNL     1       8.418   9.116  18.197  0.00  0.00    +0.000 A 
ATOM     25  N   UNL     1       7.540   8.806  17.263  0.00  0.00    +0.000 NA
ATOM     26  N   UNL     1       7.317   7.453  17.361  0.00  0.00    +0.000 NA
ATOM     27  C   UNL     1       8.065   7.013  18.353  0.00  0.00    +0.000 A 
ATOM     28  O   UNL     1       8.817   8.016  18.923  0.00  0.00    +0.000 OA
BRANCH  24  32
ATOM     29  C   UNL     1      10.023  12.918  19.377  0.00  0.00    +0.000 A 
ATOM     30  C   UNL     1      10.141  11.798  20.198  0.00  0.00    +0.000 A 
ATOM     31  C   UNL     1       9.590  10.573  19.807  0.00  0.00    +0.000 A 
ATOM     32  C   UNL     1       8.901  10.439  18.589  0.00  0.00    +0.000 A 
ATOM     33  C   UNL     1       8.737  11.585  17.799  0.00  0.00    +0.000 A 
ATOM     34  C   UNL     1       9.294  12.817  18.190  0.00  0.00    +0.000 A 
BRANCH  29  35
ATOM     35  O   UNL     1      10.617  14.054  19.851  0.00  0.00    +0.000 OA
BRANCH  35  37
ATOM     36  C   UNL     1      10.274  16.292  19.096  0.00  0.00    +0.000 C 
ATOM     37  C   UNL     1      11.034  14.996  18.861  0.00  0.00    +0.000 C 
ENDBRANCH  35  37
ENDBRANCH  29  35
ENDBRANCH  24  32
ENDBRANCH  23  27
ENDBRANCH  22  23
ENDBRANCH   1  22
TORSDOF 10
ENDMDL
MODEL 4
REMARK VINA RESULT:      -8.2      2.395      4.723
REMARK  Name = 
REMARK  11 active torsions:
REMARK  status: ('A' for Active; 'I' for Inactive)
REMARK    1  A    between atoms: C_1  and  C_2
REMARK    2  A    between atoms: C_2  and  O_3
REMARK    3  A    between atoms: O_3  and  C_4
REMARK    4  A    between atoms: C_7  and  C_8
REMARK    5  A    between atoms: C_11  and  S_12
REMARK    6  A    between atoms: S_12  and  C_13
REMARK    7  A    between atoms: C_13  and  C_14
REMARK    8  A    between atoms: N_16  and  C_17
REMARK    9  A    between atoms: C_22  and  C_23
REMARK   10  A    between atoms: N_25  and  C_26
REMARK   11  A    between atoms: C_26  and  C_27
REMARK                            x       y       z     vdW  Elec       q    Type
REMARK                         _______ _______ _______ _____ _____    ______ ____
ROOT
ATOM      1  C   UNL     1       1.563   5.084  20.331  0.00  0.00    +0.000 C 
ATOM      2  O   UNL     1       0.838   4.858  19.365  0.00  0.00    +0.000 OA
ATOM      3  N   UNL     1       2.061   6.347  20.650  0.00  0.00    +0.000 N 
ATOM      4  H   UNL     1       3.000   6.285  21.034  0.00  0.00    +0.000 HD
ENDROOT
BRANCH   3   5
ATOM      5  C   UNL     1       1.874   7.422  19.738  0.00  0.00    +0.000 A 
ATOM      6  C   UNL     1       2.730   7.460  18.628  0.00  0.00    +0.000 A 
ATOM      7  C   UNL     1       2.671   8.507  17.704  0.00  0.00    +0.000 A 
ATOM      8  C   UNL     1       1.774   9.551  17.893  0.00  0.00    +0.000 A 
ATOM      9  C   UNL     1       0.939   9.543  19.009  0.00  0.00    +0.000 A 
ATOM     10  C   UNL     1       0.977   8.489  19.941  0.00  0.00    +0.000 A 
BRANCH  10  11
ATOM     11  C   UNL     1       0.175   8.706  21.176  0.00  0.00    +0.000 C 
ATOM     12  O   UNL     1      -0.604   7.832  21.546  0.00  0.00    +0.000 OA
ATOM     13  N   UNL     1       0.364   9.880  21.860  0.00  0.00    +0.000 N 
ATOM     14  H   UNL     1       1.194  10.425  21.656  0.00  0.00    +0.000 HD
BRANCH  13  15
ATOM     15  C   UNL     1      -0.383  10.172  23.062  0.00  0.00    +0.000 C 
BRANCH  15  16
ATOM     16  C   UNL     1      -1.155  11.458  22.952  0.00  0.00    +0.000 A 
ATOM     17  C   UNL     1      -2.450  11.565  23.479  0.00  0.00    +0.000 A 
ATOM     18  C   UNL     1      -3.144  12.775  23.410  0.00  0.00    +0.000 A 
ATOM     19  C   UNL     1      -2.556  13.885  22.807  0.00  0.00    +0.000 A 
ATOM     20  C   UNL     1      -1.281  13.783  22.256  0.00  0.00    +0.000 A 
ATOM     21  C   UNL     1      -0.585  12.579  22.325  0.00  0.00    +0.000 A 
ENDBRANCH  15  16
ENDBRANCH  13  15
ENDBRANCH  10  11
ENDBRANCH   3   5
BRANCH   1  22
ATOM     22  C   UNL     1       1.903   4.006  21.348  0.00  0.00    +0.000 C 
BRANCH  22  23
ATOM     23  S   UNL     1       2.576   2.505  20.571  0.00  0.00    +0.000 S 
BRANCH  23  27
ATOM     24  C   UNL     1       5.084   4.462  18.405  0.00  0.00    +0.000 A 
ATOM     25  N   UNL     1       4.426   3.828  17.454  0.00  0.00    +0.000 NA
ATOM     26  N   UNL     1       3.481   3.049  18.077  0.00  0.00    +0.000 NA
ATOM     27  C   UNL     1       3.609   3.254  19.372  0.00  0.00    +0.000 A 
ATOM     28  O   UNL     1       4.632   4.130  19.662  0.00  0.00    +0.000 OA
BRANCH  24  32
ATOM     29  C   UNL     1       7.943   7.643  18.036  0.00  0.00    +0.000 A 
ATOM     30  C   UNL     1       6.801   7.602  17.239  0.00  0.00    +0.000 A 
ATOM     31  C   UNL     1       5.893   6.544  17.357  0.00  0.00    +0.000 A 
ATOM     32  C   UNL     1       6.108   5.497  18.269  0.00  0.00    +0.000 A 
ATOM     33  C   UNL     1       7.289   5.517  19.024  0.00  0.00    +0.000 A 
ATOM     34  C   UNL     1       8.201   6.583  18.908  0.00  0.00    +0.000 A 
BRANCH  29  35
ATOM     35  O   UNL     1       8.747   8.732  17.849  0.00  0.00    +0.000 OA
BRANCH  35  37
ATOM     36  C   UNL     1       9.162  11.040  18.291  0.00  0.00    +0.000 C 
ATOM     37  C   UNL     1       8.103  10.004  17.951  0.00  0.00    +0.000 C 
ENDBRANCH  35  37
ENDBRANCH  29  35
ENDBRANCH  24  32
ENDBRANCH  23  27
ENDBRANCH  22  23
ENDBRANCH   1  22
TORSDOF 10
ENDMDL
MODEL 5
REMARK VINA RESULT:      -8.1      4.905     10.221
REMARK  Name = 
REMARK  11 active torsions:
REMARK  status: ('A' for Active; 'I' for Inactive)
REMARK    1  A    between atoms: C_1  and  C_2
REMARK    2  A    between atoms: C_2  and  O_3
REMARK    3  A    between atoms: O_3  and  C_4
REMARK    4  A    between atoms: C_7  and  C_8
REMARK    5  A    between atoms: C_11  and  S_12
REMARK    6  A    between atoms: S_12  and  C_13
REMARK    7  A    between atoms: C_13  and  C_14
REMARK    8  A    between atoms: N_16  and  C_17
REMARK    9  A    between atoms: C_22  and  C_23
REMARK   10  A    between atoms: N_25  and  C_26
REMARK   11  A    between atoms: C_26  and  C_27
REMARK                            x       y       z     vdW  Elec       q    Type
REMARK                         _______ _______ _______ _____ _____    ______ ____
ROOT
ATOM      1  C   UNL     1       2.073   6.774  19.780  0.00  0.00    +0.000 C 
ATOM      2  O   UNL     1       1.769   6.123  20.778  0.00  0.00    +0.000 OA
ATOM      3  N   UNL     1       2.341   6.206  18.535  0.00  0.00    +0.000 N 
ATOM      4  H   UNL     1       3.074   6.715  18.049  0.00  0.00    +0.000 HD
ENDROOT
BRANCH   3   5
ATOM      5  C   UNL     1       2.439   4.792  18.419  0.00  0.00    +0.000 A 
ATOM      6  C   UNL     1       1.496   4.037  19.131  0.00  0.00    +0.000 A 
ATOM      7  C   UNL     1       1.541   2.641  19.135  0.00  0.00    +0.000 A 
ATOM      8  C   UNL     1       2.551   1.976  18.450  0.00  0.00    +0.000 A 
ATOM      9  C   UNL     1       3.514   2.713  17.764  0.00  0.00    +0.000 A 
ATOM     10  C   UNL     1       3.474   4.121  17.739  0.00  0.00    +0.000 A 
BRANCH  10  11
ATOM     11  C   UNL     1       4.666   4.777  17.136  0.00  0.00    +0.000 C 
ATOM     12  O   UNL     1       4.683   6.000  17.022  0.00  0.00    +0.000 OA
ATOM     13  N   UNL     1       5.710   3.974  16.752  0.00  0.00    +0.000 N 
ATOM     14  H   UNL     1       5.743   3.028  17.112  0.00  0.00    +0.000 HD
BRANCH  13  15
ATOM     15  C   UNL     1       6.898   4.533  16.149  0.00  0.00    +0.000 C 
BRANCH  15  16
ATOM     16  C   UNL     1       6.869   4.441  14.648  0.00  0.00    +0.000 A 
ATOM     17  C   UNL     1       7.693   5.262  13.864  0.00  0.00    +0.000 A 
ATOM     18  C   UNL     1       7.692   5.142  12.473  0.00  0.00    +0.000 A 
ATOM     19  C   UNL     1       6.862   4.210  11.853  0.00  0.00    +0.000 A 
ATOM     20  C   UNL     1       6.020   3.410  12.620  0.00  0.00    +0.000 A 
ATOM     21  C   UNL     1       6.020   3.524  14.007  0.00  0.00    +0.000 A 
ENDBRANCH  15  16
ENDBRANCH  13  15
ENDBRANCH  10  11
ENDBRANCH   3   5
BRANCH   1  22
ATOM     22  C   UNL     1       2.079   8.294  19.785  0.00  0.00    +0.000 C 
BRANCH  22  23
ATOM     23  S   UNL     1       1.936   8.994  18.112  0.00  0.00    +0.000 S 
BRANCH  23  27
ATOM     24  C   UNL     1      -1.272  11.094  18.438  0.00  0.00    +0.000 A 
ATOM     25  N   UNL     1      -0.407  11.937  18.968  0.00  0.00    +0.000 NA
ATOM     26  N   UNL     1       0.818  11.316  18.945  0.00  0.00    +0.000 NA
ATOM     27  C   UNL     1       0.636  10.131  18.397  0.00  0.00    +0.000 A 
ATOM     28  O   UNL     1      -0.682   9.907  18.067  0.00  0.00    +0.000 OA
BRANCH  24  32
ATOM     29  C   UNL     1      -5.399  11.929  17.601  0.00  0.00    +0.000 A 
ATOM     30  C   UNL     1      -4.886  12.040  18.892  0.00  0.00    +0.000 A 
ATOM     31  C   UNL     1      -3.544  11.741  19.149  0.00  0.00    +0.000 A 
ATOM     32  C   UNL     1      -2.683  11.314  18.124  0.00  0.00    +0.000 A 
ATOM     33  C   UNL     1      -3.222  11.149  16.840  0.00  0.00    +0.000 A 
ATOM     34  C   UNL     1      -4.571  11.453  16.580  0.00  0.00    +0.000 A 
BRANCH  29  35
ATOM     35  O   UNL     1      -6.716  12.266  17.464  0.00  0.00    +0.000 OA
BRANCH  35  37
ATOM     36  C   UNL     1      -7.572  14.426  18.008  0.00  0.00    +0.000 C 
ATOM     37  C   UNL     1      -6.972  13.559  16.913  0.00  0.00    +0.000 C 
ENDBRANCH  35  37
ENDBRANCH  29  35
ENDBRANCH  24  32
ENDBRANCH  23  27
ENDBRANCH  22  23
ENDBRANCH   1  22
TORSDOF 10
ENDMDL
MODEL 6
REMARK VINA RESULT:      -8.0      4.498     10.026
REMARK  Name = 
REMARK  11 active torsions:
REMARK  status: ('A' for Active; 'I' for Inactive)
REMARK    1  A    between atoms: C_1  and  C_2
REMARK    2  A    between atoms: C_2  and  O_3
REMARK    3  A    between atoms: O_3  and  C_4
REMARK    4  A    between atoms: C_7  and  C_8
REMARK    5  A    between atoms: C_11  and  S_12
REMARK    6  A    between atoms: S_12  and  C_13
REMARK    7  A    between atoms: C_13  and  C_14
REMARK    8  A    between atoms: N_16  and  C_17
REMARK    9  A    between atoms: C_22  and  C_23
REMARK   10  A    between atoms: N_25  and  C_26
REMARK   11  A    between atoms: C_26  and  C_27
REMARK                            x       y       z     vdW  Elec       q    Type
REMARK                         _______ _______ _______ _____ _____    ______ ____
ROOT
ATOM      1  C   UNL     1       2.389   6.845  18.723  0.00  0.00    +0.000 C 
ATOM      2  O   UNL     1       2.203   6.146  17.729  0.00  0.00    +0.000 OA
ATOM      3  N   UNL     1       2.924   6.366  19.919  0.00  0.00    +0.000 N 
ATOM      4  H   UNL     1       2.500   6.824  20.720  0.00  0.00    +0.000 HD
ENDROOT
BRANCH   3   5
ATOM      5  C   UNL     1       3.123   4.968  20.085  0.00  0.00    +0.000 A 
ATOM      6  C   UNL     1       2.237   4.305  20.945  0.00  0.00    +0.000 A 
ATOM      7  C   UNL     1       2.381   2.944  21.226  0.00  0.00    +0.000 A 
ATOM      8  C   UNL     1       3.437   2.229  20.673  0.00  0.00    +0.000 A 
ATOM      9  C   UNL     1       4.345   2.881  19.842  0.00  0.00    +0.000 A 
ATOM     10  C   UNL     1       4.205   4.249  19.538  0.00  0.00    +0.000 A 
BRANCH  10  11
ATOM     11  C   UNL     1       5.347   4.855  18.801  0.00  0.00    +0.000 C 
ATOM     12  O   UNL     1       6.359   5.173  19.421  0.00  0.00    +0.000 OA
ATOM     13  N   UNL     1       5.219   5.011  17.444  0.00  0.00    +0.000 N 
ATOM     14  H   UNL     1       4.488   4.494  16.970  0.00  0.00    +0.000 HD
BRANCH  13  15
ATOM     15  C   UNL     1       6.278   5.600  16.658  0.00  0.00    +0.000 C 
BRANCH  15  16
ATOM     16  C   UNL     1       6.360   5.004  15.279  0.00  0.00    +0.000 A 
ATOM     17  C   UNL     1       5.381   4.109  14.825  0.00  0.00    +0.000 A 
ATOM     18  C   UNL     1       5.441   3.592  13.529  0.00  0.00    +0.000 A 
ATOM     19  C   UNL     1       6.484   3.957  12.679  0.00  0.00    +0.000 A 
ATOM     20  C   UNL     1       7.477   4.823  13.129  0.00  0.00    +0.000 A 
ATOM     21  C   UNL     1       7.418   5.342  14.420  0.00  0.00    +0.000 A 
ENDBRANCH  15  16
ENDBRANCH  13  15
ENDBRANCH  10  11
ENDBRANCH   3   5
BRANCH   1  22
ATOM     22  C   UNL     1       2.149   8.346  18.706  0.00  0.00    +0.000 C 
BRANCH  22  23
ATOM     23  S   UNL     1       1.314   8.932  20.212  0.00  0.00    +0.000 S 
BRANCH  23  27
ATOM     24  C   UNL     1      -1.400  11.210  18.708  0.00  0.00    +0.000 A 
ATOM     25  N   UNL     1      -0.343  11.973  18.510  0.00  0.00    +0.000 NA
ATOM     26  N   UNL     1       0.738  11.295  19.022  0.00  0.00    +0.000 NA
ATOM     27  C   UNL     1       0.283  10.154  19.499  0.00  0.00    +0.000 A 
ATOM     28  O   UNL     1      -1.081  10.037  19.356  0.00  0.00    +0.000 OA
BRANCH  24  32
ATOM     29  C   UNL     1      -5.417  12.010  17.424  0.00  0.00    +0.000 A 
ATOM     30  C   UNL     1      -5.026  12.215  18.746  0.00  0.00    +0.000 A 
ATOM     31  C   UNL     1      -3.719  11.926  19.151  0.00  0.00    +0.000 A 
ATOM     32  C   UNL     1      -2.772  11.416  18.247  0.00  0.00    +0.000 A 
ATOM     33  C   UNL     1      -3.190  11.157  16.934  0.00  0.00    +0.000 A 
ATOM     34  C   UNL     1      -4.505  11.452  16.525  0.00  0.00    +0.000 A 
BRANCH  29  35
ATOM     35  O   UNL     1      -6.710  12.346  17.139  0.00  0.00    +0.000 OA
BRANCH  35  37
ATOM     36  C   UNL     1      -7.542  14.529  17.626  0.00  0.00    +0.000 C 
ATOM     37  C   UNL     1      -7.389  13.106  18.140  0.00  0.00    +0.000 C 
ENDBRANCH  35  37
ENDBRANCH  29  35
ENDBRANCH  24  32
ENDBRANCH  23  27
ENDBRANCH  22  23
ENDBRANCH   1  22
TORSDOF 10
ENDMDL
MODEL 7
REMARK VINA RESULT:      -8.0      1.400      1.860
REMARK  Name = 
REMARK  11 active torsions:
REMARK  status: ('A' for Active; 'I' for Inactive)
REMARK    1  A    between atoms: C_1  and  C_2
REMARK    2  A    between atoms: C_2  and  O_3
REMARK    3  A    between atoms: O_3  and  C_4
REMARK    4  A    between atoms: C_7  and  C_8
REMARK    5  A    between atoms: C_11  and  S_12
REMARK    6  A    between atoms: S_12  and  C_13
REMARK    7  A    between atoms: C_13  and  C_14
REMARK    8  A    between atoms: N_16  and  C_17
REMARK    9  A    between atoms: C_22  and  C_23
REMARK   10  A    between atoms: N_25  and  C_26
REMARK   11  A    between atoms: C_26  and  C_27
REMARK                            x       y       z     vdW  Elec       q    Type
REMARK                         _______ _______ _______ _____ _____    ______ ____
ROOT
ATOM      1  C   UNL     1       5.596   4.760  18.730  0.00  0.00    +0.000 C 
ATOM      2  O   UNL     1       5.625   5.614  19.614  0.00  0.00    +0.000 OA
ATOM      3  N   UNL     1       4.586   3.806  18.604  0.00  0.00    +0.000 N 
ATOM      4  H   UNL     1       4.957   2.920  18.274  0.00  0.00    +0.000 HD
ENDROOT
BRANCH   3   5
ATOM      5  C   UNL     1       3.611   3.682  19.632  0.00  0.00    +0.000 A 
ATOM      6  C   UNL     1       3.695   2.543  20.444  0.00  0.00    +0.000 A 
ATOM      7  C   UNL     1       2.750   2.294  21.443  0.00  0.00    +0.000 A 
ATOM      8  C   UNL     1       1.684   3.168  21.624  0.00  0.00    +0.000 A 
ATOM      9  C   UNL     1       1.569   4.287  20.803  0.00  0.00    +0.000 A 
ATOM     10  C   UNL     1       2.521   4.559  19.801  0.00  0.00    +0.000 A 
BRANCH  10  11
ATOM     11  C   UNL     1       2.170   5.673  18.879  0.00  0.00    +0.000 C 
ATOM     12  O   UNL     1       1.443   5.447  17.915  0.00  0.00    +0.000 OA
ATOM     13  N   UNL     1       2.665   6.919  19.168  0.00  0.00    +0.000 N 
ATOM     14  H   UNL     1       3.025   7.088  20.100  0.00  0.00    +0.000 HD
BRANCH  13  15
ATOM     15  C   UNL     1       2.379   8.051  18.317  0.00  0.00    +0.000 C 
BRANCH  15  16
ATOM     16  C   UNL     1       1.334   8.957  18.908  0.00  0.00    +0.000 A 
ATOM     17  C   UNL     1       0.522   9.749  18.084  0.00  0.00    +0.000 A 
ATOM     18  C   UNL     1      -0.475  10.555  18.638  0.00  0.00    +0.000 A 
ATOM     19  C   UNL     1      -0.663  10.584  20.018  0.00  0.00    +0.000 A 
ATOM     20  C   UNL     1       0.156   9.823  20.848  0.00  0.00    +0.000 A 
ATOM     21  C   UNL     1       1.149   9.016  20.299  0.00  0.00    +0.000 A 
ENDBRANCH  15  16
ENDBRANCH  13  15
ENDBRANCH  10  11
ENDBRANCH   3   5
BRANCH   1  22
ATOM     22  C   UNL     1       6.621   4.732  17.608  0.00  0.00    +0.000 C 
BRANCH  22  23
ATOM     23  S   UNL     1       6.601   6.254  16.612  0.00  0.00    +0.000 S 
BRANCH  23  27
ATOM     24  C   UNL     1       8.444   8.994  18.588  0.00  0.00    +0.000 A 
ATOM     25  N   UNL     1       8.875   7.931  19.239  0.00  0.00    +0.000 NA
ATOM     26  N   UNL     1       8.279   6.839  18.655  0.00  0.00    +0.000 NA
ATOM     27  C   UNL     1       7.523   7.293  17.677  0.00  0.00    +0.000 A 
ATOM     28  O   UNL     1       7.558   8.667  17.587  0.00  0.00    +0.000 OA
BRANCH  24  32
ATOM     29  C   UNL     1       9.492  13.140  18.959  0.00  0.00    +0.000 A 
ATOM     30  C   UNL     1       9.051  12.612  17.748  0.00  0.00    +0.000 A 
ATOM     31  C   UNL     1       8.737  11.253  17.640  0.00  0.00    +0.000 A 
ATOM     32  C   UNL     1       8.864  10.386  18.739  0.00  0.00    +0.000 A 
ATOM     33  C   UNL     1       9.365  10.915  19.937  0.00  0.00    +0.000 A 
ATOM     34  C   UNL     1       9.678  12.283  20.047  0.00  0.00    +0.000 A 
BRANCH  29  35
ATOM     35  O   UNL     1       9.750  14.482  18.952  0.00  0.00    +0.000 OA
BRANCH  35  37
ATOM     36  C   UNL     1      10.028  16.183  17.301  0.00  0.00    +0.000 C 
ATOM     37  C   UNL     1      10.636  14.938  17.928  0.00  0.00    +0.000 C 
ENDBRANCH  35  37
ENDBRANCH  29  35
ENDBRANCH  24  32
ENDBRANCH  23  27
ENDBRANCH  22  23
ENDBRANCH   1  22
TORSDOF 10
ENDMDL
MODEL 8
REMARK VINA RESULT:      -7.8      4.651      9.385
REMARK  Name = 
REMARK  11 active torsions:
REMARK  status: ('A' for Active; 'I' for Inactive)
REMARK    1  A    between atoms: C_1  and  C_2
REMARK    2  A    between atoms: C_2  and  O_3
REMARK    3  A    between atoms: O_3  and  C_4
REMARK    4  A    between atoms: C_7  and  C_8
REMARK    5  A    between atoms: C_11  and  S_12
REMARK    6  A    between atoms: S_12  and  C_13
REMARK    7  A    between atoms: C_13  and  C_14
REMARK    8  A    between atoms: N_16  and  C_17
REMARK    9  A    between atoms: C_22  and  C_23
REMARK   10  A    between atoms: N_25  and  C_26
REMARK   11  A    between atoms: C_26  and  C_27
REMARK                            x       y       z     vdW  Elec       q    Type
REMARK                         _______ _______ _______ _____ _____    ______ ____
ROOT
ATOM      1  C   UNL     1       3.271   6.381  17.840  0.00  0.00    +0.000 C 
ATOM      2  O   UNL     1       2.754   5.311  17.524  0.00  0.00    +0.000 OA
ATOM      3  N   UNL     1       4.494   6.829  17.344  0.00  0.00    +0.000 N 
ATOM      4  H   UNL     1       5.013   7.340  18.053  0.00  0.00    +0.000 HD
ENDROOT
BRANCH   3   5
ATOM      5  C   UNL     1       5.291   5.954  16.555  0.00  0.00    +0.000 A 
ATOM      6  C   UNL     1       5.429   6.281  15.199  0.00  0.00    +0.000 A 
ATOM      7  C   UNL     1       6.139   5.455  14.324  0.00  0.00    +0.000 A 
ATOM      8  C   UNL     1       6.697   4.270  14.786  0.00  0.00    +0.000 A 
ATOM      9  C   UNL     1       6.540   3.915  16.124  0.00  0.00    +0.000 A 
ATOM     10  C   UNL     1       5.839   4.743  17.022  0.00  0.00    +0.000 A 
BRANCH  10  11
ATOM     11  C   UNL     1       5.585   4.151  18.363  0.00  0.00    +0.000 C 
ATOM     12  O   UNL     1       5.987   4.739  19.364  0.00  0.00    +0.000 OA
ATOM     13  N   UNL     1       4.886   2.972  18.417  0.00  0.00    +0.000 N 
ATOM     14  H   UNL     1       4.364   2.687  17.597  0.00  0.00    +0.000 HD
BRANCH  13  15
ATOM     15  C   UNL     1       4.607   2.327  19.679  0.00  0.00    +0.000 C 
BRANCH  15  16
ATOM     16  C   UNL     1       3.175   2.506  20.104  0.00  0.00    +0.000 A 
ATOM     17  C   UNL     1       2.849   2.730  21.449  0.00  0.00    +0.000 A 
ATOM     18  C   UNL     1       1.521   2.937  21.829  0.00  0.00    +0.000 A 
ATOM     19  C   UNL     1       0.508   2.913  20.872  0.00  0.00    +0.000 A 
ATOM     20  C   UNL     1       0.818   2.664  19.538  0.00  0.00    +0.000 A 
ATOM     21  C   UNL     1       2.141   2.460  19.155  0.00  0.00    +0.000 A 
ENDBRANCH  15  16
ENDBRANCH  13  15
ENDBRANCH  10  11
ENDBRANCH   3   5
BRANCH   1  22
ATOM     22  C   UNL     1       2.559   7.382  18.736  0.00  0.00    +0.000 C 
BRANCH  22  23
ATOM     23  S   UNL     1       2.397   9.018  17.958  0.00  0.00    +0.000 S 
BRANCH  23  27
ATOM     24  C   UNL     1      -0.996  10.363  19.179  0.00  0.00    +0.000 A 
ATOM     25  N   UNL     1      -0.420  10.139  20.344  0.00  0.00    +0.000 NA
ATOM     26  N   UNL     1       0.826   9.625  20.079  0.00  0.00    +0.000 NA
ATOM     27  C   UNL     1       0.946   9.568  18.768  0.00  0.00    +0.000 A 
ATOM     28  O   UNL     1      -0.191  10.002  18.122  0.00  0.00    +0.000 OA
BRANCH  24  32
ATOM     29  C   UNL     1      -4.846  12.084  18.379  0.00  0.00    +0.000 A 
ATOM     30  C   UNL     1      -4.320  11.082  17.566  0.00  0.00    +0.000 A 
ATOM     31  C   UNL     1      -3.053  10.550  17.829  0.00  0.00    +0.000 A 
ATOM     32  C   UNL     1      -2.277  11.013  18.905  0.00  0.00    +0.000 A 
ATOM     33  C   UNL     1      -2.790  12.062  19.681  0.00  0.00    +0.000 A 
ATOM     34  C   UNL     1      -4.066  12.595  19.419  0.00  0.00    +0.000 A 
BRANCH  29  35
ATOM     35  O   UNL     1      -6.099  12.513  18.040  0.00  0.00    +0.000 OA
BRANCH  35  37
ATOM     36  C   UNL     1      -7.606  12.249  19.871  0.00  0.00    +0.000 C 
ATOM     37  C   UNL     1      -7.180  11.709  18.515  0.00  0.00    +0.000 C 
ENDBRANCH  35  37
ENDBRANCH  29  35
ENDBRANCH  24  32
ENDBRANCH  23  27
ENDBRANCH  22  23
ENDBRANCH   1  22
TORSDOF 10
ENDMDL
MODEL 9
REMARK VINA RESULT:      -7.8      3.556      9.690
REMARK  Name = 
REMARK  11 active torsions:
REMARK  status: ('A' for Active; 'I' for Inactive)
REMARK    1  A    between atoms: C_1  and  C_2
REMARK    2  A    between atoms: C_2  and  O_3
REMARK    3  A    between atoms: O_3  and  C_4
REMARK    4  A    between atoms: C_7  and  C_8
REMARK    5  A    between atoms: C_11  and  S_12
REMARK    6  A    between atoms: S_12  and  C_13
REMARK    7  A    between atoms: C_13  and  C_14
REMARK    8  A    between atoms: N_16  and  C_17
REMARK    9  A    between atoms: C_22  and  C_23
REMARK   10  A    between atoms: N_25  and  C_26
REMARK   11  A    between atoms: C_26  and  C_27
REMARK                            x       y       z     vdW  Elec       q    Type
REMARK                         _______ _______ _______ _____ _____    ______ ____
ROOT
ATOM      1  C   UNL     1       9.054  10.939  18.301  0.00  0.00    +0.000 C 
ATOM      2  O   UNL     1       9.915  10.760  19.160  0.00  0.00    +0.000 OA
ATOM      3  N   UNL     1       8.969  12.088  17.515  0.00  0.00    +0.000 N 
ATOM      4  H   UNL     1       8.001  12.334  17.328  0.00  0.00    +0.000 HD
ENDROOT
BRANCH   3   5
ATOM      5  C   UNL     1       9.806  13.199  17.809  0.00  0.00    +0.000 A 
ATOM      6  C   UNL     1      11.116  13.147  17.312  0.00  0.00    +0.000 A 
ATOM      7  C   UNL     1      12.039  14.157  17.595  0.00  0.00    +0.000 A 
ATOM      8  C   UNL     1      11.673  15.223  18.408  0.00  0.00    +0.000 A 
ATOM      9  C   UNL     1      10.385  15.272  18.936  0.00  0.00    +0.000 A 
ATOM     10  C   UNL     1       9.439  14.269  18.648  0.00  0.00    +0.000 A 
BRANCH  10  11
ATOM     11  C   UNL     1       8.175  14.347  19.430  0.00  0.00    +0.000 C 
ATOM     12  O   UNL     1       7.107  14.445  18.833  0.00  0.00    +0.000 OA
ATOM     13  N   UNL     1       8.267  14.285  20.797  0.00  0.00    +0.000 N 
ATOM     14  H   UNL     1       9.129  13.942  21.204  0.00  0.00    +0.000 HD
BRANCH  13  15
ATOM     15  C   UNL     1       7.088  14.364  21.628  0.00  0.00    +0.000 C 
BRANCH  15  16
ATOM     16  C   UNL     1       7.200  13.502  22.856  0.00  0.00    +0.000 A 
ATOM     17  C   UNL     1       6.513  13.837  24.032  0.00  0.00    +0.000 A 
ATOM     18  C   UNL     1       6.588  13.010  25.155  0.00  0.00    +0.000 A 
ATOM     19  C   UNL     1       7.355  11.847  25.116  0.00  0.00    +0.000 A 
ATOM     20  C   UNL     1       8.063  11.520  23.963  0.00  0.00    +0.000 A 
ATOM     21  C   UNL     1       7.989  12.341  22.840  0.00  0.00    +0.000 A 
ENDBRANCH  15  16
ENDBRANCH  13  15
ENDBRANCH  10  11
ENDBRANCH   3   5
BRANCH   1  22
ATOM     22  C   UNL     1       8.048   9.859  17.936  0.00  0.00    +0.000 C 
BRANCH  22  23
ATOM     23  S   UNL     1       8.562   8.210  18.507  0.00  0.00    +0.000 S 
BRANCH  23  27
ATOM     24  C   UNL     1       5.655   6.120  17.097  0.00  0.00    +0.000 A 
ATOM     25  N   UNL     1       6.516   5.989  16.107  0.00  0.00    +0.000 NA
ATOM     26  N   UNL     1       7.632   6.712  16.452  0.00  0.00    +0.000 NA
ATOM     27  C   UNL     1       7.395   7.239  17.636  0.00  0.00    +0.000 A 
ATOM     28  O   UNL     1       6.139   6.924  18.105  0.00  0.00    +0.000 OA
BRANCH  24  32
ATOM     29  C   UNL     1       1.963   4.023  17.729  0.00  0.00    +0.000 A 
ATOM     30  C   UNL     1       3.062   3.392  17.150  0.00  0.00    +0.000 A 
ATOM     31  C   UNL     1       4.250   4.099  16.930  0.00  0.00    +0.000 A 
ATOM     32  C   UNL     1       4.365   5.456  17.276  0.00  0.00    +0.000 A 
ATOM     33  C   UNL     1       3.235   6.097  17.804  0.00  0.00    +0.000 A 
ATOM     34  C   UNL     1       2.041   5.385  18.028  0.00  0.00    +0.000 A 
BRANCH  29  35
ATOM     35  O   UNL     1       0.866   3.230  17.915  0.00  0.00    +0.000 OA
BRANCH  35  37
ATOM     36  C   UNL     1       1.018   3.017  20.287  0.00  0.00    +0.000 C 
ATOM     37  C   UNL     1       0.966   2.267  18.966  0.00  0.00    +0.000 C 
ENDBRANCH  35  37
ENDBRANCH  29  35
ENDBRANCH  24  32
ENDBRANCH  23  27
ENDBRANCH  22  23
ENDBRANCH   1  22
TORSDOF 10
ENDMDL
