MODEL 1
REMARK VINA RESULT:      -6.7      0.000      0.000
REMARK  Name = 
REMARK  4 active torsions:
REMARK  status: ('A' for Active; 'I' for Inactive)
REMARK    1  A    between atoms: C_1  and  C_2
REMARK    2  A    between atoms: C_2  and  N_3
REMARK    3  A    between atoms: C_7  and  C_9
REMARK    4  A    between atoms: C_10  and  C_11
REMARK                            x       y       z     vdW  Elec       q    Type
REMARK                         _______ _______ _______ _____ _____    ______ ____
ROOT
ATOM      1  N   UNL     1      -0.607   9.756  21.363  0.00  0.00    +0.000 NA
ATOM      2  C   UNL     1      -0.579  10.223  19.954  0.00  0.00    +0.000 C 
ATOM      3  C   UNL     1       0.808  10.164  19.280  0.00  0.00    +0.000 C 
ATOM      4  N   UNL     1       1.411   8.835  19.407  0.00  0.00    +0.000 N 
ATOM      5  C   UNL     1       2.199   8.377  18.364  0.00  0.00    +0.000 C 
ATOM      6  O   UNL     1       2.417   9.032  17.347  0.00  0.00    +0.000 OA
ATOM      7  C   UNL     1       1.414   8.311  20.780  0.00  0.00    +0.000 C 
ATOM      8  C   UNL     1       0.025   8.423  21.437  0.00  0.00    +0.000 C 
ENDROOT
BRANCH   1  10
ATOM      9  C   UNL     1      -0.892  12.009  22.450  0.00  0.00    +0.000 C 
ATOM     10  C   UNL     1      -0.027  10.767  22.258  0.00  0.00    +0.000 C 
ENDBRANCH   1  10
BRANCH   5  11
ATOM     11  C   UNL     1       2.759   7.007  18.495  0.00  0.00    +0.000 C 
ATOM     12  C   UNL     1       2.063   5.951  18.044  0.00  0.00    +0.000 C 
BRANCH  12  13
ATOM     13  C   UNL     1       2.595   4.595  18.177  0.00  0.00    +0.000 A 
ATOM     14  C   UNL     1       1.961   3.521  17.539  0.00  0.00    +0.000 A 
ATOM     15  C   UNL     1       2.454   2.225  17.698  0.00  0.00    +0.000 A 
ATOM     16  C   UNL     1       3.574   2.009  18.494  0.00  0.00    +0.000 A 
ATOM     17  F   UNL     1       4.044   0.764  18.651  0.00  0.00    +0.000 F 
ATOM     18  C   UNL     1       4.214   3.066  19.132  0.00  0.00    +0.000 A 
ATOM     19  C   UNL     1       3.723   4.363  18.973  0.00  0.00    +0.000 A 
ENDBRANCH  12  13
ENDBRANCH   5  11
TORSDOF 3
ENDMDL
MODEL 2
REMARK VINA RESULT:      -6.6      0.401      1.180
REMARK  Name = 
REMARK  4 active torsions:
REMARK  status: ('A' for Active; 'I' for Inactive)
REMARK    1  A    between atoms: C_1  and  C_2
REMARK    2  A    between atoms: C_2  and  N_3
REMARK    3  A    between atoms: C_7  and  C_9
REMARK    4  A    between atoms: C_10  and  C_11
REMARK                            x       y       z     vdW  Elec       q    Type
REMARK                         _______ _______ _______ _____ _____    ______ ____
ROOT
ATOM      1  N   UNL     1      -0.752  10.330  20.978  0.00  0.00    +0.000 NA
ATOM      2  C   UNL     1      -0.594  10.648  19.537  0.00  0.00    +0.000 C 
ATOM      3  C   UNL     1       0.828  10.425  18.977  0.00  0.00    +0.000 C 
ATOM      4  N   UNL     1       1.317   9.077  19.277  0.00  0.00    +0.000 N 
ATOM      5  C   UNL     1       2.137   8.462  18.345  0.00  0.00    +0.000 C 
ATOM      6  O   UNL     1       2.473   8.994  17.288  0.00  0.00    +0.000 OA
ATOM      7  C   UNL     1       1.187   8.696  20.690  0.00  0.00    +0.000 C 
ATOM      8  C   UNL     1      -0.231   8.970  21.226  0.00  0.00    +0.000 C 
ENDROOT
BRANCH   1  10
ATOM      9  C   UNL     1      -1.052  11.862  22.953  0.00  0.00    +0.000 C 
ATOM     10  C   UNL     1      -0.159  11.383  21.813  0.00  0.00    +0.000 C 
ENDBRANCH   1  10
BRANCH   5  11
ATOM     11  C   UNL     1       2.580   7.077  18.649  0.00  0.00    +0.000 C 
ATOM     12  C   UNL     1       2.328   6.085  17.779  0.00  0.00    +0.000 C 
BRANCH  12  13
ATOM     13  C   UNL     1       2.747   4.715  18.069  0.00  0.00    +0.000 A 
ATOM     14  C   UNL     1       3.891   4.473  18.840  0.00  0.00    +0.000 A 
ATOM     15  C   UNL     1       4.305   3.162  19.085  0.00  0.00    +0.000 A 
ATOM     16  C   UNL     1       3.575   2.102  18.556  0.00  0.00    +0.000 A 
ATOM     17  F   UNL     1       3.975   0.845  18.786  0.00  0.00    +0.000 F 
ATOM     18  C   UNL     1       2.437   2.328  17.791  0.00  0.00    +0.000 A 
ATOM     19  C   UNL     1       2.021   3.637  17.546  0.00  0.00    +0.000 A 
ENDBRANCH  12  13
ENDBRANCH   5  11
TORSDOF 3
ENDMDL
MODEL 3
REMARK VINA RESULT:      -6.6      4.936      6.593
REMARK  Name = 
REMARK  4 active torsions:
REMARK  status: ('A' for Active; 'I' for Inactive)
REMARK    1  A    between atoms: C_1  and  C_2
REMARK    2  A    between atoms: C_2  and  N_3
REMARK    3  A    between atoms: C_7  and  C_9
REMARK    4  A    between atoms: C_10  and  C_11
REMARK                            x       y       z     vdW  Elec       q    Type
REMARK                         _______ _______ _______ _____ _____    ______ ____
ROOT
ATOM      1  N   UNL     1       1.453   3.362  19.173  0.00  0.00    +0.000 NA
ATOM      2  C   UNL     1       2.044   4.602  19.735  0.00  0.00    +0.000 C 
ATOM      3  C   UNL     1       3.584   4.593  19.843  0.00  0.00    +0.000 C 
ATOM      4  N   UNL     1       4.210   4.242  18.566  0.00  0.00    +0.000 N 
ATOM      5  C   UNL     1       5.420   4.838  18.251  0.00  0.00    +0.000 C 
ATOM      6  O   UNL     1       5.989   5.639  18.990  0.00  0.00    +0.000 OA
ATOM      7  C   UNL     1       3.668   3.021  17.953  0.00  0.00    +0.000 C 
ATOM      8  C   UNL     1       2.128   3.046  17.898  0.00  0.00    +0.000 C 
ENDROOT
BRANCH   1  10
ATOM      9  C   UNL     1       1.305   2.748  21.611  0.00  0.00    +0.000 C 
ATOM     10  C   UNL     1       1.468   2.281  20.168  0.00  0.00    +0.000 C 
ENDBRANCH   1  10
BRANCH   5  11
ATOM     11  C   UNL     1       6.010   4.503  16.929  0.00  0.00    +0.000 C 
ATOM     12  C   UNL     1       5.445   4.969  15.804  0.00  0.00    +0.000 C 
BRANCH  12  13
ATOM     13  C   UNL     1       6.007   4.638  14.495  0.00  0.00    +0.000 A 
ATOM     14  C   UNL     1       5.355   3.726  13.655  0.00  0.00    +0.000 A 
ATOM     15  C   UNL     1       5.915   3.389  12.421  0.00  0.00    +0.000 A 
ATOM     16  C   UNL     1       7.122   3.962  12.035  0.00  0.00    +0.000 A 
ATOM     17  F   UNL     1       7.662   3.633  10.854  0.00  0.00    +0.000 F 
ATOM     18  C   UNL     1       7.779   4.869  12.859  0.00  0.00    +0.000 A 
ATOM     19  C   UNL     1       7.221   5.208  14.091  0.00  0.00    +0.000 A 
ENDBRANCH  12  13
ENDBRANCH   5  11
TORSDOF 3
ENDMDL
MODEL 4
REMARK VINA RESULT:      -6.5      4.941      6.551
REMARK  Name = 
REMARK  4 active torsions:
REMARK  status: ('A' for Active; 'I' for Inactive)
REMARK    1  A    between atoms: C_1  and  C_2
REMARK    2  A    between atoms: C_2  and  N_3
REMARK    3  A    between atoms: C_7  and  C_9
REMARK    4  A    between atoms: C_10  and  C_11
REMARK                            x       y       z     vdW  Elec       q    Type
REMARK                         _______ _______ _______ _____ _____    ______ ____
ROOT
ATOM      1  N   UNL     1       1.235   3.928  19.445  0.00  0.00    +0.000 NA
ATOM      2  C   UNL     1       2.081   4.884  20.201  0.00  0.00    +0.000 C 
ATOM      3  C   UNL     1       3.601   4.712  19.989  0.00  0.00    +0.000 C 
ATOM      4  N   UNL     1       3.948   4.711  18.566  0.00  0.00    +0.000 N 
ATOM      5  C   UNL     1       5.160   5.269  18.193  0.00  0.00    +0.000 C 
ATOM      6  O   UNL     1       5.952   5.756  18.997  0.00  0.00    +0.000 OA
ATOM      7  C   UNL     1       3.143   3.784  17.758  0.00  0.00    +0.000 C 
ATOM      8  C   UNL     1       1.635   3.956  18.024  0.00  0.00    +0.000 C 
ENDROOT
BRANCH   1  10
ATOM      9  C   UNL     1       1.376   2.621  21.593  0.00  0.00    +0.000 C 
ATOM     10  C   UNL     1       1.264   2.599  20.071  0.00  0.00    +0.000 C 
ENDBRANCH   1  10
BRANCH   5  11
ATOM     11  C   UNL     1       5.466   5.300  16.740  0.00  0.00    +0.000 C 
ATOM     12  C   UNL     1       6.257   4.359  16.200  0.00  0.00    +0.000 C 
BRANCH  12  13
ATOM     13  C   UNL     1       6.578   4.384  14.773  0.00  0.00    +0.000 A 
ATOM     14  C   UNL     1       7.609   5.201  14.294  0.00  0.00    +0.000 A 
ATOM     15  C   UNL     1       7.887   5.246  12.927  0.00  0.00    +0.000 A 
ATOM     16  C   UNL     1       7.133   4.476  12.047  0.00  0.00    +0.000 A 
ATOM     17  F   UNL     1       7.396   4.524  10.735  0.00  0.00    +0.000 F 
ATOM     18  C   UNL     1       6.107   3.660  12.509  0.00  0.00    +0.000 A 
ATOM     19  C   UNL     1       5.828   3.613  13.875  0.00  0.00    +0.000 A 
ENDBRANCH  12  13
ENDBRANCH   5  11
TORSDOF 3
ENDMDL
MODEL 5
REMARK VINA RESULT:      -6.4      3.758      7.822
REMARK  Name = 
REMARK  4 active torsions:
REMARK  status: ('A' for Active; 'I' for Inactive)
REMARK    1  A    between atoms: C_1  and  C_2
REMARK    2  A    between atoms: C_2  and  N_3
REMARK    3  A    between atoms: C_7  and  C_9
REMARK    4  A    between atoms: C_10  and  C_11
REMARK                            x       y       z     vdW  Elec       q    Type
REMARK                         _______ _______ _______ _____ _____    ______ ____
ROOT
ATOM      1  N   UNL     1       3.195   3.195  20.209  0.00  0.00    +0.000 NA
ATOM      2  C   UNL     1       4.043   4.066  19.358  0.00  0.00    +0.000 C 
ATOM      3  C   UNL     1       3.288   5.211  18.650  0.00  0.00    +0.000 C 
ATOM      4  N   UNL     1       2.503   6.004  19.598  0.00  0.00    +0.000 N 
ATOM      5  C   UNL     1       2.373   7.363  19.358  0.00  0.00    +0.000 C 
ATOM      6  O   UNL     1       2.880   7.926  18.390  0.00  0.00    +0.000 OA
ATOM      7  C   UNL     1       1.640   5.201  20.475  0.00  0.00    +0.000 C 
ATOM      8  C   UNL     1       2.416   4.043  21.133  0.00  0.00    +0.000 C 
ENDROOT
BRANCH   1  10
ATOM      9  C   UNL     1       3.199   1.495  18.351  0.00  0.00    +0.000 C 
ATOM     10  C   UNL     1       2.395   2.280  19.383  0.00  0.00    +0.000 C 
ENDBRANCH   1  10
BRANCH   5  11
ATOM     11  C   UNL     1       1.614   8.153  20.361  0.00  0.00    +0.000 C 
ATOM     12  C   UNL     1       0.873   9.202  19.968  0.00  0.00    +0.000 C 
BRANCH  12  13
ATOM     13  C   UNL     1       0.129   9.997  20.945  0.00  0.00    +0.000 A 
ATOM     14  C   UNL     1      -0.221  11.322  20.658  0.00  0.00    +0.000 A 
ATOM     15  C   UNL     1      -0.901  12.087  21.608  0.00  0.00    +0.000 A 
ATOM     16  C   UNL     1      -1.224  11.524  22.839  0.00  0.00    +0.000 A 
ATOM     17  F   UNL     1      -1.871  12.259  23.752  0.00  0.00    +0.000 F 
ATOM     18  C   UNL     1      -0.883  10.209  23.136  0.00  0.00    +0.000 A 
ATOM     19  C   UNL     1      -0.205   9.443  22.187  0.00  0.00    +0.000 A 
ENDBRANCH  12  13
ENDBRANCH   5  11
TORSDOF 3
ENDMDL
MODEL 6
REMARK VINA RESULT:      -6.3      5.973      8.319
REMARK  Name = 
REMARK  4 active torsions:
REMARK  status: ('A' for Active; 'I' for Inactive)
REMARK    1  A    between atoms: C_1  and  C_2
REMARK    2  A    between atoms: C_2  and  N_3
REMARK    3  A    between atoms: C_7  and  C_9
REMARK    4  A    between atoms: C_10  and  C_11
REMARK                            x       y       z     vdW  Elec       q    Type
REMARK                         _______ _______ _______ _____ _____    ______ ____
ROOT
ATOM      1  N   UNL     1       3.486   4.429  18.993  0.00  0.00    +0.000 NA
ATOM      2  C   UNL     1       4.686   3.762  18.431  0.00  0.00    +0.000 C 
ATOM      3  C   UNL     1       5.351   4.510  17.255  0.00  0.00    +0.000 C 
ATOM      4  N   UNL     1       5.635   5.905  17.598  0.00  0.00    +0.000 N 
ATOM      5  C   UNL     1       6.771   6.488  17.059  0.00  0.00    +0.000 C 
ATOM      6  O   UNL     1       7.542   5.893  16.310  0.00  0.00    +0.000 OA
ATOM      7  C   UNL     1       4.486   6.625  18.163  0.00  0.00    +0.000 C 
ATOM      8  C   UNL     1       3.822   5.833  19.306  0.00  0.00    +0.000 C 
ENDROOT
BRANCH   1  10
ATOM      9  C   UNL     1       1.170   3.476  18.727  0.00  0.00    +0.000 C 
ATOM     10  C   UNL     1       2.328   4.252  18.106  0.00  0.00    +0.000 C 
ENDBRANCH   1  10
BRANCH   5  11
ATOM     11  C   UNL     1       7.063   7.888  17.461  0.00  0.00    +0.000 C 
ATOM     12  C   UNL     1       8.290   8.221  17.892  0.00  0.00    +0.000 C 
BRANCH  12  13
ATOM     13  C   UNL     1       8.590   9.592  18.303  0.00  0.00    +0.000 A 
ATOM     14  C   UNL     1       9.167   9.846  19.554  0.00  0.00    +0.000 A 
ATOM     15  C   UNL     1       9.419  11.160  19.953  0.00  0.00    +0.000 A 
ATOM     16  C   UNL     1       9.091  12.211  19.103  0.00  0.00    +0.000 A 
ATOM     17  F   UNL     1       9.328  13.471  19.489  0.00  0.00    +0.000 F 
ATOM     18  C   UNL     1       8.520  11.973  17.858  0.00  0.00    +0.000 A 
ATOM     19  C   UNL     1       8.268  10.661  17.456  0.00  0.00    +0.000 A 
ENDBRANCH  12  13
ENDBRANCH   5  11
TORSDOF 3
ENDMDL
MODEL 7
REMARK VINA RESULT:      -6.3      6.114      8.441
REMARK  Name = 
REMARK  4 active torsions:
REMARK  status: ('A' for Active; 'I' for Inactive)
REMARK    1  A    between atoms: C_1  and  C_2
REMARK    2  A    between atoms: C_2  and  N_3
REMARK    3  A    between atoms: C_7  and  C_9
REMARK    4  A    between atoms: C_10  and  C_11
REMARK                            x       y       z     vdW  Elec       q    Type
REMARK                         _______ _______ _______ _____ _____    ______ ____
ROOT
ATOM      1  N   UNL     1       3.772   4.051  18.492  0.00  0.00    +0.000 NA
ATOM      2  C   UNL     1       4.876   3.604  17.607  0.00  0.00    +0.000 C 
ATOM      3  C   UNL     1       5.465   4.706  16.700  0.00  0.00    +0.000 C 
ATOM      4  N   UNL     1       5.854   5.887  17.474  0.00  0.00    +0.000 N 
ATOM      5  C   UNL     1       6.962   6.603  17.051  0.00  0.00    +0.000 C 
ATOM      6  O   UNL     1       7.626   6.297  16.063  0.00  0.00    +0.000 OA
ATOM      7  C   UNL     1       4.804   6.382  18.375  0.00  0.00    +0.000 C 
ATOM      8  C   UNL     1       4.211   5.249  19.235  0.00  0.00    +0.000 C 
ENDROOT
BRANCH   1  10
ATOM      9  C   UNL     1       1.291   3.629  18.405  0.00  0.00    +0.000 C 
ATOM     10  C   UNL     1       2.527   4.215  17.730  0.00  0.00    +0.000 C 
ENDBRANCH   1  10
BRANCH   5  11
ATOM     11  C   UNL     1       7.366   7.768  17.881  0.00  0.00    +0.000 C 
ATOM     12  C   UNL     1       8.197   8.695  17.378  0.00  0.00    +0.000 C 
BRANCH  12  13
ATOM     13  C   UNL     1       8.613   9.841  18.186  0.00  0.00    +0.000 A 
ATOM     14  C   UNL     1       8.530  11.139  17.667  0.00  0.00    +0.000 A 
ATOM     15  C   UNL     1       8.962  12.226  18.431  0.00  0.00    +0.000 A 
ATOM     16  C   UNL     1       9.474  12.008  19.706  0.00  0.00    +0.000 A 
ATOM     17  F   UNL     1       9.893  13.050  20.436  0.00  0.00    +0.000 F 
ATOM     18  C   UNL     1       9.560  10.725  20.233  0.00  0.00    +0.000 A 
ATOM     19  C   UNL     1       9.129   9.638  19.472  0.00  0.00    +0.000 A 
ENDBRANCH  12  13
ENDBRANCH   5  11
TORSDOF 3
ENDMDL
MODEL 8
REMARK VINA RESULT:      -6.2      2.840      3.386
REMARK  Name = 
REMARK  4 active torsions:
REMARK  status: ('A' for Active; 'I' for Inactive)
REMARK    1  A    between atoms: C_1  and  C_2
REMARK    2  A    between atoms: C_2  and  N_3
REMARK    3  A    between atoms: C_7  and  C_9
REMARK    4  A    between atoms: C_10  and  C_11
REMARK                            x       y       z     vdW  Elec       q    Type
REMARK                         _______ _______ _______ _____ _____    ______ ____
ROOT
ATOM      1  N   UNL     1       0.646  11.493  19.762  0.00  0.00    +0.000 NA
ATOM      2  C   UNL     1       0.916  10.634  20.942  0.00  0.00    +0.000 C 
ATOM      3  C   UNL     1       0.727   9.121  20.698  0.00  0.00    +0.000 C 
ATOM      4  N   UNL     1       1.484   8.667  19.529  0.00  0.00    +0.000 N 
ATOM      5  C   UNL     1       2.019   7.389  19.559  0.00  0.00    +0.000 C 
ATOM      6  O   UNL     1       1.883   6.625  20.512  0.00  0.00    +0.000 OA
ATOM      7  C   UNL     1       1.264   9.478  18.324  0.00  0.00    +0.000 C 
ATOM      8  C   UNL     1       1.420  10.984  18.613  0.00  0.00    +0.000 C 
ENDROOT
BRANCH   1  10
ATOM      9  C   UNL     1      -1.171  12.452  18.307  0.00  0.00    +0.000 C 
ATOM     10  C   UNL     1      -0.799  11.619  19.530  0.00  0.00    +0.000 C 
ENDBRANCH   1  10
BRANCH   5  11
ATOM     11  C   UNL     1       2.824   6.970  18.383  0.00  0.00    +0.000 C 
ATOM     12  C   UNL     1       3.606   5.881  18.458  0.00  0.00    +0.000 C 
BRANCH  12  13
ATOM     13  C   UNL     1       4.414   5.463  17.313  0.00  0.00    +0.000 A 
ATOM     14  C   UNL     1       4.867   6.408  16.384  0.00  0.00    +0.000 A 
ATOM     15  C   UNL     1       5.609   5.997  15.275  0.00  0.00    +0.000 A 
ATOM     16  C   UNL     1       5.891   4.646  15.099  0.00  0.00    +0.000 A 
ATOM     17  F   UNL     1       6.598   4.252  14.032  0.00  0.00    +0.000 F 
ATOM     18  C   UNL     1       5.448   3.698  16.014  0.00  0.00    +0.000 A 
ATOM     19  C   UNL     1       4.708   4.106  17.124  0.00  0.00    +0.000 A 
ENDBRANCH  12  13
ENDBRANCH   5  11
TORSDOF 3
ENDMDL
MODEL 9
REMARK VINA RESULT:      -6.1      1.451      1.965
REMARK  Name = 
REMARK  4 active torsions:
REMARK  status: ('A' for Active; 'I' for Inactive)
REMARK    1  A    between atoms: C_1  and  C_2
REMARK    2  A    between atoms: C_2  and  N_3
REMARK    3  A    between atoms: C_7  and  C_9
REMARK    4  A    between atoms: C_10  and  C_11
REMARK                            x       y       z     vdW  Elec       q    Type
REMARK                         _______ _______ _______ _____ _____    ______ ____
ROOT
ATOM      1  N   UNL     1      -1.044  11.550  20.556  0.00  0.00    +0.000 NA
ATOM      2  C   UNL     1      -0.349  12.246  19.444  0.00  0.00    +0.000 C 
ATOM      3  C   UNL     1       1.070  11.721  19.138  0.00  0.00    +0.000 C 
ATOM      4  N   UNL     1       1.074  10.270  18.936  0.00  0.00    +0.000 N 
ATOM      5  C   UNL     1       1.966   9.745  18.016  0.00  0.00    +0.000 C 
ATOM      6  O   UNL     1       2.751  10.435  17.370  0.00  0.00    +0.000 OA
ATOM      7  C   UNL     1       0.398   9.519  20.003  0.00  0.00    +0.000 C 
ATOM      8  C   UNL     1      -0.998  10.095  20.311  0.00  0.00    +0.000 C 
ENDROOT
BRANCH   1  10
ATOM      9  C   UNL     1      -1.191  11.342  23.061  0.00  0.00    +0.000 C 
ATOM     10  C   UNL     1      -0.506  11.978  21.855  0.00  0.00    +0.000 C 
ENDBRANCH   1  10
BRANCH   5  11
ATOM     11  C   UNL     1       1.916   8.277  17.793  0.00  0.00    +0.000 C 
ATOM     12  C   UNL     1       2.959   7.508  18.145  0.00  0.00    +0.000 C 
BRANCH  12  13
ATOM     13  C   UNL     1       2.930   6.063  17.922  0.00  0.00    +0.000 A 
ATOM     14  C   UNL     1       4.059   5.402  17.421  0.00  0.00    +0.000 A 
ATOM     15  C   UNL     1       4.013   4.028  17.178  0.00  0.00    +0.000 A 
ATOM     16  C   UNL     1       2.840   3.324  17.433  0.00  0.00    +0.000 A 
ATOM     17  F   UNL     1       2.795   2.007  17.194  0.00  0.00    +0.000 F 
ATOM     18  C   UNL     1       1.713   3.968  17.931  0.00  0.00    +0.000 A 
ATOM     19  C   UNL     1       1.757   5.340  18.176  0.00  0.00    +0.000 A 
ENDBRANCH  12  13
ENDBRANCH   5  11
TORSDOF 3
ENDMDL
