MODEL 1
REMARK VINA RESULT:      -7.2      0.000      0.000
REMARK  Name = 
REMARK  4 active torsions:
REMARK  status: ('A' for Active; 'I' for Inactive)
REMARK    1  A    between atoms: C_2  and  C_5
REMARK    2  A    between atoms: N_3  and  O_4
REMARK    3  A    between atoms: C_12  and  N_13
REMARK    4  A    between atoms: C_14  and  C_16
REMARK                            x       y       z     vdW  Elec       q    Type
REMARK                         _______ _______ _______ _____ _____    ______ ____
ROOT
ATOM      1  C   UNL     1       6.348   4.673  14.992  0.00  0.00    +0.000 A 
ATOM      2  C   UNL     1       6.910   4.588  16.242  0.00  0.00    +0.000 A 
ATOM      3  N   UNL     1       6.182   4.504  17.380  0.00  0.00    +0.000 NA
ATOM      4  C   UNL     1       4.840   4.450  17.266  0.00  0.00    +0.000 A 
ATOM      5  N   UNL     1       4.082   4.345  18.403  0.00  0.00    +0.000 N 
ATOM      6  C   UNL     1       4.585   4.967  19.622  0.00  0.00    +0.000 C 
ATOM      7  C   UNL     1       3.351   5.476  20.310  0.00  0.00    +0.000 C 
ATOM      8  C   UNL     1       2.459   6.513  19.662  0.00  0.00    +0.000 C 
ATOM      9  C   UNL     1       2.161   5.046  19.529  0.00  0.00    +0.000 C 
ATOM     10  C   UNL     1       2.625   4.307  18.311  0.00  0.00    +0.000 C 
ATOM     11  N   UNL     1       4.219   4.490  16.074  0.00  0.00    +0.000 NA
ATOM     12  C   UNL     1       4.978   4.611  14.965  0.00  0.00    +0.000 A 
ENDROOT
BRANCH   1  14
ATOM     13  O   UNL     1       8.150   5.501  13.738  0.00  0.00    +0.000 OA
ATOM     14  C   UNL     1       7.171   4.760  13.782  0.00  0.00    +0.000 C 
ATOM     15  N   UNL     1       6.772   3.997  12.708  0.00  0.00    +0.000 N 
ATOM     16  H   UNL     1       5.818   3.674  12.576  0.00  0.00    +0.000 HD
BRANCH  15  17
ATOM     17  O   UNL     1       7.531   4.173  11.528  0.00  0.00    +0.000 OA
ATOM     18  H   UNL     1       7.980   5.032  11.689  0.00  0.00    +0.000 HD
ENDBRANCH  15  17
ENDBRANCH   1  14
BRANCH   8  19
ATOM     19  N   UNL     1       1.674   7.368  20.487  0.00  0.00    +0.000 N 
ATOM     20  C   UNL     1       1.282   8.651  20.136  0.00  0.00    +0.000 C 
ATOM     21  O   UNL     1       1.542   9.143  19.037  0.00  0.00    +0.000 OA
ATOM     22  H   UNL     1       1.480   7.078  21.437  0.00  0.00    +0.000 HD
BRANCH  20  23
ATOM     23  C   UNL     1       0.543   9.366  21.175  0.00  0.00    +0.000 A 
ATOM     24  C   UNL     1       0.222   8.913  22.443  0.00  0.00    +0.000 A 
ATOM     25  C   UNL     1      -0.499   9.877  23.208  0.00  0.00    +0.000 A 
ATOM     26  C   UNL     1      -0.713  11.039  22.502  0.00  0.00    +0.000 A 
ATOM     27  S   UNL     1      -0.054  10.961  20.929  0.00  0.00    +0.000 S 
ENDBRANCH  20  23
ENDBRANCH   8  19
TORSDOF 4
ENDMDL
MODEL 2
REMARK VINA RESULT:      -7.1      5.562      7.782
REMARK  Name = 
REMARK  4 active torsions:
REMARK  status: ('A' for Active; 'I' for Inactive)
REMARK    1  A    between atoms: C_2  and  C_5
REMARK    2  A    between atoms: N_3  and  O_4
REMARK    3  A    between atoms: C_12  and  N_13
REMARK    4  A    between atoms: C_14  and  C_16
REMARK                            x       y       z     vdW  Elec       q    Type
REMARK                         _______ _______ _______ _____ _____    ______ ____
ROOT
ATOM      1  C   UNL     1       2.810   4.384  19.130  0.00  0.00    +0.000 A 
ATOM      2  C   UNL     1       3.209   4.377  17.816  0.00  0.00    +0.000 A 
ATOM      3  N   UNL     1       4.425   4.810  17.407  0.00  0.00    +0.000 NA
ATOM      4  C   UNL     1       5.298   5.217  18.350  0.00  0.00    +0.000 A 
ATOM      5  N   UNL     1       6.543   5.641  17.962  0.00  0.00    +0.000 N 
ATOM      6  C   UNL     1       6.671   6.291  16.663  0.00  0.00    +0.000 C 
ATOM      7  C   UNL     1       7.718   7.345  16.882  0.00  0.00    +0.000 C 
ATOM      8  C   UNL     1       7.510   8.465  17.878  0.00  0.00    +0.000 C 
ATOM      9  C   UNL     1       8.243   7.211  18.266  0.00  0.00    +0.000 C 
ATOM     10  C   UNL     1       7.501   6.110  18.959  0.00  0.00    +0.000 C 
ATOM     11  N   UNL     1       4.992   5.217  19.659  0.00  0.00    +0.000 NA
ATOM     12  C   UNL     1       3.757   4.813  20.024  0.00  0.00    +0.000 A 
ENDROOT
BRANCH   1  14
ATOM     13  O   UNL     1       0.879   4.437  20.461  0.00  0.00    +0.000 OA
ATOM     14  C   UNL     1       1.485   3.905  19.534  0.00  0.00    +0.000 C 
ATOM     15  N   UNL     1       0.982   2.825  18.844  0.00  0.00    +0.000 N 
ATOM     16  H   UNL     1       1.566   2.156  18.350  0.00  0.00    +0.000 HD
BRANCH  15  17
ATOM     17  O   UNL     1      -0.255   2.330  19.317  0.00  0.00    +0.000 OA
ATOM     18  H   UNL     1      -0.879   2.600  18.607  0.00  0.00    +0.000 HD
ENDBRANCH  15  17
ENDBRANCH   1  14
BRANCH   8  19
ATOM     19  N   UNL     1       8.188   9.702  17.684  0.00  0.00    +0.000 N 
ATOM     20  C   UNL     1       9.011  10.301  18.628  0.00  0.00    +0.000 C 
ATOM     21  O   UNL     1       9.267   9.772  19.710  0.00  0.00    +0.000 OA
ATOM     22  H   UNL     1       7.976  10.245  16.857  0.00  0.00    +0.000 HD
BRANCH  20  23
ATOM     23  C   UNL     1       9.539  11.606  18.231  0.00  0.00    +0.000 A 
ATOM     24  C   UNL     1       8.820  12.730  17.867  0.00  0.00    +0.000 A 
ATOM     25  C   UNL     1       9.657  13.842  17.550  0.00  0.00    +0.000 A 
ATOM     26  C   UNL     1      10.991  13.534  17.678  0.00  0.00    +0.000 A 
ATOM     27  S   UNL     1      11.230  11.917  18.170  0.00  0.00    +0.000 S 
ENDBRANCH  20  23
ENDBRANCH   8  19
TORSDOF 4
ENDMDL
MODEL 3
REMARK VINA RESULT:      -6.9      4.321      6.277
REMARK  Name = 
REMARK  4 active torsions:
REMARK  status: ('A' for Active; 'I' for Inactive)
REMARK    1  A    between atoms: C_2  and  C_5
REMARK    2  A    between atoms: N_3  and  O_4
REMARK    3  A    between atoms: C_12  and  N_13
REMARK    4  A    between atoms: C_14  and  C_16
REMARK                            x       y       z     vdW  Elec       q    Type
REMARK                         _______ _______ _______ _____ _____    ______ ____
ROOT
ATOM      1  C   UNL     1       2.835   4.975  19.358  0.00  0.00    +0.000 A 
ATOM      2  C   UNL     1       3.095   5.819  18.308  0.00  0.00    +0.000 A 
ATOM      3  N   UNL     1       2.713   7.118  18.287  0.00  0.00    +0.000 NA
ATOM      4  C   UNL     1       2.093   7.610  19.378  0.00  0.00    +0.000 A 
ATOM      5  N   UNL     1       1.715   8.928  19.387  0.00  0.00    +0.000 N 
ATOM      6  C   UNL     1       1.338   9.542  18.120  0.00  0.00    +0.000 C 
ATOM      7  C   UNL     1       0.227  10.483  18.484  0.00  0.00    +0.000 C 
ATOM      8  C   UNL     1      -1.064   9.978  19.091  0.00  0.00    +0.000 C 
ATOM      9  C   UNL     1       0.059  10.469  19.961  0.00  0.00    +0.000 C 
ATOM     10  C   UNL     1       1.021   9.481  20.547  0.00  0.00    +0.000 C 
ATOM     11  N   UNL     1       1.838   6.853  20.460  0.00  0.00    +0.000 NA
ATOM     12  C   UNL     1       2.201   5.554  20.428  0.00  0.00    +0.000 A 
ENDROOT
BRANCH   1  14
ATOM     13  O   UNL     1       2.461   2.669  19.146  0.00  0.00    +0.000 OA
ATOM     14  C   UNL     1       3.267   3.574  19.345  0.00  0.00    +0.000 C 
ATOM     15  N   UNL     1       4.600   3.337  19.593  0.00  0.00    +0.000 N 
ATOM     16  H   UNL     1       5.198   3.983  20.101  0.00  0.00    +0.000 HD
BRANCH  15  17
ATOM     17  O   UNL     1       4.967   1.973  19.665  0.00  0.00    +0.000 OA
ATOM     18  H   UNL     1       5.846   2.011  20.103  0.00  0.00    +0.000 HD
ENDBRANCH  15  17
ENDBRANCH   1  14
BRANCH   8  19
ATOM     19  N   UNL     1      -2.259  10.733  18.909  0.00  0.00    +0.000 N 
ATOM     20  C   UNL     1      -3.203  10.479  17.925  0.00  0.00    +0.000 C 
ATOM     21  O   UNL     1      -3.107   9.528  17.148  0.00  0.00    +0.000 OA
ATOM     22  H   UNL     1      -2.383  11.579  19.451  0.00  0.00    +0.000 HD
BRANCH  20  23
ATOM     23  C   UNL     1      -4.311  11.432  17.887  0.00  0.00    +0.000 A 
ATOM     24  C   UNL     1      -5.048  11.823  16.783  0.00  0.00    +0.000 A 
ATOM     25  C   UNL     1      -6.069  12.766  17.105  0.00  0.00    +0.000 A 
ATOM     26  C   UNL     1      -6.081  13.072  18.447  0.00  0.00    +0.000 A 
ATOM     27  S   UNL     1      -4.867  12.233  19.304  0.00  0.00    +0.000 S 
ENDBRANCH  20  23
ENDBRANCH   8  19
TORSDOF 4
ENDMDL
MODEL 4
REMARK VINA RESULT:      -6.8      5.288      7.743
REMARK  Name = 
REMARK  4 active torsions:
REMARK  status: ('A' for Active; 'I' for Inactive)
REMARK    1  A    between atoms: C_2  and  C_5
REMARK    2  A    between atoms: N_3  and  O_4
REMARK    3  A    between atoms: C_12  and  N_13
REMARK    4  A    between atoms: C_14  and  C_16
REMARK                            x       y       z     vdW  Elec       q    Type
REMARK                         _______ _______ _______ _____ _____    ______ ____
ROOT
ATOM      1  C   UNL     1       3.065   3.244  19.621  0.00  0.00    +0.000 A 
ATOM      2  C   UNL     1       2.793   3.671  18.345  0.00  0.00    +0.000 A 
ATOM      3  N   UNL     1       3.712   4.270  17.551  0.00  0.00    +0.000 NA
ATOM      4  C   UNL     1       4.966   4.401  18.026  0.00  0.00    +0.000 A 
ATOM      5  N   UNL     1       5.919   4.986  17.232  0.00  0.00    +0.000 N 
ATOM      6  C   UNL     1       5.490   6.018  16.296  0.00  0.00    +0.000 C 
ATOM      7  C   UNL     1       6.627   6.999  16.286  0.00  0.00    +0.000 C 
ATOM      8  C   UNL     1       7.042   7.736  17.541  0.00  0.00    +0.000 C 
ATOM      9  C   UNL     1       7.725   6.461  17.132  0.00  0.00    +0.000 C 
ATOM     10  C   UNL     1       7.280   5.162  17.731  0.00  0.00    +0.000 C 
ATOM     11  N   UNL     1       5.317   3.972  19.252  0.00  0.00    +0.000 NA
ATOM     12  C   UNL     1       4.364   3.414  20.027  0.00  0.00    +0.000 A 
ENDROOT
BRANCH   1  14
ATOM     13  O   UNL     1       1.144   1.936  19.939  0.00  0.00    +0.000 OA
ATOM     14  C   UNL     1       2.044   2.597  20.450  0.00  0.00    +0.000 C 
ATOM     15  N   UNL     1       2.136   2.796  21.809  0.00  0.00    +0.000 N 
ATOM     16  H   UNL     1       2.613   3.591  22.227  0.00  0.00    +0.000 HD
BRANCH  15  17
ATOM     17  O   UNL     1       1.086   2.237  22.573  0.00  0.00    +0.000 OA
ATOM     18  H   UNL     1       1.461   2.234  23.482  0.00  0.00    +0.000 HD
ENDBRANCH  15  17
ENDBRANCH   1  14
BRANCH   8  19
ATOM     19  N   UNL     1       7.682   9.002  17.424  0.00  0.00    +0.000 N 
ATOM     20  C   UNL     1       8.588   9.510  18.344  0.00  0.00    +0.000 C 
ATOM     21  O   UNL     1       8.957   8.870  19.328  0.00  0.00    +0.000 OA
ATOM     22  H   UNL     1       7.381   9.630  16.689  0.00  0.00    +0.000 HD
BRANCH  20  23
ATOM     23  C   UNL     1       9.058  10.863  18.049  0.00  0.00    +0.000 A 
ATOM     24  C   UNL     1       8.294  11.963  17.702  0.00  0.00    +0.000 A 
ATOM     25  C   UNL     1       9.078  13.137  17.495  0.00  0.00    +0.000 A 
ATOM     26  C   UNL     1      10.420  12.900  17.686  0.00  0.00    +0.000 A 
ATOM     27  S   UNL     1      10.728  11.274  18.105  0.00  0.00    +0.000 S 
ENDBRANCH  20  23
ENDBRANCH   8  19
TORSDOF 4
ENDMDL
MODEL 5
REMARK VINA RESULT:      -6.7      4.518      6.307
REMARK  Name = 
REMARK  4 active torsions:
REMARK  status: ('A' for Active; 'I' for Inactive)
REMARK    1  A    between atoms: C_2  and  C_5
REMARK    2  A    between atoms: N_3  and  O_4
REMARK    3  A    between atoms: C_12  and  N_13
REMARK    4  A    between atoms: C_14  and  C_16
REMARK                            x       y       z     vdW  Elec       q    Type
REMARK                         _______ _______ _______ _____ _____    ______ ____
ROOT
ATOM      1  C   UNL     1       3.280   5.859  18.633  0.00  0.00    +0.000 A 
ATOM      2  C   UNL     1       3.482   6.927  17.796  0.00  0.00    +0.000 A 
ATOM      3  N   UNL     1       2.890   8.132  17.972  0.00  0.00    +0.000 NA
ATOM      4  C   UNL     1       2.106   8.296  19.057  0.00  0.00    +0.000 A 
ATOM      5  N   UNL     1       1.512   9.513  19.268  0.00  0.00    +0.000 N 
ATOM      6  C   UNL     1       1.146  10.308  18.102  0.00  0.00    +0.000 C 
ATOM      7  C   UNL     1      -0.134  10.981  18.504  0.00  0.00    +0.000 C 
ATOM      8  C   UNL     1      -1.369  10.178  18.853  0.00  0.00    +0.000 C 
ATOM      9  C   UNL     1      -0.422  10.643  19.923  0.00  0.00    +0.000 C 
ATOM     10  C   UNL     1       0.640   9.711  20.422  0.00  0.00    +0.000 C 
ATOM     11  N   UNL     1       1.892   7.307  19.942  0.00  0.00    +0.000 NA
ATOM     12  C   UNL     1       2.470   6.109  19.711  0.00  0.00    +0.000 A 
ENDROOT
BRANCH   1  14
ATOM     13  O   UNL     1       3.924   4.037  17.303  0.00  0.00    +0.000 OA
ATOM     14  C   UNL     1       3.941   4.569  18.410  0.00  0.00    +0.000 C 
ATOM     15  N   UNL     1       4.546   3.989  19.502  0.00  0.00    +0.000 N 
ATOM     16  H   UNL     1       4.283   4.195  20.461  0.00  0.00    +0.000 HD
BRANCH  15  17
ATOM     17  O   UNL     1       5.094   2.705  19.276  0.00  0.00    +0.000 OA
ATOM     18  H   UNL     1       4.987   2.270  20.151  0.00  0.00    +0.000 HD
ENDBRANCH  15  17
ENDBRANCH   1  14
BRANCH   8  19
ATOM     19  N   UNL     1      -2.653  10.767  18.678  0.00  0.00    +0.000 N 
ATOM     20  C   UNL     1      -3.630  10.278  17.822  0.00  0.00    +0.000 C 
ATOM     21  O   UNL     1      -3.479   9.243  17.172  0.00  0.00    +0.000 OA
ATOM     22  H   UNL     1      -2.838  11.663  19.112  0.00  0.00    +0.000 HD
BRANCH  20  23
ATOM     23  C   UNL     1      -4.842  11.094  17.755  0.00  0.00    +0.000 A 
ATOM     24  C   UNL     1      -5.095  12.158  16.907  0.00  0.00    +0.000 A 
ATOM     25  C   UNL     1      -6.390  12.723  17.102  0.00  0.00    +0.000 A 
ATOM     26  C   UNL     1      -7.089  12.077  18.095  0.00  0.00    +0.000 A 
ATOM     27  S   UNL     1      -6.186  10.805  18.788  0.00  0.00    +0.000 S 
ENDBRANCH  20  23
ENDBRANCH   8  19
TORSDOF 4
ENDMDL
MODEL 6
REMARK VINA RESULT:      -6.6      4.151      5.672
REMARK  Name = 
REMARK  4 active torsions:
REMARK  status: ('A' for Active; 'I' for Inactive)
REMARK    1  A    between atoms: C_2  and  C_5
REMARK    2  A    between atoms: N_3  and  O_4
REMARK    3  A    between atoms: C_12  and  N_13
REMARK    4  A    between atoms: C_14  and  C_16
REMARK                            x       y       z     vdW  Elec       q    Type
REMARK                         _______ _______ _______ _____ _____    ______ ____
ROOT
ATOM      1  C   UNL     1       3.418   5.550  18.041  0.00  0.00    +0.000 A 
ATOM      2  C   UNL     1       3.733   6.748  17.449  0.00  0.00    +0.000 A 
ATOM      3  N   UNL     1       3.206   7.932  17.843  0.00  0.00    +0.000 NA
ATOM      4  C   UNL     1       2.373   7.930  18.901  0.00  0.00    +0.000 A 
ATOM      5  N   UNL     1       1.843   9.119  19.331  0.00  0.00    +0.000 N 
ATOM      6  C   UNL     1       1.594  10.157  18.337  0.00  0.00    +0.000 C 
ATOM      7  C   UNL     1       0.336  10.824  18.811  0.00  0.00    +0.000 C 
ATOM      8  C   UNL     1      -0.964  10.058  18.932  0.00  0.00    +0.000 C 
ATOM      9  C   UNL     1      -0.054  10.230  20.116  0.00  0.00    +0.000 C 
ATOM     10  C   UNL     1       0.918   9.143  20.461  0.00  0.00    +0.000 C 
ATOM     11  N   UNL     1       2.047   6.800  19.555  0.00  0.00    +0.000 NA
ATOM     12  C   UNL     1       2.563   5.636  19.110  0.00  0.00    +0.000 A 
ENDROOT
BRANCH   1  14
ATOM     13  O   UNL     1       3.661   3.217  18.078  0.00  0.00    +0.000 OA
ATOM     14  C   UNL     1       4.010   4.288  17.588  0.00  0.00    +0.000 C 
ATOM     15  N   UNL     1       4.983   4.376  16.618  0.00  0.00    +0.000 N 
ATOM     16  H   UNL     1       5.538   5.213  16.458  0.00  0.00    +0.000 HD
BRANCH  15  17
ATOM     17  O   UNL     1       5.599   3.153  16.269  0.00  0.00    +0.000 OA
ATOM     18  H   UNL     1       6.492   3.240  16.671  0.00  0.00    +0.000 HD
ENDBRANCH  15  17
ENDBRANCH   1  14
BRANCH   8  19
ATOM     19  N   UNL     1      -2.197  10.761  18.825  0.00  0.00    +0.000 N 
ATOM     20  C   UNL     1      -3.083  10.632  17.765  0.00  0.00    +0.000 C 
ATOM     21  O   UNL     1      -2.893   9.842  16.839  0.00  0.00    +0.000 OA
ATOM     22  H   UNL     1      -2.400  11.489  19.499  0.00  0.00    +0.000 HD
BRANCH  20  23
ATOM     23  C   UNL     1      -4.250  11.511  17.837  0.00  0.00    +0.000 A 
ATOM     24  C   UNL     1      -5.102  11.865  16.806  0.00  0.00    +0.000 A 
ATOM     25  C   UNL     1      -6.151  12.734  17.231  0.00  0.00    +0.000 A 
ATOM     26  C   UNL     1      -6.068  13.023  18.574  0.00  0.00    +0.000 A 
ATOM     27  S   UNL     1      -4.733  12.256  19.311  0.00  0.00    +0.000 S 
ENDBRANCH  20  23
ENDBRANCH   8  19
TORSDOF 4
ENDMDL
MODEL 7
REMARK VINA RESULT:      -6.5      5.041      9.134
REMARK  Name = 
REMARK  4 active torsions:
REMARK  status: ('A' for Active; 'I' for Inactive)
REMARK    1  A    between atoms: C_2  and  C_5
REMARK    2  A    between atoms: N_3  and  O_4
REMARK    3  A    between atoms: C_12  and  N_13
REMARK    4  A    between atoms: C_14  and  C_16
REMARK                            x       y       z     vdW  Elec       q    Type
REMARK                         _______ _______ _______ _____ _____    ______ ____
ROOT
ATOM      1  C   UNL     1       1.732  14.618  19.565  0.00  0.00    +0.000 A 
ATOM      2  C   UNL     1       0.796  13.942  18.823  0.00  0.00    +0.000 A 
ATOM      3  N   UNL     1       0.252  12.764  19.209  0.00  0.00    +0.000 NA
ATOM      4  C   UNL     1       0.615  12.265  20.407  0.00  0.00    +0.000 A 
ATOM      5  N   UNL     1       0.061  11.083  20.828  0.00  0.00    +0.000 N 
ATOM      6  C   UNL     1      -0.296  10.095  19.818  0.00  0.00    +0.000 C 
ATOM      7  C   UNL     1       0.007   8.777  20.470  0.00  0.00    +0.000 C 
ATOM      8  C   UNL     1       1.411   8.420  20.909  0.00  0.00    +0.000 C 
ATOM      9  C   UNL     1       0.431   9.028  21.873  0.00  0.00    +0.000 C 
ATOM     10  C   UNL     1       0.454  10.507  22.111  0.00  0.00    +0.000 C 
ATOM     11  N   UNL     1       1.498  12.889  21.206  0.00  0.00    +0.000 NA
ATOM     12  C   UNL     1       2.046  14.042  20.770  0.00  0.00    +0.000 A 
ENDROOT
BRANCH   1  14
ATOM     13  O   UNL     1       2.236  16.894  19.823  0.00  0.00    +0.000 OA
ATOM     14  C   UNL     1       2.298  15.893  19.114  0.00  0.00    +0.000 C 
ATOM     15  N   UNL     1       2.866  15.907  17.861  0.00  0.00    +0.000 N 
ATOM     16  H   UNL     1       2.625  15.243  17.130  0.00  0.00    +0.000 HD
BRANCH  15  17
ATOM     17  O   UNL     1       3.320  17.171  17.418  0.00  0.00    +0.000 OA
ATOM     18  H   UNL     1       4.112  17.322  17.981  0.00  0.00    +0.000 HD
ENDBRANCH  15  17
ENDBRANCH   1  14
BRANCH   8  19
ATOM     19  N   UNL     1       1.788   7.049  20.985  0.00  0.00    +0.000 N 
ATOM     20  C   UNL     1       2.373   6.339  19.947  0.00  0.00    +0.000 C 
ATOM     21  O   UNL     1       2.667   6.863  18.873  0.00  0.00    +0.000 OA
ATOM     22  H   UNL     1       1.514   6.517  21.802  0.00  0.00    +0.000 HD
BRANCH  20  23
ATOM     23  C   UNL     1       2.603   4.923  20.235  0.00  0.00    +0.000 A 
ATOM     24  C   UNL     1       1.968   4.143  21.184  0.00  0.00    +0.000 A 
ATOM     25  C   UNL     1       2.430   2.793  21.188  0.00  0.00    +0.000 A 
ATOM     26  C   UNL     1       3.409   2.581  20.244  0.00  0.00    +0.000 A 
ATOM     27  S   UNL     1       3.769   4.001  19.368  0.00  0.00    +0.000 S 
ENDBRANCH  20  23
ENDBRANCH   8  19
TORSDOF 4
ENDMDL
MODEL 8
REMARK VINA RESULT:      -6.5      5.676      7.611
REMARK  Name = 
REMARK  4 active torsions:
REMARK  status: ('A' for Active; 'I' for Inactive)
REMARK    1  A    between atoms: C_2  and  C_5
REMARK    2  A    between atoms: N_3  and  O_4
REMARK    3  A    between atoms: C_12  and  N_13
REMARK    4  A    between atoms: C_14  and  C_16
REMARK                            x       y       z     vdW  Elec       q    Type
REMARK                         _______ _______ _______ _____ _____    ______ ____
ROOT
ATOM      1  C   UNL     1       3.159   4.365  18.482  0.00  0.00    +0.000 A 
ATOM      2  C   UNL     1       3.709   4.478  17.229  0.00  0.00    +0.000 A 
ATOM      3  N   UNL     1       4.937   5.002  17.001  0.00  0.00    +0.000 NA
ATOM      4  C   UNL     1       5.668   5.379  18.068  0.00  0.00    +0.000 A 
ATOM      5  N   UNL     1       6.923   5.893  17.864  0.00  0.00    +0.000 N 
ATOM      6  C   UNL     1       7.164   6.645  16.639  0.00  0.00    +0.000 C 
ATOM      7  C   UNL     1       8.114   7.730  17.056  0.00  0.00    +0.000 C 
ATOM      8  C   UNL     1       7.726   8.759  18.096  0.00  0.00    +0.000 C 
ATOM      9  C   UNL     1       8.481   7.518  18.481  0.00  0.00    +0.000 C 
ATOM     10  C   UNL     1       7.728   6.331  19.000  0.00  0.00    +0.000 C 
ATOM     11  N   UNL     1       5.212   5.263  19.328  0.00  0.00    +0.000 NA
ATOM     12  C   UNL     1       3.969   4.771  19.511  0.00  0.00    +0.000 A 
ENDROOT
BRANCH   1  14
ATOM     13  O   UNL     1       1.055   3.633  17.745  0.00  0.00    +0.000 OA
ATOM     14  C   UNL     1       1.826   3.791  18.689  0.00  0.00    +0.000 C 
ATOM     15  N   UNL     1       1.486   3.472  19.984  0.00  0.00    +0.000 N 
ATOM     16  H   UNL     1       1.917   3.902  20.797  0.00  0.00    +0.000 HD
BRANCH  15  17
ATOM     17  O   UNL     1       0.163   3.007  20.163  0.00  0.00    +0.000 OA
ATOM     18  H   UNL     1       0.301   2.108  20.536  0.00  0.00    +0.000 HD
ENDBRANCH  15  17
ENDBRANCH   1  14
BRANCH   8  19
ATOM     19  N   UNL     1       8.348  10.040  18.072  0.00  0.00    +0.000 N 
ATOM     20  C   UNL     1       9.051  10.589  19.135  0.00  0.00    +0.000 C 
ATOM     21  O   UNL     1       9.241   9.977  20.186  0.00  0.00    +0.000 OA
ATOM     22  H   UNL     1       8.179  10.645  17.278  0.00  0.00    +0.000 HD
BRANCH  20  23
ATOM     23  C   UNL     1       9.539  11.948  18.903  0.00  0.00    +0.000 A 
ATOM     24  C   UNL     1      10.567  12.597  19.563  0.00  0.00    +0.000 A 
ATOM     25  C   UNL     1      10.789  13.919  19.074  0.00  0.00    +0.000 A 
ATOM     26  C   UNL     1       9.922  14.244  18.056  0.00  0.00    +0.000 A 
ATOM     27  S   UNL     1       8.847  12.966  17.701  0.00  0.00    +0.000 S 
ENDBRANCH  20  23
ENDBRANCH   8  19
TORSDOF 4
ENDMDL
MODEL 9
REMARK VINA RESULT:      -6.4      4.490     10.660
REMARK  Name = 
REMARK  4 active torsions:
REMARK  status: ('A' for Active; 'I' for Inactive)
REMARK    1  A    between atoms: C_2  and  C_5
REMARK    2  A    between atoms: N_3  and  O_4
REMARK    3  A    between atoms: C_12  and  N_13
REMARK    4  A    between atoms: C_14  and  C_16
REMARK                            x       y       z     vdW  Elec       q    Type
REMARK                         _______ _______ _______ _____ _____    ______ ____
ROOT
ATOM      1  C   UNL     1      -1.173  13.445  22.623  0.00  0.00    +0.000 A 
ATOM      2  C   UNL     1      -0.165  13.970  21.853  0.00  0.00    +0.000 A 
ATOM      3  N   UNL     1       0.275  13.392  20.711  0.00  0.00    +0.000 NA
ATOM      4  C   UNL     1      -0.348  12.274  20.290  0.00  0.00    +0.000 A 
ATOM      5  N   UNL     1       0.067  11.681  19.125  0.00  0.00    +0.000 N 
ATOM      6  C   UNL     1       1.476  11.788  18.766  0.00  0.00    +0.000 C 
ATOM      7  C   UNL     1       1.791  10.471  18.120  0.00  0.00    +0.000 C 
ATOM      8  C   UNL     1       1.663   9.170  18.883  0.00  0.00    +0.000 C 
ATOM      9  C   UNL     1       0.537   9.677  18.026  0.00  0.00    +0.000 C 
ATOM     10  C   UNL     1      -0.575  10.456  18.658  0.00  0.00    +0.000 C 
ATOM     11  N   UNL     1      -1.368  11.722  20.971  0.00  0.00    +0.000 NA
ATOM     12  C   UNL     1      -1.754  12.307  22.124  0.00  0.00    +0.000 A 
ENDROOT
BRANCH   1  14
ATOM     13  O   UNL     1      -0.850  14.776  24.527  0.00  0.00    +0.000 OA
ATOM     14  C   UNL     1      -1.624  14.102  23.854  0.00  0.00    +0.000 C 
ATOM     15  N   UNL     1      -2.936  13.897  24.217  0.00  0.00    +0.000 N 
ATOM     16  H   UNL     1      -3.481  13.094  23.914  0.00  0.00    +0.000 HD
BRANCH  15  17
ATOM     17  O   UNL     1      -3.315  14.467  25.454  0.00  0.00    +0.000 OA
ATOM     18  H   UNL     1      -2.670  14.068  26.080  0.00  0.00    +0.000 HD
ENDBRANCH  15  17
ENDBRANCH   1  14
BRANCH   8  19
ATOM     19  N   UNL     1       2.460   8.055  18.493  0.00  0.00    +0.000 N 
ATOM     20  C   UNL     1       2.537   6.863  19.199  0.00  0.00    +0.000 C 
ATOM     21  O   UNL     1       1.867   6.650  20.210  0.00  0.00    +0.000 OA
ATOM     22  H   UNL     1       3.103   8.167  17.719  0.00  0.00    +0.000 HD
BRANCH  20  23
ATOM     23  C   UNL     1       3.478   5.890  18.646  0.00  0.00    +0.000 A 
ATOM     24  C   UNL     1       3.896   5.776  17.331  0.00  0.00    +0.000 A 
ATOM     25  C   UNL     1       4.835   4.719  17.140  0.00  0.00    +0.000 A 
ATOM     26  C   UNL     1       5.105   4.052  18.313  0.00  0.00    +0.000 A 
ATOM     27  S   UNL     1       4.228   4.694  19.629  0.00  0.00    +0.000 S 
ENDBRANCH  20  23
ENDBRANCH   8  19
TORSDOF 4
ENDMDL
