MODEL 1
REMARK VINA RESULT:      -8.1      0.000      0.000
REMARK  Name = 
REMARK  6 active torsions:
REMARK  status: ('A' for Active; 'I' for Inactive)
REMARK    1  A    between atoms: C_1  and  O_2
REMARK    2  A    between atoms: O_2  and  C_3
REMARK    3  A    between atoms: C_6  and  C_7
REMARK    4  A    between atoms: C_12  and  C_13
REMARK    5  A    between atoms: C_19  and  C_20
REMARK    6  A    between atoms: C_20  and  O_21
REMARK                            x       y       z     vdW  Elec       q    Type
REMARK                         _______ _______ _______ _____ _____    ______ ____
ROOT
ATOM      1  C   UNL     1       3.427   5.966  18.064  0.00  0.00    +0.000 A 
ATOM      2  C   UNL     1       2.984   7.229  17.956  0.00  0.00    +0.000 A 
ATOM      3  C   UNL     1       2.140   7.795  19.016  0.00  0.00    +0.000 A 
ATOM      4  C   UNL     1       1.641   9.097  18.925  0.00  0.00    +0.000 A 
ATOM      5  C   UNL     1       0.859   9.629  19.958  0.00  0.00    +0.000 A 
ATOM      6  C   UNL     1       0.572   8.871  21.101  0.00  0.00    +0.000 A 
ATOM      7  C   UNL     1      -0.260   9.442  22.212  0.00  0.00    +0.000 C 
ATOM      8  C   UNL     1       1.081   7.570  21.200  0.00  0.00    +0.000 A 
ATOM      9  C   UNL     1       1.848   7.033  20.156  0.00  0.00    +0.000 A 
ATOM     10  C   UNL     1       2.365   5.641  20.236  0.00  0.00    +0.000 A 
ATOM     11  O   UNL     1       2.144   4.926  21.205  0.00  0.00    +0.000 OA
ATOM     12  N   UNL     1       3.105   5.202  19.159  0.00  0.00    +0.000 N 
ATOM     13  H   UNL     1       3.464   4.255  19.232  0.00  0.00    +0.000 HD
ENDROOT
BRANCH   1  17
ATOM     14  C   UNL     1       6.090   4.540  15.017  0.00  0.00    +0.000 A 
ATOM     15  C   UNL     1       5.769   5.888  15.141  0.00  0.00    +0.000 A 
ATOM     16  C   UNL     1       4.917   6.321  16.158  0.00  0.00    +0.000 A 
ATOM     17  C   UNL     1       4.361   5.411  17.073  0.00  0.00    +0.000 A 
ATOM     18  C   UNL     1       4.692   4.043  16.971  0.00  0.00    +0.000 A 
ATOM     19  C   UNL     1       5.568   3.631  15.940  0.00  0.00    +0.000 A 
BRANCH  14  21
ATOM     20  C   UNL     1       6.333   3.631  12.833  0.00  0.00    +0.000 C 
ATOM     21  O   UNL     1       6.924   4.241  13.975  0.00  0.00    +0.000 OA
ENDBRANCH  14  21
BRANCH  18  22
ATOM     22  C   UNL     1       4.228   3.024  17.985  0.00  0.00    +0.000 C 
BRANCH  22  23
ATOM     23  O   UNL     1       5.129   2.938  19.087  0.00  0.00    +0.000 OA
ATOM     24  H   UNL     1       5.375   3.850  19.315  0.00  0.00    +0.000 HD
ENDBRANCH  22  23
ENDBRANCH  18  22
ENDBRANCH   1  17
TORSDOF 4
ENDMDL
MODEL 2
REMARK VINA RESULT:      -7.8      2.125      2.754
REMARK  Name = 
REMARK  6 active torsions:
REMARK  status: ('A' for Active; 'I' for Inactive)
REMARK    1  A    between atoms: C_1  and  O_2
REMARK    2  A    between atoms: O_2  and  C_3
REMARK    3  A    between atoms: C_6  and  C_7
REMARK    4  A    between atoms: C_12  and  C_13
REMARK    5  A    between atoms: C_19  and  C_20
REMARK    6  A    between atoms: C_20  and  O_21
REMARK                            x       y       z     vdW  Elec       q    Type
REMARK                         _______ _______ _______ _____ _____    ______ ____
ROOT
ATOM      1  C   UNL     1       2.901   7.272  18.397  0.00  0.00    +0.000 A 
ATOM      2  C   UNL     1       2.405   7.093  19.632  0.00  0.00    +0.000 A 
ATOM      3  C   UNL     1       1.571   8.139  20.239  0.00  0.00    +0.000 A 
ATOM      4  C   UNL     1       1.059   7.996  21.530  0.00  0.00    +0.000 A 
ATOM      5  C   UNL     1       0.244   8.993  22.082  0.00  0.00    +0.000 A 
ATOM      6  C   UNL     1      -0.077  10.142  21.348  0.00  0.00    +0.000 A 
ATOM      7  C   UNL     1      -0.955  11.208  21.935  0.00  0.00    +0.000 C 
ATOM      8  C   UNL     1       0.426  10.282  20.048  0.00  0.00    +0.000 A 
ATOM      9  C   UNL     1       1.256   9.291  19.505  0.00  0.00    +0.000 A 
ATOM     10  C   UNL     1       1.823   9.445  18.139  0.00  0.00    +0.000 A 
ATOM     11  O   UNL     1       1.584  10.428  17.448  0.00  0.00    +0.000 OA
ATOM     12  N   UNL     1       2.631   8.420  17.694  0.00  0.00    +0.000 N 
ATOM     13  H   UNL     1       3.000   8.531  16.755  0.00  0.00    +0.000 HD
ENDROOT
BRANCH   1  17
ATOM     14  C   UNL     1       5.186   4.317  16.287  0.00  0.00    +0.000 A 
ATOM     15  C   UNL     1       5.638   5.624  16.441  0.00  0.00    +0.000 A 
ATOM     16  C   UNL     1       4.879   6.554  17.153  0.00  0.00    +0.000 A 
ATOM     17  C   UNL     1       3.646   6.197  17.724  0.00  0.00    +0.000 A 
ATOM     18  C   UNL     1       3.184   4.871  17.592  0.00  0.00    +0.000 A 
ATOM     19  C   UNL     1       3.976   3.943  16.877  0.00  0.00    +0.000 A 
BRANCH  14  21
ATOM     20  C   UNL     1       6.301   3.907  14.227  0.00  0.00    +0.000 C 
ATOM     21  O   UNL     1       6.012   3.504  15.561  0.00  0.00    +0.000 OA
ENDBRANCH  14  21
BRANCH  18  22
ATOM     22  C   UNL     1       1.926   4.384  18.274  0.00  0.00    +0.000 C 
BRANCH  22  23
ATOM     23  O   UNL     1       0.935   3.999  17.323  0.00  0.00    +0.000 OA
ATOM     24  H   UNL     1       0.548   4.821  16.977  0.00  0.00    +0.000 HD
ENDBRANCH  22  23
ENDBRANCH  18  22
ENDBRANCH   1  17
TORSDOF 4
ENDMDL
MODEL 3
REMARK VINA RESULT:      -7.7      1.948      2.502
REMARK  Name = 
REMARK  6 active torsions:
REMARK  status: ('A' for Active; 'I' for Inactive)
REMARK    1  A    between atoms: C_1  and  O_2
REMARK    2  A    between atoms: O_2  and  C_3
REMARK    3  A    between atoms: C_6  and  C_7
REMARK    4  A    between atoms: C_12  and  C_13
REMARK    5  A    between atoms: C_19  and  C_20
REMARK    6  A    between atoms: C_20  and  O_21
REMARK                            x       y       z     vdW  Elec       q    Type
REMARK                         _______ _______ _______ _____ _____    ______ ____
ROOT
ATOM      1  C   UNL     1       2.407   7.413  18.614  0.00  0.00    +0.000 A 
ATOM      2  C   UNL     1       1.766   8.352  17.898  0.00  0.00    +0.000 A 
ATOM      3  C   UNL     1       0.918   9.335  18.584  0.00  0.00    +0.000 A 
ATOM      4  C   UNL     1       0.218  10.310  17.869  0.00  0.00    +0.000 A 
ATOM      5  C   UNL     1      -0.566  11.255  18.544  0.00  0.00    +0.000 A 
ATOM      6  C   UNL     1      -0.654  11.245  19.942  0.00  0.00    +0.000 A 
ATOM      7  C   UNL     1      -1.488  12.260  20.667  0.00  0.00    +0.000 C 
ATOM      8  C   UNL     1       0.056  10.275  20.662  0.00  0.00    +0.000 A 
ATOM      9  C   UNL     1       0.826   9.319  19.983  0.00  0.00    +0.000 A 
ATOM     10  C   UNL     1       1.556   8.265  20.735  0.00  0.00    +0.000 A 
ATOM     11  O   UNL     1       1.515   8.199  21.958  0.00  0.00    +0.000 OA
ATOM     12  N   UNL     1       2.282   7.368  19.980  0.00  0.00    +0.000 N 
ATOM     13  H   UNL     1       2.787   6.662  20.506  0.00  0.00    +0.000 HD
ENDROOT
BRANCH   1  17
ATOM     14  C   UNL     1       5.240   4.909  16.586  0.00  0.00    +0.000 A 
ATOM     15  C   UNL     1       5.472   6.266  16.791  0.00  0.00    +0.000 A 
ATOM     16  C   UNL     1       4.539   7.046  17.474  0.00  0.00    +0.000 A 
ATOM     17  C   UNL     1       3.347   6.487  17.965  0.00  0.00    +0.000 A 
ATOM     18  C   UNL     1       3.106   5.109  17.781  0.00  0.00    +0.000 A 
ATOM     19  C   UNL     1       4.073   4.336  17.097  0.00  0.00    +0.000 A 
BRANCH  14  21
ATOM     20  C   UNL     1       6.071   4.179  14.481  0.00  0.00    +0.000 C 
ATOM     21  O   UNL     1       6.222   4.255  15.894  0.00  0.00    +0.000 OA
ENDBRANCH  14  21
BRANCH  18  22
ATOM     22  C   UNL     1       1.905   4.414  18.379  0.00  0.00    +0.000 C 
BRANCH  22  23
ATOM     23  O   UNL     1       1.044   3.901  17.365  0.00  0.00    +0.000 OA
ATOM     24  H   UNL     1       1.274   4.367  16.543  0.00  0.00    +0.000 HD
ENDBRANCH  22  23
ENDBRANCH  18  22
ENDBRANCH   1  17
TORSDOF 4
ENDMDL
MODEL 4
REMARK VINA RESULT:      -7.5      2.818      7.697
REMARK  Name = 
REMARK  6 active torsions:
REMARK  status: ('A' for Active; 'I' for Inactive)
REMARK    1  A    between atoms: C_1  and  O_2
REMARK    2  A    between atoms: O_2  and  C_3
REMARK    3  A    between atoms: C_6  and  C_7
REMARK    4  A    between atoms: C_12  and  C_13
REMARK    5  A    between atoms: C_19  and  C_20
REMARK    6  A    between atoms: C_20  and  O_21
REMARK                            x       y       z     vdW  Elec       q    Type
REMARK                         _______ _______ _______ _____ _____    ______ ____
ROOT
ATOM      1  C   UNL     1       1.730   7.330  19.838  0.00  0.00    +0.000 A 
ATOM      2  C   UNL     1       1.362   6.166  20.397  0.00  0.00    +0.000 A 
ATOM      3  C   UNL     1       1.947   4.910  19.911  0.00  0.00    +0.000 A 
ATOM      4  C   UNL     1       1.569   3.679  20.453  0.00  0.00    +0.000 A 
ATOM      5  C   UNL     1       2.158   2.494  19.995  0.00  0.00    +0.000 A 
ATOM      6  C   UNL     1       3.138   2.522  18.994  0.00  0.00    +0.000 A 
ATOM      7  C   UNL     1       3.775   1.254  18.506  0.00  0.00    +0.000 C 
ATOM      8  C   UNL     1       3.528   3.756  18.458  0.00  0.00    +0.000 A 
ATOM      9  C   UNL     1       2.924   4.940  18.906  0.00  0.00    +0.000 A 
ATOM     10  C   UNL     1       3.305   6.252  18.319  0.00  0.00    +0.000 A 
ATOM     11  O   UNL     1       4.151   6.343  17.438  0.00  0.00    +0.000 OA
ATOM     12  N   UNL     1       2.653   7.358  18.822  0.00  0.00    +0.000 N 
ATOM     13  H   UNL     1       2.932   8.248  18.423  0.00  0.00    +0.000 HD
ENDROOT
BRANCH   1  17
ATOM     14  C   UNL     1       0.250  10.938  21.628  0.00  0.00    +0.000 A 
ATOM     15  C   UNL     1       0.781   9.902  22.391  0.00  0.00    +0.000 A 
ATOM     16  C   UNL     1       1.273   8.752  21.775  0.00  0.00    +0.000 A 
ATOM     17  C   UNL     1       1.243   8.609  20.377  0.00  0.00    +0.000 A 
ATOM     18  C   UNL     1       0.725   9.658  19.589  0.00  0.00    +0.000 A 
ATOM     19  C   UNL     1       0.243  10.820  20.236  0.00  0.00    +0.000 A 
BRANCH  14  21
ATOM     20  C   UNL     1      -1.478  11.857  22.977  0.00  0.00    +0.000 C 
ATOM     21  O   UNL     1      -0.211  12.005  22.348  0.00  0.00    +0.000 OA
ENDBRANCH  14  21
BRANCH  18  22
ATOM     22  C   UNL     1       0.764   9.627  18.079  0.00  0.00    +0.000 C 
BRANCH  22  23
ATOM     23  O   UNL     1       2.004  10.125  17.580  0.00  0.00    +0.000 OA
ATOM     24  H   UNL     1       2.689   9.845  18.210  0.00  0.00    +0.000 HD
ENDBRANCH  22  23
ENDBRANCH  18  22
ENDBRANCH   1  17
TORSDOF 4
ENDMDL
MODEL 5
REMARK VINA RESULT:      -7.5      2.178      3.813
REMARK  Name = 
REMARK  6 active torsions:
REMARK  status: ('A' for Active; 'I' for Inactive)
REMARK    1  A    between atoms: C_1  and  O_2
REMARK    2  A    between atoms: O_2  and  C_3
REMARK    3  A    between atoms: C_6  and  C_7
REMARK    4  A    between atoms: C_12  and  C_13
REMARK    5  A    between atoms: C_19  and  C_20
REMARK    6  A    between atoms: C_20  and  O_21
REMARK                            x       y       z     vdW  Elec       q    Type
REMARK                         _______ _______ _______ _____ _____    ______ ____
ROOT
ATOM      1  C   UNL     1       1.867   7.873  19.622  0.00  0.00    +0.000 A 
ATOM      2  C   UNL     1       1.427   7.834  20.891  0.00  0.00    +0.000 A 
ATOM      3  C   UNL     1       0.654   8.962  21.426  0.00  0.00    +0.000 A 
ATOM      4  C   UNL     1       0.202   8.966  22.748  0.00  0.00    +0.000 A 
ATOM      5  C   UNL     1      -0.557  10.039  23.233  0.00  0.00    +0.000 A 
ATOM      6  C   UNL     1      -0.882  11.119  22.401  0.00  0.00    +0.000 A 
ATOM      7  C   UNL     1      -1.701  12.266  22.917  0.00  0.00    +0.000 C 
ATOM      8  C   UNL     1      -0.441  11.111  21.072  0.00  0.00    +0.000 A 
ATOM      9  C   UNL     1       0.334  10.044  20.594  0.00  0.00    +0.000 A 
ATOM     10  C   UNL     1       0.837  10.043  19.195  0.00  0.00    +0.000 A 
ATOM     11  O   UNL     1       0.591  10.959  18.420  0.00  0.00    +0.000 OA
ATOM     12  N   UNL     1       1.594   8.953  18.819  0.00  0.00    +0.000 N 
ATOM     13  H   UNL     1       1.919   8.957  17.858  0.00  0.00    +0.000 HD
ENDROOT
BRANCH   1  17
ATOM     14  C   UNL     1       3.878   4.624  17.672  0.00  0.00    +0.000 A 
ATOM     15  C   UNL     1       4.099   5.949  17.310  0.00  0.00    +0.000 A 
ATOM     16  C   UNL     1       3.444   6.983  17.980  0.00  0.00    +0.000 A 
ATOM     17  C   UNL     1       2.548   6.713  19.028  0.00  0.00    +0.000 A 
ATOM     18  C   UNL     1       2.328   5.375  19.419  0.00  0.00    +0.000 A 
ATOM     19  C   UNL     1       3.013   4.345  18.733  0.00  0.00    +0.000 A 
BRANCH  14  21
ATOM     20  C   UNL     1       5.412   4.205  15.904  0.00  0.00    +0.000 C 
ATOM     21  O   UNL     1       4.568   3.702  16.933  0.00  0.00    +0.000 OA
ENDBRANCH  14  21
BRANCH  18  22
ATOM     22  C   UNL     1       1.470   5.014  20.609  0.00  0.00    +0.000 C 
BRANCH  22  23
ATOM     23  O   UNL     1       0.568   3.955  20.297  0.00  0.00    +0.000 OA
ATOM     24  H   UNL     1       1.112   3.203  20.009  0.00  0.00    +0.000 HD
ENDBRANCH  22  23
ENDBRANCH  18  22
ENDBRANCH   1  17
TORSDOF 4
ENDMDL
MODEL 6
REMARK VINA RESULT:      -7.4      3.234      3.923
REMARK  Name = 
REMARK  6 active torsions:
REMARK  status: ('A' for Active; 'I' for Inactive)
REMARK    1  A    between atoms: C_1  and  O_2
REMARK    2  A    between atoms: O_2  and  C_3
REMARK    3  A    between atoms: C_6  and  C_7
REMARK    4  A    between atoms: C_12  and  C_13
REMARK    5  A    between atoms: C_19  and  C_20
REMARK    6  A    between atoms: C_20  and  O_21
REMARK                            x       y       z     vdW  Elec       q    Type
REMARK                         _______ _______ _______ _____ _____    ______ ____
ROOT
ATOM      1  C   UNL     1       4.736   3.740  17.809  0.00  0.00    +0.000 A 
ATOM      2  C   UNL     1       3.478   4.162  18.015  0.00  0.00    +0.000 A 
ATOM      3  C   UNL     1       2.738   3.691  19.193  0.00  0.00    +0.000 A 
ATOM      4  C   UNL     1       1.419   4.091  19.425  0.00  0.00    +0.000 A 
ATOM      5  C   UNL     1       0.739   3.652  20.568  0.00  0.00    +0.000 A 
ATOM      6  C   UNL     1       1.367   2.814  21.498  0.00  0.00    +0.000 A 
ATOM      7  C   UNL     1       0.642   2.348  22.727  0.00  0.00    +0.000 C 
ATOM      8  C   UNL     1       2.694   2.422  21.273  0.00  0.00    +0.000 A 
ATOM      9  C   UNL     1       3.367   2.849  20.120  0.00  0.00    +0.000 A 
ATOM     10  C   UNL     1       4.763   2.410  19.854  0.00  0.00    +0.000 A 
ATOM     11  O   UNL     1       5.366   1.675  20.626  0.00  0.00    +0.000 OA
ATOM     12  N   UNL     1       5.339   2.879  18.692  0.00  0.00    +0.000 N 
ATOM     13  H   UNL     1       6.296   2.584  18.530  0.00  0.00    +0.000 HD
ENDROOT
BRANCH   1  17
ATOM     14  C   UNL     1       7.011   5.105  14.437  0.00  0.00    +0.000 A 
ATOM     15  C   UNL     1       5.908   4.269  14.291  0.00  0.00    +0.000 A 
ATOM     16  C   UNL     1       5.178   3.862  15.407  0.00  0.00    +0.000 A 
ATOM     17  C   UNL     1       5.537   4.280  16.700  0.00  0.00    +0.000 A 
ATOM     18  C   UNL     1       6.642   5.142  16.863  0.00  0.00    +0.000 A 
ATOM     19  C   UNL     1       7.359   5.551  15.715  0.00  0.00    +0.000 A 
BRANCH  14  21
ATOM     20  C   UNL     1       7.392   4.589  12.147  0.00  0.00    +0.000 C 
ATOM     21  O   UNL     1       7.651   5.423  13.271  0.00  0.00    +0.000 OA
ENDBRANCH  14  21
BRANCH  18  22
ATOM     22  C   UNL     1       7.019   5.724  18.205  0.00  0.00    +0.000 C 
BRANCH  22  23
ATOM     23  O   UNL     1       7.849   4.832  18.944  0.00  0.00    +0.000 OA
ATOM     24  H   UNL     1       8.680   5.306  19.119  0.00  0.00    +0.000 HD
ENDBRANCH  22  23
ENDBRANCH  18  22
ENDBRANCH   1  17
TORSDOF 4
ENDMDL
MODEL 7
REMARK VINA RESULT:      -7.4      1.958      3.055
REMARK  Name = 
REMARK  6 active torsions:
REMARK  status: ('A' for Active; 'I' for Inactive)
REMARK    1  A    between atoms: C_1  and  O_2
REMARK    2  A    between atoms: O_2  and  C_3
REMARK    3  A    between atoms: C_6  and  C_7
REMARK    4  A    between atoms: C_12  and  C_13
REMARK    5  A    between atoms: C_19  and  C_20
REMARK    6  A    between atoms: C_20  and  O_21
REMARK                            x       y       z     vdW  Elec       q    Type
REMARK                         _______ _______ _______ _____ _____    ______ ____
ROOT
ATOM      1  C   UNL     1       2.033   7.835  19.103  0.00  0.00    +0.000 A 
ATOM      2  C   UNL     1       1.372   8.752  18.376  0.00  0.00    +0.000 A 
ATOM      3  C   UNL     1       0.561   9.770  19.055  0.00  0.00    +0.000 A 
ATOM      4  C   UNL     1      -0.158  10.723  18.329  0.00  0.00    +0.000 A 
ATOM      5  C   UNL     1      -0.906  11.702  18.995  0.00  0.00    +0.000 A 
ATOM      6  C   UNL     1      -0.940  11.748  20.395  0.00  0.00    +0.000 A 
ATOM      7  C   UNL     1      -1.735  12.800  21.111  0.00  0.00    +0.000 C 
ATOM      8  C   UNL     1      -0.210  10.800  21.125  0.00  0.00    +0.000 A 
ATOM      9  C   UNL     1       0.523   9.810  20.456  0.00  0.00    +0.000 A 
ATOM     10  C   UNL     1       1.273   8.778  21.220  0.00  0.00    +0.000 A 
ATOM     11  O   UNL     1       1.279   8.761  22.445  0.00  0.00    +0.000 OA
ATOM     12  N   UNL     1       1.961   7.845  20.474  0.00  0.00    +0.000 N 
ATOM     13  H   UNL     1       2.479   7.155  21.007  0.00  0.00    +0.000 HD
ENDROOT
BRANCH   1  17
ATOM     14  C   UNL     1       4.694   5.194  17.018  0.00  0.00    +0.000 A 
ATOM     15  C   UNL     1       4.730   6.572  16.831  0.00  0.00    +0.000 A 
ATOM     16  C   UNL     1       3.865   7.404  17.543  0.00  0.00    +0.000 A 
ATOM     17  C   UNL     1       2.938   6.874  18.456  0.00  0.00    +0.000 A 
ATOM     18  C   UNL     1       2.902   5.480  18.669  0.00  0.00    +0.000 A 
ATOM     19  C   UNL     1       3.797   4.658  17.946  0.00  0.00    +0.000 A 
BRANCH  14  21
ATOM     20  C   UNL     1       6.950   4.543  16.642  0.00  0.00    +0.000 C 
ATOM     21  O   UNL     1       5.582   4.486  16.255  0.00  0.00    +0.000 OA
ENDBRANCH  14  21
BRANCH  18  22
ATOM     22  C   UNL     1       2.015   4.847  19.715  0.00  0.00    +0.000 C 
BRANCH  22  23
ATOM     23  O   UNL     1       2.532   5.052  21.029  0.00  0.00    +0.000 OA
ATOM     24  H   UNL     1       1.908   5.642  21.484  0.00  0.00    +0.000 HD
ENDBRANCH  22  23
ENDBRANCH  18  22
ENDBRANCH   1  17
TORSDOF 4
ENDMDL
MODEL 8
REMARK VINA RESULT:      -7.4      1.460      1.933
REMARK  Name = 
REMARK  6 active torsions:
REMARK  status: ('A' for Active; 'I' for Inactive)
REMARK    1  A    between atoms: C_1  and  O_2
REMARK    2  A    between atoms: O_2  and  C_3
REMARK    3  A    between atoms: C_6  and  C_7
REMARK    4  A    between atoms: C_12  and  C_13
REMARK    5  A    between atoms: C_19  and  C_20
REMARK    6  A    between atoms: C_20  and  O_21
REMARK                            x       y       z     vdW  Elec       q    Type
REMARK                         _______ _______ _______ _____ _____    ______ ____
ROOT
ATOM      1  C   UNL     1       4.024   5.977  17.533  0.00  0.00    +0.000 A 
ATOM      2  C   UNL     1       3.446   7.187  17.459  0.00  0.00    +0.000 A 
ATOM      3  C   UNL     1       2.575   7.644  18.550  0.00  0.00    +0.000 A 
ATOM      4  C   UNL     1       1.939   8.886  18.495  0.00  0.00    +0.000 A 
ATOM      5  C   UNL     1       1.133   9.316  19.557  0.00  0.00    +0.000 A 
ATOM      6  C   UNL     1       0.959   8.514  20.692  0.00  0.00    +0.000 A 
ATOM      7  C   UNL     1       0.101   8.976  21.834  0.00  0.00    +0.000 C 
ATOM      8  C   UNL     1       1.605   7.273  20.755  0.00  0.00    +0.000 A 
ATOM      9  C   UNL     1       2.397   6.838  19.683  0.00  0.00    +0.000 A 
ATOM     10  C   UNL     1       3.060   5.508  19.725  0.00  0.00    +0.000 A 
ATOM     11  O   UNL     1       2.943   4.758  20.687  0.00  0.00    +0.000 OA
ATOM     12  N   UNL     1       3.814   5.166  18.622  0.00  0.00    +0.000 N 
ATOM     13  H   UNL     1       4.273   4.262  18.669  0.00  0.00    +0.000 HD
ENDROOT
BRANCH   1  17
ATOM     14  C   UNL     1       6.670   4.505  14.493  0.00  0.00    +0.000 A 
ATOM     15  C   UNL     1       5.297   4.282  14.445  0.00  0.00    +0.000 A 
ATOM     16  C   UNL     1       4.463   4.794  15.439  0.00  0.00    +0.000 A 
ATOM     17  C   UNL     1       4.985   5.539  16.510  0.00  0.00    +0.000 A 
ATOM     18  C   UNL     1       6.372   5.790  16.563  0.00  0.00    +0.000 A 
ATOM     19  C   UNL     1       7.196   5.271  15.537  0.00  0.00    +0.000 A 
BRANCH  14  21
ATOM     20  C   UNL     1       6.651   3.579  12.303  0.00  0.00    +0.000 C 
ATOM     21  O   UNL     1       7.381   3.943  13.469  0.00  0.00    +0.000 OA
ENDBRANCH  14  21
BRANCH  18  22
ATOM     22  C   UNL     1       6.991   6.677  17.617  0.00  0.00    +0.000 C 
BRANCH  22  23
ATOM     23  O   UNL     1       7.464   7.900  17.056  0.00  0.00    +0.000 OA
ATOM     24  H   UNL     1       6.678   8.398  16.776  0.00  0.00    +0.000 HD
ENDBRANCH  22  23
ENDBRANCH  18  22
ENDBRANCH   1  17
TORSDOF 4
ENDMDL
MODEL 9
REMARK VINA RESULT:      -7.3      2.589      4.464
REMARK  Name = 
REMARK  6 active torsions:
REMARK  status: ('A' for Active; 'I' for Inactive)
REMARK    1  A    between atoms: C_1  and  O_2
REMARK    2  A    between atoms: O_2  and  C_3
REMARK    3  A    between atoms: C_6  and  C_7
REMARK    4  A    between atoms: C_12  and  C_13
REMARK    5  A    between atoms: C_19  and  C_20
REMARK    6  A    between atoms: C_20  and  O_21
REMARK                            x       y       z     vdW  Elec       q    Type
REMARK                         _______ _______ _______ _____ _____    ______ ____
ROOT
ATOM      1  C   UNL     1       1.770   7.646  20.091  0.00  0.00    +0.000 A 
ATOM      2  C   UNL     1       1.194   7.813  21.293  0.00  0.00    +0.000 A 
ATOM      3  C   UNL     1       0.476   9.060  21.587  0.00  0.00    +0.000 A 
ATOM      4  C   UNL     1      -0.114   9.278  22.834  0.00  0.00    +0.000 A 
ATOM      5  C   UNL     1      -0.816  10.463  23.086  0.00  0.00    +0.000 A 
ATOM      6  C   UNL     1      -0.946  11.443  22.094  0.00  0.00    +0.000 A 
ATOM      7  C   UNL     1      -1.705  12.711  22.361  0.00  0.00    +0.000 C 
ATOM      8  C   UNL     1      -0.365  11.222  20.839  0.00  0.00    +0.000 A 
ATOM      9  C   UNL     1       0.352  10.043  20.594  0.00  0.00    +0.000 A 
ATOM     10  C   UNL     1       1.002   9.813  19.277  0.00  0.00    +0.000 A 
ATOM     11  O   UNL     1       0.930  10.633  18.370  0.00  0.00    +0.000 OA
ATOM     12  N   UNL     1       1.689   8.626  19.133  0.00  0.00    +0.000 N 
ATOM     13  H   UNL     1       2.116   8.475  18.225  0.00  0.00    +0.000 HD
ENDROOT
BRANCH   1  17
ATOM     14  C   UNL     1       3.585   3.842  19.290  0.00  0.00    +0.000 A 
ATOM     15  C   UNL     1       2.673   4.018  20.325  0.00  0.00    +0.000 A 
ATOM     16  C   UNL     1       2.084   5.263  20.544  0.00  0.00    +0.000 A 
ATOM     17  C   UNL     1       2.400   6.366  19.732  0.00  0.00    +0.000 A 
ATOM     18  C   UNL     1       3.310   6.199  18.667  0.00  0.00    +0.000 A 
ATOM     19  C   UNL     1       3.883   4.923  18.457  0.00  0.00    +0.000 A 
BRANCH  14  21
ATOM     20  C   UNL     1       3.442   1.687  18.295  0.00  0.00    +0.000 C 
ATOM     21  O   UNL     1       4.101   2.579  19.185  0.00  0.00    +0.000 OA
ENDBRANCH  14  21
BRANCH  18  22
ATOM     22  C   UNL     1       3.611   7.305  17.683  0.00  0.00    +0.000 C 
BRANCH  22  23
ATOM     23  O   UNL     1       4.644   6.927  16.775  0.00  0.00    +0.000 OA
ATOM     24  H   UNL     1       5.191   6.268  17.236  0.00  0.00    +0.000 HD
ENDBRANCH  22  23
ENDBRANCH  18  22
ENDBRANCH   1  17
TORSDOF 4
ENDMDL
