MODEL 1
REMARK VINA RESULT:      -7.9      0.000      0.000
REMARK  Name = 
REMARK  4 active torsions:
REMARK  status: ('A' for Active; 'I' for Inactive)
REMARK    1  A    between atoms: C_2  and  C_3
REMARK    2  A    between atoms: C_5  and  C_6
REMARK    3  A    between atoms: C_13  and  C_14
REMARK    4  A    between atoms: C_23  and  N_24
REMARK                            x       y       z     vdW  Elec       q    Type
REMARK                         _______ _______ _______ _____ _____    ______ ____
ROOT
ATOM      1  C   UNL     1       0.068  11.701  18.649  0.00  0.00    +0.000 A 
ATOM      2  S   UNL     1       1.688  11.112  18.704  0.00  0.00    +0.000 S 
ATOM      3  C   UNL     1       1.100   9.534  18.376  0.00  0.00    +0.000 A 
ATOM      4  N   UNL     1      -0.132   9.498  17.914  0.00  0.00    +0.000 NA
ATOM      5  C   UNL     1      -0.737  10.751  18.042  0.00  0.00    +0.000 A 
ENDROOT
BRANCH   1   7
ATOM      6  O   UNL     1       0.060  14.030  18.421  0.00  0.00    +0.000 OA
ATOM      7  C   UNL     1      -0.206  13.044  19.105  0.00  0.00    +0.000 C 
ATOM      8  N   UNL     1      -0.833  13.177  20.357  0.00  0.00    +0.000 N 
ATOM      9  C   UNL     1      -1.238  14.500  20.817  0.00  0.00    +0.000 C 
ATOM     10  C   UNL     1      -0.886  14.706  22.288  0.00  0.00    +0.000 C 
ATOM     11  C   UNL     1      -1.326  13.563  23.235  0.00  0.00    +0.000 C 
ATOM     12  C   UNL     1      -0.971  12.200  22.605  0.00  0.00    +0.000 C 
ATOM     13  C   UNL     1      -1.390  12.076  21.142  0.00  0.00    +0.000 C 
BRANCH  11  14
ATOM     14  N   UNL     1      -2.695  13.603  23.805  0.00  0.00    +0.000 NA
ATOM     15  C   UNL     1      -3.527  14.644  23.182  0.00  0.00    +0.000 C 
ATOM     16  C   UNL     1      -4.878  14.804  23.880  0.00  0.00    +0.000 C 
ATOM     17  C   UNL     1      -5.628  13.480  23.915  0.00  0.00    +0.000 C 
ATOM     18  C   UNL     1      -4.766  12.439  24.603  0.00  0.00    +0.000 C 
ATOM     19  C   UNL     1      -3.394  12.327  23.939  0.00  0.00    +0.000 C 
ENDBRANCH  11  14
ENDBRANCH   1   7
BRANCH   3  20
ATOM     20  C   UNL     1       1.987   8.378  18.532  0.00  0.00    +0.000 A 
ATOM     21  C   UNL     1       2.921   8.019  17.543  0.00  0.00    +0.000 A 
ATOM     22  C   UNL     1       3.723   6.884  17.695  0.00  0.00    +0.000 A 
ATOM     23  C   UNL     1       3.603   6.099  18.842  0.00  0.00    +0.000 A 
ATOM     24  C   UNL     1       2.710   6.467  19.847  0.00  0.00    +0.000 A 
ATOM     25  C   UNL     1       1.914   7.605  19.697  0.00  0.00    +0.000 A 
ENDBRANCH   3  20
BRANCH   5  26
ATOM     26  C   UNL     1      -2.113  10.938  17.569  0.00  0.00    +0.000 A 
ATOM     27  C   UNL     1      -3.160  11.388  18.386  0.00  0.00    +0.000 A 
ATOM     28  C   UNL     1      -4.445  11.586  17.863  0.00  0.00    +0.000 A 
ATOM     29  C   UNL     1      -4.707  11.317  16.523  0.00  0.00    +0.000 A 
ATOM     30  C   UNL     1      -3.686  10.849  15.702  0.00  0.00    +0.000 A 
ATOM     31  C   UNL     1      -2.400  10.661  16.222  0.00  0.00    +0.000 A 
ENDBRANCH   5  26
TORSDOF 4
ENDMDL
MODEL 2
REMARK VINA RESULT:      -7.7      3.238      7.621
REMARK  Name = 
REMARK  4 active torsions:
REMARK  status: ('A' for Active; 'I' for Inactive)
REMARK    1  A    between atoms: C_2  and  C_3
REMARK    2  A    between atoms: C_5  and  C_6
REMARK    3  A    between atoms: C_13  and  C_14
REMARK    4  A    between atoms: C_23  and  N_24
REMARK                            x       y       z     vdW  Elec       q    Type
REMARK                         _______ _______ _______ _____ _____    ______ ____
ROOT
ATOM      1  C   UNL     1       0.227  11.350  20.011  0.00  0.00    +0.000 A 
ATOM      2  S   UNL     1       1.389  12.532  20.488  0.00  0.00    +0.000 S 
ATOM      3  C   UNL     1       1.116  13.361  19.010  0.00  0.00    +0.000 A 
ATOM      4  N   UNL     1       0.016  13.003  18.381  0.00  0.00    +0.000 NA
ATOM      5  C   UNL     1      -0.525  11.854  18.962  0.00  0.00    +0.000 A 
ENDROOT
BRANCH   1   7
ATOM      6  O   UNL     1      -0.520  10.068  21.821  0.00  0.00    +0.000 OA
ATOM      7  C   UNL     1       0.119  10.127  20.772  0.00  0.00    +0.000 C 
ATOM      8  N   UNL     1       0.744   8.986  20.238  0.00  0.00    +0.000 N 
ATOM      9  C   UNL     1       0.571   7.699  20.902  0.00  0.00    +0.000 C 
ATOM     10  C   UNL     1       1.892   6.938  20.986  0.00  0.00    +0.000 C 
ATOM     11  C   UNL     1       2.682   6.846  19.658  0.00  0.00    +0.000 C 
ATOM     12  C   UNL     1       2.700   8.225  18.966  0.00  0.00    +0.000 C 
ATOM     13  C   UNL     1       1.330   8.894  18.901  0.00  0.00    +0.000 C 
BRANCH  11  14
ATOM     14  N   UNL     1       2.376   5.731  18.728  0.00  0.00    +0.000 NA
ATOM     15  C   UNL     1       3.570   5.264  18.007  0.00  0.00    +0.000 C 
ATOM     16  C   UNL     1       3.233   4.234  16.928  0.00  0.00    +0.000 C 
ATOM     17  C   UNL     1       2.483   3.053  17.525  0.00  0.00    +0.000 C 
ATOM     18  C   UNL     1       1.234   3.557  18.223  0.00  0.00    +0.000 C 
ATOM     19  C   UNL     1       1.571   4.631  19.257  0.00  0.00    +0.000 C 
ENDBRANCH  11  14
ENDBRANCH   1   7
BRANCH   3  20
ATOM     20  C   UNL     1       2.026  14.433  18.596  0.00  0.00    +0.000 A 
ATOM     21  C   UNL     1       1.627  15.781  18.576  0.00  0.00    +0.000 A 
ATOM     22  C   UNL     1       2.499  16.779  18.132  0.00  0.00    +0.000 A 
ATOM     23  C   UNL     1       3.784  16.438  17.708  0.00  0.00    +0.000 A 
ATOM     24  C   UNL     1       4.204  15.111  17.761  0.00  0.00    +0.000 A 
ATOM     25  C   UNL     1       3.335  14.115  18.212  0.00  0.00    +0.000 A 
ENDBRANCH   3  20
BRANCH   5  26
ATOM     26  C   UNL     1      -1.769  11.292  18.424  0.00  0.00    +0.000 A 
ATOM     27  C   UNL     1      -1.811  10.198  17.549  0.00  0.00    +0.000 A 
ATOM     28  C   UNL     1      -3.035   9.682  17.102  0.00  0.00    +0.000 A 
ATOM     29  C   UNL     1      -4.232  10.264  17.507  0.00  0.00    +0.000 A 
ATOM     30  C   UNL     1      -4.210  11.364  18.359  0.00  0.00    +0.000 A 
ATOM     31  C   UNL     1      -2.988  11.873  18.812  0.00  0.00    +0.000 A 
ENDBRANCH   5  26
TORSDOF 4
ENDMDL
MODEL 3
REMARK VINA RESULT:      -7.7      3.034      7.126
REMARK  Name = 
REMARK  4 active torsions:
REMARK  status: ('A' for Active; 'I' for Inactive)
REMARK    1  A    between atoms: C_2  and  C_3
REMARK    2  A    between atoms: C_5  and  C_6
REMARK    3  A    between atoms: C_13  and  C_14
REMARK    4  A    between atoms: C_23  and  N_24
REMARK                            x       y       z     vdW  Elec       q    Type
REMARK                         _______ _______ _______ _____ _____    ______ ____
ROOT
ATOM      1  C   UNL     1      -0.376  12.019  20.165  0.00  0.00    +0.000 A 
ATOM      2  S   UNL     1       0.732  13.279  20.563  0.00  0.00    +0.000 S 
ATOM      3  C   UNL     1       0.604  13.865  18.955  0.00  0.00    +0.000 A 
ATOM      4  N   UNL     1      -0.429  13.396  18.286  0.00  0.00    +0.000 NA
ATOM      5  C   UNL     1      -1.023  12.342  18.984  0.00  0.00    +0.000 A 
ENDROOT
BRANCH   1   7
ATOM      6  O   UNL     1      -1.228  11.045  22.116  0.00  0.00    +0.000 OA
ATOM      7  C   UNL     1      -0.557  10.926  21.093  0.00  0.00    +0.000 C 
ATOM      8  N   UNL     1       0.036   9.697  20.753  0.00  0.00    +0.000 N 
ATOM      9  C   UNL     1      -0.208   8.529  21.593  0.00  0.00    +0.000 C 
ATOM     10  C   UNL     1       1.077   7.742  21.833  0.00  0.00    +0.000 C 
ATOM     11  C   UNL     1       1.901   7.426  20.561  0.00  0.00    +0.000 C 
ATOM     12  C   UNL     1       1.997   8.686  19.676  0.00  0.00    +0.000 C 
ATOM     13  C   UNL     1       0.657   9.387  19.466  0.00  0.00    +0.000 C 
BRANCH  11  14
ATOM     14  N   UNL     1       1.578   6.197  19.795  0.00  0.00    +0.000 NA
ATOM     15  C   UNL     1       2.456   6.022  18.628  0.00  0.00    +0.000 C 
ATOM     16  C   UNL     1       2.020   4.854  17.742  0.00  0.00    +0.000 C 
ATOM     17  C   UNL     1       1.947   3.564  18.546  0.00  0.00    +0.000 C 
ATOM     18  C   UNL     1       1.000   3.760  19.715  0.00  0.00    +0.000 C 
ATOM     19  C   UNL     1       1.406   4.965  20.562  0.00  0.00    +0.000 C 
ENDBRANCH  11  14
ENDBRANCH   1   7
BRANCH   3  20
ATOM     20  C   UNL     1       1.549  14.875  18.469  0.00  0.00    +0.000 A 
ATOM     21  C   UNL     1       2.818  14.528  17.973  0.00  0.00    +0.000 A 
ATOM     22  C   UNL     1       3.719  15.513  17.559  0.00  0.00    +0.000 A 
ATOM     23  C   UNL     1       3.355  16.858  17.632  0.00  0.00    +0.000 A 
ATOM     24  C   UNL     1       2.086  17.212  18.085  0.00  0.00    +0.000 A 
ATOM     25  C   UNL     1       1.184  16.227  18.491  0.00  0.00    +0.000 A 
ENDBRANCH   3  20
BRANCH   5  26
ATOM     26  C   UNL     1      -2.207  11.684  18.422  0.00  0.00    +0.000 A 
ATOM     27  C   UNL     1      -3.516  11.941  18.852  0.00  0.00    +0.000 A 
ATOM     28  C   UNL     1      -4.609  11.308  18.245  0.00  0.00    +0.000 A 
ATOM     29  C   UNL     1      -4.409  10.396  17.214  0.00  0.00    +0.000 A 
ATOM     30  C   UNL     1      -3.115  10.112  16.787  0.00  0.00    +0.000 A 
ATOM     31  C   UNL     1      -2.024  10.750  17.387  0.00  0.00    +0.000 A 
ENDBRANCH   5  26
TORSDOF 4
ENDMDL
MODEL 4
REMARK VINA RESULT:      -7.6      2.976      7.156
REMARK  Name = 
REMARK  4 active torsions:
REMARK  status: ('A' for Active; 'I' for Inactive)
REMARK    1  A    between atoms: C_2  and  C_3
REMARK    2  A    between atoms: C_5  and  C_6
REMARK    3  A    between atoms: C_13  and  C_14
REMARK    4  A    between atoms: C_23  and  N_24
REMARK                            x       y       z     vdW  Elec       q    Type
REMARK                         _______ _______ _______ _____ _____    ______ ____
ROOT
ATOM      1  C   UNL     1      -0.363  12.098  20.146  0.00  0.00    +0.000 A 
ATOM      2  S   UNL     1       0.809  13.303  20.532  0.00  0.00    +0.000 S 
ATOM      3  C   UNL     1       0.668  13.918  18.937  0.00  0.00    +0.000 A 
ATOM      4  N   UNL     1      -0.401  13.505  18.288  0.00  0.00    +0.000 NA
ATOM      5  C   UNL     1      -1.024  12.468  18.986  0.00  0.00    +0.000 A 
ENDROOT
BRANCH   1   7
ATOM      6  O   UNL     1      -1.270  11.114  22.066  0.00  0.00    +0.000 OA
ATOM      7  C   UNL     1      -0.569  11.000  21.062  0.00  0.00    +0.000 C 
ATOM      8  N   UNL     1       0.036   9.774  20.734  0.00  0.00    +0.000 N 
ATOM      9  C   UNL     1      -0.231   8.602  21.560  0.00  0.00    +0.000 C 
ATOM     10  C   UNL     1       1.048   7.815  21.835  0.00  0.00    +0.000 C 
ATOM     11  C   UNL     1       1.910   7.508  20.586  0.00  0.00    +0.000 C 
ATOM     12  C   UNL     1       2.029   8.772  19.710  0.00  0.00    +0.000 C 
ATOM     13  C   UNL     1       0.695   9.472  19.465  0.00  0.00    +0.000 C 
BRANCH  11  14
ATOM     14  N   UNL     1       1.611   6.282  19.804  0.00  0.00    +0.000 NA
ATOM     15  C   UNL     1       2.513   6.122  18.654  0.00  0.00    +0.000 C 
ATOM     16  C   UNL     1       2.104   4.957  17.751  0.00  0.00    +0.000 C 
ATOM     17  C   UNL     1       2.025   3.661  18.544  0.00  0.00    +0.000 C 
ATOM     18  C   UNL     1       1.054   3.841  19.695  0.00  0.00    +0.000 C 
ATOM     19  C   UNL     1       1.433   5.043  20.559  0.00  0.00    +0.000 C 
ENDBRANCH  11  14
ENDBRANCH   1   7
BRANCH   3  20
ATOM     20  C   UNL     1       1.644  14.893  18.441  0.00  0.00    +0.000 A 
ATOM     21  C   UNL     1       1.347  16.265  18.357  0.00  0.00    +0.000 A 
ATOM     22  C   UNL     1       2.279  17.167  17.837  0.00  0.00    +0.000 A 
ATOM     23  C   UNL     1       3.521  16.706  17.400  0.00  0.00    +0.000 A 
ATOM     24  C   UNL     1       3.841  15.355  17.515  0.00  0.00    +0.000 A 
ATOM     25  C   UNL     1       2.912  14.455  18.042  0.00  0.00    +0.000 A 
ENDBRANCH   3  20
BRANCH   5  26
ATOM     26  C   UNL     1      -2.250  11.870  18.445  0.00  0.00    +0.000 A 
ATOM     27  C   UNL     1      -2.271  11.006  17.341  0.00  0.00    +0.000 A 
ATOM     28  C   UNL     1      -3.471  10.435  16.898  0.00  0.00    +0.000 A 
ATOM     29  C   UNL     1      -4.670  10.735  17.539  0.00  0.00    +0.000 A 
ATOM     30  C   UNL     1      -4.672  11.606  18.623  0.00  0.00    +0.000 A 
ATOM     31  C   UNL     1      -3.472  12.170  19.071  0.00  0.00    +0.000 A 
ENDBRANCH   5  26
TORSDOF 4
ENDMDL
MODEL 5
REMARK VINA RESULT:      -7.1      4.479      6.683
REMARK  Name = 
REMARK  4 active torsions:
REMARK  status: ('A' for Active; 'I' for Inactive)
REMARK    1  A    between atoms: C_2  and  C_3
REMARK    2  A    between atoms: C_5  and  C_6
REMARK    3  A    between atoms: C_13  and  C_14
REMARK    4  A    between atoms: C_23  and  N_24
REMARK                            x       y       z     vdW  Elec       q    Type
REMARK                         _______ _______ _______ _____ _____    ______ ____
ROOT
ATOM      1  C   UNL     1       2.048  15.264  20.155  0.00  0.00    +0.000 A 
ATOM      2  S   UNL     1       3.564  14.795  20.832  0.00  0.00    +0.000 S 
ATOM      3  C   UNL     1       4.339  15.311  19.390  0.00  0.00    +0.000 A 
ATOM      4  N   UNL     1       3.599  16.085  18.623  0.00  0.00    +0.000 NA
ATOM      5  C   UNL     1       2.275  16.089  19.066  0.00  0.00    +0.000 A 
ENDROOT
BRANCH   1   7
ATOM      6  O   UNL     1       0.373  15.482  21.776  0.00  0.00    +0.000 OA
ATOM      7  C   UNL     1       0.830  14.860  20.819  0.00  0.00    +0.000 C 
ATOM      8  N   UNL     1       0.158  13.741  20.295  0.00  0.00    +0.000 N 
ATOM      9  C   UNL     1      -1.134  13.357  20.851  0.00  0.00    +0.000 C 
ATOM     10  C   UNL     1      -1.225  11.846  21.048  0.00  0.00    +0.000 C 
ATOM     11  C   UNL     1      -0.803  10.998  19.824  0.00  0.00    +0.000 C 
ATOM     12  C   UNL     1       0.504  11.558  19.227  0.00  0.00    +0.000 C 
ATOM     13  C   UNL     1       0.489  13.072  19.037  0.00  0.00    +0.000 C 
BRANCH  11  14
ATOM     14  N   UNL     1      -1.826  10.682  18.796  0.00  0.00    +0.000 NA
ATOM     15  C   UNL     1      -2.843  11.739  18.680  0.00  0.00    +0.000 C 
ATOM     16  C   UNL     1      -3.989  11.343  17.747  0.00  0.00    +0.000 C 
ATOM     17  C   UNL     1      -3.460  10.968  16.370  0.00  0.00    +0.000 C 
ATOM     18  C   UNL     1      -2.448   9.847  16.515  0.00  0.00    +0.000 C 
ATOM     19  C   UNL     1      -1.338  10.224  17.496  0.00  0.00    +0.000 C 
ENDBRANCH  11  14
ENDBRANCH   1   7
BRANCH   3  20
ATOM     20  C   UNL     1       5.740  14.957  19.148  0.00  0.00    +0.000 A 
ATOM     21  C   UNL     1       6.708  15.015  20.166  0.00  0.00    +0.000 A 
ATOM     22  C   UNL     1       8.047  14.717  19.898  0.00  0.00    +0.000 A 
ATOM     23  C   UNL     1       8.431  14.352  18.607  0.00  0.00    +0.000 A 
ATOM     24  C   UNL     1       7.474  14.252  17.600  0.00  0.00    +0.000 A 
ATOM     25  C   UNL     1       6.135  14.543  17.870  0.00  0.00    +0.000 A 
ENDBRANCH   3  20
BRANCH   5  26
ATOM     26  C   UNL     1       1.281  16.904  18.359  0.00  0.00    +0.000 A 
ATOM     27  C   UNL     1      -0.078  16.938  18.699  0.00  0.00    +0.000 A 
ATOM     28  C   UNL     1      -0.970  17.771  18.010  0.00  0.00    +0.000 A 
ATOM     29  C   UNL     1      -0.520  18.567  16.961  0.00  0.00    +0.000 A 
ATOM     30  C   UNL     1       0.822  18.531  16.596  0.00  0.00    +0.000 A 
ATOM     31  C   UNL     1       1.714  17.706  17.289  0.00  0.00    +0.000 A 
ENDBRANCH   5  26
TORSDOF 4
ENDMDL
MODEL 6
REMARK VINA RESULT:      -7.1      2.790      4.989
REMARK  Name = 
REMARK  4 active torsions:
REMARK  status: ('A' for Active; 'I' for Inactive)
REMARK    1  A    between atoms: C_2  and  C_3
REMARK    2  A    between atoms: C_5  and  C_6
REMARK    3  A    between atoms: C_13  and  C_14
REMARK    4  A    between atoms: C_23  and  N_24
REMARK                            x       y       z     vdW  Elec       q    Type
REMARK                         _______ _______ _______ _____ _____    ______ ____
ROOT
ATOM      1  C   UNL     1      -1.110  11.992  21.225  0.00  0.00    +0.000 A 
ATOM      2  S   UNL     1      -0.604  10.359  21.457  0.00  0.00    +0.000 S 
ATOM      3  C   UNL     1       0.536  10.559  20.190  0.00  0.00    +0.000 A 
ATOM      4  N   UNL     1       0.774  11.813  19.866  0.00  0.00    +0.000 NA
ATOM      5  C   UNL     1      -0.155  12.659  20.475  0.00  0.00    +0.000 A 
ENDROOT
BRANCH   1   7
ATOM      6  O   UNL     1      -2.339  12.725  23.077  0.00  0.00    +0.000 OA
ATOM      7  C   UNL     1      -2.314  12.453  21.879  0.00  0.00    +0.000 C 
ATOM      8  N   UNL     1      -3.454  12.618  21.073  0.00  0.00    +0.000 N 
ATOM      9  C   UNL     1      -4.664  13.189  21.654  0.00  0.00    +0.000 C 
ATOM     10  C   UNL     1      -5.906  12.422  21.211  0.00  0.00    +0.000 C 
ATOM     11  C   UNL     1      -6.013  12.171  19.687  0.00  0.00    +0.000 C 
ATOM     12  C   UNL     1      -4.652  11.693  19.141  0.00  0.00    +0.000 C 
ATOM     13  C   UNL     1      -3.473  12.539  19.613  0.00  0.00    +0.000 C 
BRANCH  11  14
ATOM     14  N   UNL     1      -6.648  13.211  18.841  0.00  0.00    +0.000 NA
ATOM     15  C   UNL     1      -6.427  14.567  19.366  0.00  0.00    +0.000 C 
ATOM     16  C   UNL     1      -7.219  15.626  18.597  0.00  0.00    +0.000 C 
ATOM     17  C   UNL     1      -6.887  15.575  17.113  0.00  0.00    +0.000 C 
ATOM     18  C   UNL     1      -7.168  14.180  16.588  0.00  0.00    +0.000 C 
ATOM     19  C   UNL     1      -6.422  13.121  17.400  0.00  0.00    +0.000 C 
ENDBRANCH  11  14
ENDBRANCH   1   7
BRANCH   3  20
ATOM     20  C   UNL     1       1.218   9.388  19.631  0.00  0.00    +0.000 A 
ATOM     21  C   UNL     1       1.503   8.252  20.409  0.00  0.00    +0.000 A 
ATOM     22  C   UNL     1       2.196   7.167  19.864  0.00  0.00    +0.000 A 
ATOM     23  C   UNL     1       2.605   7.205  18.531  0.00  0.00    +0.000 A 
ATOM     24  C   UNL     1       2.293   8.308  17.739  0.00  0.00    +0.000 A 
ATOM     25  C   UNL     1       1.594   9.389  18.282  0.00  0.00    +0.000 A 
ENDBRANCH   3  20
BRANCH   5  26
ATOM     26  C   UNL     1      -0.060  14.106  20.259  0.00  0.00    +0.000 A 
ATOM     27  C   UNL     1       0.237  15.025  21.275  0.00  0.00    +0.000 A 
ATOM     28  C   UNL     1       0.354  16.393  20.996  0.00  0.00    +0.000 A 
ATOM     29  C   UNL     1       0.156  16.865  19.702  0.00  0.00    +0.000 A 
ATOM     30  C   UNL     1      -0.161  15.971  18.684  0.00  0.00    +0.000 A 
ATOM     31  C   UNL     1      -0.269  14.603  18.962  0.00  0.00    +0.000 A 
ENDBRANCH   5  26
TORSDOF 4
ENDMDL
MODEL 7
REMARK VINA RESULT:      -7.1      5.196      7.352
REMARK  Name = 
REMARK  4 active torsions:
REMARK  status: ('A' for Active; 'I' for Inactive)
REMARK    1  A    between atoms: C_2  and  C_3
REMARK    2  A    between atoms: C_5  and  C_6
REMARK    3  A    between atoms: C_13  and  C_14
REMARK    4  A    between atoms: C_23  and  N_24
REMARK                            x       y       z     vdW  Elec       q    Type
REMARK                         _______ _______ _______ _____ _____    ______ ____
ROOT
ATOM      1  C   UNL     1       3.045  15.821  20.001  0.00  0.00    +0.000 A 
ATOM      2  S   UNL     1       4.675  15.591  20.518  0.00  0.00    +0.000 S 
ATOM      3  C   UNL     1       5.214  16.199  19.007  0.00  0.00    +0.000 A 
ATOM      4  N   UNL     1       4.294  16.846  18.322  0.00  0.00    +0.000 NA
ATOM      5  C   UNL     1       3.036  16.658  18.897  0.00  0.00    +0.000 A 
ENDROOT
BRANCH   1   7
ATOM      6  O   UNL     1       1.684  15.676  21.900  0.00  0.00    +0.000 OA
ATOM      7  C   UNL     1       1.974  15.249  20.784  0.00  0.00    +0.000 C 
ATOM      8  N   UNL     1       1.243  14.202  20.195  0.00  0.00    +0.000 N 
ATOM      9  C   UNL     1       0.079  13.664  20.891  0.00  0.00    +0.000 C 
ATOM     10  C   UNL     1       0.055  12.139  20.832  0.00  0.00    +0.000 C 
ATOM     11  C   UNL     1       0.268  11.533  19.424  0.00  0.00    +0.000 C 
ATOM     12  C   UNL     1       1.436  12.252  18.718  0.00  0.00    +0.000 C 
ATOM     13  C   UNL     1       1.356  13.774  18.802  0.00  0.00    +0.000 C 
BRANCH  11  14
ATOM     14  N   UNL     1      -0.916  11.344  18.549  0.00  0.00    +0.000 NA
ATOM     15  C   UNL     1      -0.906  10.037  17.874  0.00  0.00    +0.000 C 
ATOM     16  C   UNL     1      -2.029   9.905  16.844  0.00  0.00    +0.000 C 
ATOM     17  C   UNL     1      -3.385  10.155  17.489  0.00  0.00    +0.000 C 
ATOM     18  C   UNL     1      -3.381  11.527  18.137  0.00  0.00    +0.000 C 
ATOM     19  C   UNL     1      -2.220  11.674  19.120  0.00  0.00    +0.000 C 
ENDBRANCH  11  14
ENDBRANCH   1   7
BRANCH   3  20
ATOM     20  C   UNL     1       6.621  16.053  18.621  0.00  0.00    +0.000 A 
ATOM     21  C   UNL     1       7.183  14.799  18.323  0.00  0.00    +0.000 A 
ATOM     22  C   UNL     1       8.539  14.681  18.004  0.00  0.00    +0.000 A 
ATOM     23  C   UNL     1       9.346  15.820  17.975  0.00  0.00    +0.000 A 
ATOM     24  C   UNL     1       8.791  17.072  18.230  0.00  0.00    +0.000 A 
ATOM     25  C   UNL     1       7.434  17.190  18.542  0.00  0.00    +0.000 A 
ENDBRANCH   3  20
BRANCH   5  26
ATOM     26  C   UNL     1       1.865  17.309  18.299  0.00  0.00    +0.000 A 
ATOM     27  C   UNL     1       0.678  17.565  18.997  0.00  0.00    +0.000 A 
ATOM     28  C   UNL     1      -0.391  18.229  18.379  0.00  0.00    +0.000 A 
ATOM     29  C   UNL     1      -0.294  18.629  17.050  0.00  0.00    +0.000 A 
ATOM     30  C   UNL     1       0.870  18.366  16.334  0.00  0.00    +0.000 A 
ATOM     31  C   UNL     1       1.939  17.711  16.954  0.00  0.00    +0.000 A 
ENDBRANCH   5  26
TORSDOF 4
ENDMDL
MODEL 8
REMARK VINA RESULT:      -7.1      2.818      5.035
REMARK  Name = 
REMARK  4 active torsions:
REMARK  status: ('A' for Active; 'I' for Inactive)
REMARK    1  A    between atoms: C_2  and  C_3
REMARK    2  A    between atoms: C_5  and  C_6
REMARK    3  A    between atoms: C_13  and  C_14
REMARK    4  A    between atoms: C_23  and  N_24
REMARK                            x       y       z     vdW  Elec       q    Type
REMARK                         _______ _______ _______ _____ _____    ______ ____
ROOT
ATOM      1  C   UNL     1      -0.730  11.663  21.348  0.00  0.00    +0.000 A 
ATOM      2  S   UNL     1      -0.359   9.979  21.402  0.00  0.00    +0.000 S 
ATOM      3  C   UNL     1       0.862  10.236  20.224  0.00  0.00    +0.000 A 
ATOM      4  N   UNL     1       1.209  11.496  20.067  0.00  0.00    +0.000 NA
ATOM      5  C   UNL     1       0.312  12.335  20.731  0.00  0.00    +0.000 A 
ENDROOT
BRANCH   1   7
ATOM      6  O   UNL     1      -2.005  12.264  23.217  0.00  0.00    +0.000 OA
ATOM      7  C   UNL     1      -1.932  12.137  21.996  0.00  0.00    +0.000 C 
ATOM      8  N   UNL     1      -3.008  12.491  21.164  0.00  0.00    +0.000 N 
ATOM      9  C   UNL     1      -4.203  13.084  21.754  0.00  0.00    +0.000 C 
ATOM     10  C   UNL     1      -5.472  12.480  21.159  0.00  0.00    +0.000 C 
ATOM     11  C   UNL     1      -5.510  12.425  19.612  0.00  0.00    +0.000 C 
ATOM     12  C   UNL     1      -4.159  11.907  19.076  0.00  0.00    +0.000 C 
ATOM     13  C   UNL     1      -2.949  12.592  19.707  0.00  0.00    +0.000 C 
BRANCH  11  14
ATOM     14  N   UNL     1      -6.016  13.609  18.874  0.00  0.00    +0.000 NA
ATOM     15  C   UNL     1      -6.545  13.253  17.548  0.00  0.00    +0.000 C 
ATOM     16  C   UNL     1      -6.910  14.485  16.718  0.00  0.00    +0.000 C 
ATOM     17  C   UNL     1      -7.903  15.364  17.464  0.00  0.00    +0.000 C 
ATOM     18  C   UNL     1      -7.313  15.752  18.806  0.00  0.00    +0.000 C 
ATOM     19  C   UNL     1      -6.893  14.519  19.606  0.00  0.00    +0.000 C 
ENDBRANCH  11  14
ENDBRANCH   1   7
BRANCH   3  20
ATOM     20  C   UNL     1       1.486   9.088  19.559  0.00  0.00    +0.000 A 
ATOM     21  C   UNL     1       1.742   7.884  20.238  0.00  0.00    +0.000 A 
ATOM     22  C   UNL     1       2.381   6.821  19.593  0.00  0.00    +0.000 A 
ATOM     23  C   UNL     1       2.766   6.951  18.258  0.00  0.00    +0.000 A 
ATOM     24  C   UNL     1       2.481   8.125  17.564  0.00  0.00    +0.000 A 
ATOM     25  C   UNL     1       1.836   9.184  18.207  0.00  0.00    +0.000 A 
ENDBRANCH   3  20
BRANCH   5  26
ATOM     26  C   UNL     1       0.524  13.786  20.699  0.00  0.00    +0.000 A 
ATOM     27  C   UNL     1       0.737  14.565  21.844  0.00  0.00    +0.000 A 
ATOM     28  C   UNL     1       0.975  15.942  21.743  0.00  0.00    +0.000 A 
ATOM     29  C   UNL     1       0.984  16.564  20.497  0.00  0.00    +0.000 A 
ATOM     30  C   UNL     1       0.755  15.810  19.350  0.00  0.00    +0.000 A 
ATOM     31  C   UNL     1       0.526  14.434  19.451  0.00  0.00    +0.000 A 
ENDBRANCH   5  26
TORSDOF 4
ENDMDL
MODEL 9
REMARK VINA RESULT:      -7.1      2.764      4.956
REMARK  Name = 
REMARK  4 active torsions:
REMARK  status: ('A' for Active; 'I' for Inactive)
REMARK    1  A    between atoms: C_2  and  C_3
REMARK    2  A    between atoms: C_5  and  C_6
REMARK    3  A    between atoms: C_13  and  C_14
REMARK    4  A    between atoms: C_23  and  N_24
REMARK                            x       y       z     vdW  Elec       q    Type
REMARK                         _______ _______ _______ _____ _____    ______ ____
ROOT
ATOM      1  C   UNL     1      -1.034  11.999  21.108  0.00  0.00    +0.000 A 
ATOM      2  S   UNL     1      -0.491  10.381  21.356  0.00  0.00    +0.000 S 
ATOM      3  C   UNL     1       0.619  10.581  20.063  0.00  0.00    +0.000 A 
ATOM      4  N   UNL     1       0.825  11.834  19.713  0.00  0.00    +0.000 NA
ATOM      5  C   UNL     1      -0.108  12.672  20.328  0.00  0.00    +0.000 A 
ENDROOT
BRANCH   1   7
ATOM      6  O   UNL     1      -2.246  12.709  22.981  0.00  0.00    +0.000 OA
ATOM      7  C   UNL     1      -2.233  12.446  21.780  0.00  0.00    +0.000 C 
ATOM      8  N   UNL     1      -3.384  12.611  20.988  0.00  0.00    +0.000 N 
ATOM      9  C   UNL     1      -4.590  13.170  21.589  0.00  0.00    +0.000 C 
ATOM     10  C   UNL     1      -5.833  12.399  21.153  0.00  0.00    +0.000 C 
ATOM     11  C   UNL     1      -5.956  12.160  19.628  0.00  0.00    +0.000 C 
ATOM     12  C   UNL     1      -4.598  11.695  19.062  0.00  0.00    +0.000 C 
ATOM     13  C   UNL     1      -3.419  12.545  19.528  0.00  0.00    +0.000 C 
BRANCH  11  14
ATOM     14  N   UNL     1      -6.607  13.203  18.798  0.00  0.00    +0.000 NA
ATOM     15  C   UNL     1      -6.397  14.555  19.338  0.00  0.00    +0.000 C 
ATOM     16  C   UNL     1      -7.204  15.615  18.587  0.00  0.00    +0.000 C 
ATOM     17  C   UNL     1      -6.882  15.585  17.100  0.00  0.00    +0.000 C 
ATOM     18  C   UNL     1      -7.150  14.193  16.560  0.00  0.00    +0.000 C 
ATOM     19  C   UNL     1      -6.388  13.133  17.355  0.00  0.00    +0.000 C 
ENDBRANCH  11  14
ENDBRANCH   1   7
BRANCH   3  20
ATOM     20  C   UNL     1       1.312   9.415  19.508  0.00  0.00    +0.000 A 
ATOM     21  C   UNL     1       1.742   9.373  18.170  0.00  0.00    +0.000 A 
ATOM     22  C   UNL     1       2.359   8.230  17.653  0.00  0.00    +0.000 A 
ATOM     23  C   UNL     1       2.557   7.118  18.472  0.00  0.00    +0.000 A 
ATOM     24  C   UNL     1       2.170   7.163  19.810  0.00  0.00    +0.000 A 
ATOM     25  C   UNL     1       1.561   8.308  20.328  0.00  0.00    +0.000 A 
ENDBRANCH   3  20
BRANCH   5  26
ATOM     26  C   UNL     1      -0.047  14.117  20.087  0.00  0.00    +0.000 A 
ATOM     27  C   UNL     1      -0.285  14.707  18.838  0.00  0.00    +0.000 A 
ATOM     28  C   UNL     1      -0.252  16.099  18.682  0.00  0.00    +0.000 A 
ATOM     29  C   UNL     1       0.038  16.920  19.767  0.00  0.00    +0.000 A 
ATOM     30  C   UNL     1       0.297  16.352  21.011  0.00  0.00    +0.000 A 
ATOM     31  C   UNL     1       0.256  14.962  21.168  0.00  0.00    +0.000 A 
ENDBRANCH   5  26
TORSDOF 4
ENDMDL
