MODEL 1
REMARK VINA RESULT:      -8.0      0.000      0.000
REMARK  Name = 
REMARK  8 active torsions:
REMARK  status: ('A' for Active; 'I' for Inactive)
REMARK    1  A    between atoms: C_1  and  C_2
REMARK    2  A    between atoms: C_6  and  C_7
REMARK    3  A    between atoms: C_7  and  O_9
REMARK    4  A    between atoms: O_9  and  C_10
REMARK    5  A    between atoms: C_13  and  C_14
REMARK    6  A    between atoms: C_14  and  S_15
REMARK    7  A    between atoms: S_15  and  C_16
REMARK    8  A    between atoms: C_21  and  C_23
REMARK                            x       y       z     vdW  Elec       q    Type
REMARK                         _______ _______ _______ _____ _____    ______ ____
ROOT
ATOM      1  C   UNL     1       4.969   4.728  17.414  0.00  0.00    +0.000 A 
ATOM      2  C   UNL     1       4.271   5.789  16.990  0.00  0.00    +0.000 A 
ATOM      3  O   UNL     1       3.432   6.548  17.775  0.00  0.00    +0.000 OA
ATOM      4  C   UNL     1       3.226   6.166  19.098  0.00  0.00    +0.000 A 
ATOM      5  C   UNL     1       3.893   5.143  19.658  0.00  0.00    +0.000 A 
ATOM      6  C   UNL     1       4.872   4.378  18.855  0.00  0.00    +0.000 A 
ATOM      7  O   UNL     1       5.594   3.535  19.376  0.00  0.00    +0.000 OA
ENDROOT
BRANCH   1   8
ATOM      8  O   UNL     1       5.843   4.015  16.585  0.00  0.00    +0.000 OA
BRANCH   8   9
ATOM      9  C   UNL     1       6.808   4.827  16.052  0.00  0.00    +0.000 C 
ATOM     10  O   UNL     1       7.526   5.601  16.667  0.00  0.00    +0.000 OA
BRANCH   9  16
ATOM     11  C   UNL     1       5.468   2.470  11.789  0.00  0.00    +0.000 C 
ATOM     12  C   UNL     1       6.272   3.516  12.503  0.00  0.00    +0.000 A 
ATOM     13  C   UNL     1       7.133   4.366  11.800  0.00  0.00    +0.000 A 
ATOM     14  C   UNL     1       7.876   5.337  12.470  0.00  0.00    +0.000 A 
ATOM     15  C   UNL     1       7.765   5.466  13.855  0.00  0.00    +0.000 A 
ATOM     16  C   UNL     1       6.907   4.625  14.579  0.00  0.00    +0.000 A 
ATOM     17  C   UNL     1       6.162   3.653  13.895  0.00  0.00    +0.000 A 
ENDBRANCH   9  16
ENDBRANCH   8   9
ENDBRANCH   1   8
BRANCH   4  18
ATOM     18  C   UNL     1       2.259   7.032  19.872  0.00  0.00    +0.000 C 
BRANCH  18  19
ATOM     19  S   UNL     1       1.811   8.525  18.926  0.00  0.00    +0.000 S 
BRANCH  19  20
ATOM     20  C   UNL     1       0.915   9.431  20.130  0.00  0.00    +0.000 A 
ATOM     21  N   UNL     1       1.170   9.338  21.418  0.00  0.00    +0.000 NA
ATOM     22  N   UNL     1       0.370  10.177  22.164  0.00  0.00    +0.000 NA
ATOM     23  C   UNL     1      -0.482  10.848  21.418  0.00  0.00    +0.000 A 
ATOM     24  N   UNL     1      -1.341  11.757  21.973  0.00  0.00    +0.000 N 
ATOM     25  C   UNL     1      -2.359  12.449  21.373  0.00  0.00    +0.000 C 
ATOM     26  O   UNL     1      -2.748  12.376  20.222  0.00  0.00    +0.000 OA
ATOM     27  S   UNL     1      -0.359  10.527  19.750  0.00  0.00    +0.000 S 
ATOM     28  H   UNL     1      -1.196  11.897  22.961  0.00  0.00    +0.000 HD
BRANCH  25  29
ATOM     29  C   UNL     1      -2.996  13.400  22.345  0.00  0.00    +0.000 C 
ATOM     30  C   UNL     1      -4.299  13.011  23.000  0.00  0.00    +0.000 C 
ATOM     31  C   UNL     1      -3.057  13.148  23.830  0.00  0.00    +0.000 C 
ENDBRANCH  25  29
ENDBRANCH  19  20
ENDBRANCH  18  19
ENDBRANCH   4  18
TORSDOF 7
ENDMDL
MODEL 2
REMARK VINA RESULT:      -8.0      2.892      4.129
REMARK  Name = 
REMARK  8 active torsions:
REMARK  status: ('A' for Active; 'I' for Inactive)
REMARK    1  A    between atoms: C_1  and  C_2
REMARK    2  A    between atoms: C_6  and  C_7
REMARK    3  A    between atoms: C_7  and  O_9
REMARK    4  A    between atoms: O_9  and  C_10
REMARK    5  A    between atoms: C_13  and  C_14
REMARK    6  A    between atoms: C_14  and  S_15
REMARK    7  A    between atoms: S_15  and  C_16
REMARK    8  A    between atoms: C_21  and  C_23
REMARK                            x       y       z     vdW  Elec       q    Type
REMARK                         _______ _______ _______ _____ _____    ______ ____
ROOT
ATOM      1  C   UNL     1       2.649   5.095  19.058  0.00  0.00    +0.000 A 
ATOM      2  C   UNL     1       2.660   6.188  18.286  0.00  0.00    +0.000 A 
ATOM      3  O   UNL     1       2.228   7.436  18.677  0.00  0.00    +0.000 OA
ATOM      4  C   UNL     1       1.672   7.584  19.945  0.00  0.00    +0.000 A 
ATOM      5  C   UNL     1       1.634   6.575  20.831  0.00  0.00    +0.000 A 
ATOM      6  C   UNL     1       2.185   5.253  20.461  0.00  0.00    +0.000 A 
ATOM      7  O   UNL     1       2.292   4.359  21.293  0.00  0.00    +0.000 OA
ENDROOT
BRANCH   1   8
ATOM      8  O   UNL     1       3.142   3.857  18.626  0.00  0.00    +0.000 OA
BRANCH   8   9
ATOM      9  C   UNL     1       4.476   3.722  18.899  0.00  0.00    +0.000 C 
ATOM     10  O   UNL     1       4.968   3.078  19.814  0.00  0.00    +0.000 OA
BRANCH   9  16
ATOM     11  C   UNL     1       7.714   7.380  17.613  0.00  0.00    +0.000 C 
ATOM     12  C   UNL     1       6.866   6.200  17.241  0.00  0.00    +0.000 A 
ATOM     13  C   UNL     1       6.833   5.724  15.926  0.00  0.00    +0.000 A 
ATOM     14  C   UNL     1       6.042   4.626  15.588  0.00  0.00    +0.000 A 
ATOM     15  C   UNL     1       5.275   3.993  16.566  0.00  0.00    +0.000 A 
ATOM     16  C   UNL     1       5.294   4.454  17.891  0.00  0.00    +0.000 A 
ATOM     17  C   UNL     1       6.094   5.558  18.221  0.00  0.00    +0.000 A 
ENDBRANCH   9  16
ENDBRANCH   8   9
ENDBRANCH   1   8
BRANCH   4  18
ATOM     18  C   UNL     1       1.187   8.978  20.273  0.00  0.00    +0.000 C 
BRANCH  18  19
ATOM     19  S   UNL     1       1.202  10.045  18.795  0.00  0.00    +0.000 S 
BRANCH  19  20
ATOM     20  C   UNL     1      -0.379  10.794  18.903  0.00  0.00    +0.000 A 
ATOM     21  N   UNL     1      -0.735  11.546  19.922  0.00  0.00    +0.000 NA
ATOM     22  N   UNL     1      -2.004  12.062  19.763  0.00  0.00    +0.000 NA
ATOM     23  C   UNL     1      -2.573  11.654  18.648  0.00  0.00    +0.000 A 
ATOM     24  N   UNL     1      -3.824  12.084  18.297  0.00  0.00    +0.000 N 
ATOM     25  C   UNL     1      -4.605  11.677  17.248  0.00  0.00    +0.000 C 
ATOM     26  O   UNL     1      -4.371  10.814  16.421  0.00  0.00    +0.000 OA
ATOM     27  S   UNL     1      -1.599  10.631  17.697  0.00  0.00    +0.000 S 
ATOM     28  H   UNL     1      -4.204  12.773  18.925  0.00  0.00    +0.000 HD
BRANCH  25  29
ATOM     29  C   UNL     1      -5.877  12.473  17.197  0.00  0.00    +0.000 C 
ATOM     30  C   UNL     1      -7.081  11.974  17.958  0.00  0.00    +0.000 C 
ATOM     31  C   UNL     1      -6.413  13.252  18.370  0.00  0.00    +0.000 C 
ENDBRANCH  25  29
ENDBRANCH  19  20
ENDBRANCH  18  19
ENDBRANCH   4  18
TORSDOF 7
ENDMDL
MODEL 3
REMARK VINA RESULT:      -7.9      7.378      9.340
REMARK  Name = 
REMARK  8 active torsions:
REMARK  status: ('A' for Active; 'I' for Inactive)
REMARK    1  A    between atoms: C_1  and  C_2
REMARK    2  A    between atoms: C_6  and  C_7
REMARK    3  A    between atoms: C_7  and  O_9
REMARK    4  A    between atoms: O_9  and  C_10
REMARK    5  A    between atoms: C_13  and  C_14
REMARK    6  A    between atoms: C_14  and  S_15
REMARK    7  A    between atoms: S_15  and  C_16
REMARK    8  A    between atoms: C_21  and  C_23
REMARK                            x       y       z     vdW  Elec       q    Type
REMARK                         _______ _______ _______ _____ _____    ______ ____
ROOT
ATOM      1  C   UNL     1       6.560   5.571  18.018  0.00  0.00    +0.000 A 
ATOM      2  C   UNL     1       6.180   6.484  17.116  0.00  0.00    +0.000 A 
ATOM      3  O   UNL     1       6.756   7.724  16.956  0.00  0.00    +0.000 OA
ATOM      4  C   UNL     1       7.769   8.109  17.831  0.00  0.00    +0.000 A 
ATOM      5  C   UNL     1       8.267   7.274  18.758  0.00  0.00    +0.000 A 
ATOM      6  C   UNL     1       7.727   5.903  18.877  0.00  0.00    +0.000 A 
ATOM      7  O   UNL     1       8.255   5.078  19.614  0.00  0.00    +0.000 OA
ENDROOT
BRANCH   1   8
ATOM      8  O   UNL     1       5.969   4.305  18.111  0.00  0.00    +0.000 OA
BRANCH   8   9
ATOM      9  C   UNL     1       4.895   4.186  17.271  0.00  0.00    +0.000 C 
ATOM     10  O   UNL     1       4.910   4.294  16.053  0.00  0.00    +0.000 OA
BRANCH   9  16
ATOM     11  C   UNL     1       2.299   3.923  21.597  0.00  0.00    +0.000 C 
ATOM     12  C   UNL     1       2.377   3.740  20.110  0.00  0.00    +0.000 A 
ATOM     13  C   UNL     1       1.272   3.283  19.383  0.00  0.00    +0.000 A 
ATOM     14  C   UNL     1       1.352   3.116  18.001  0.00  0.00    +0.000 A 
ATOM     15  C   UNL     1       2.541   3.406  17.331  0.00  0.00    +0.000 A 
ATOM     16  C   UNL     1       3.660   3.867  18.041  0.00  0.00    +0.000 A 
ATOM     17  C   UNL     1       3.569   4.033  19.431  0.00  0.00    +0.000 A 
ENDBRANCH   9  16
ENDBRANCH   8   9
ENDBRANCH   1   8
BRANCH   4  18
ATOM     18  C   UNL     1       8.313   9.502  17.608  0.00  0.00    +0.000 C 
BRANCH  18  19
ATOM     19  S   UNL     1       9.124  10.140  19.111  0.00  0.00    +0.000 S 
BRANCH  19  20
ATOM     20  C   UNL     1       9.953  11.548  18.475  0.00  0.00    +0.000 A 
ATOM     21  N   UNL     1      10.922  11.456  17.589  0.00  0.00    +0.000 NA
ATOM     22  N   UNL     1      11.387  12.696  17.204  0.00  0.00    +0.000 NA
ATOM     23  C   UNL     1      10.779  13.676  17.837  0.00  0.00    +0.000 A 
ATOM     24  N   UNL     1      11.081  14.983  17.568  0.00  0.00    +0.000 N 
ATOM     25  C   UNL     1      10.638  16.112  18.204  0.00  0.00    +0.000 C 
ATOM     26  O   UNL     1       9.908  16.196  19.175  0.00  0.00    +0.000 OA
ATOM     27  S   UNL     1       9.577  13.166  18.931  0.00  0.00    +0.000 S 
ATOM     28  H   UNL     1      11.738  15.098  16.812  0.00  0.00    +0.000 HD
BRANCH  25  29
ATOM     29  C   UNL     1      11.167  17.343  17.526  0.00  0.00    +0.000 C 
ATOM     30  C   UNL     1      10.266  18.546  17.390  0.00  0.00    +0.000 C 
ATOM     31  C   UNL     1      11.487  18.620  18.259  0.00  0.00    +0.000 C 
ENDBRANCH  25  29
ENDBRANCH  19  20
ENDBRANCH  18  19
ENDBRANCH   4  18
TORSDOF 7
ENDMDL
MODEL 4
REMARK VINA RESULT:      -7.9      2.197      2.615
REMARK  Name = 
REMARK  8 active torsions:
REMARK  status: ('A' for Active; 'I' for Inactive)
REMARK    1  A    between atoms: C_1  and  C_2
REMARK    2  A    between atoms: C_6  and  C_7
REMARK    3  A    between atoms: C_7  and  O_9
REMARK    4  A    between atoms: O_9  and  C_10
REMARK    5  A    between atoms: C_13  and  C_14
REMARK    6  A    between atoms: C_14  and  S_15
REMARK    7  A    between atoms: S_15  and  C_16
REMARK    8  A    between atoms: C_21  and  C_23
REMARK                            x       y       z     vdW  Elec       q    Type
REMARK                         _______ _______ _______ _____ _____    ______ ____
ROOT
ATOM      1  C   UNL     1       5.545   4.195  17.242  0.00  0.00    +0.000 A 
ATOM      2  C   UNL     1       4.333   4.175  16.675  0.00  0.00    +0.000 A 
ATOM      3  O   UNL     1       3.146   4.389  17.340  0.00  0.00    +0.000 OA
ATOM      4  C   UNL     1       3.177   4.578  18.720  0.00  0.00    +0.000 A 
ATOM      5  C   UNL     1       4.331   4.655  19.404  0.00  0.00    +0.000 A 
ATOM      6  C   UNL     1       5.619   4.526  18.689  0.00  0.00    +0.000 A 
ATOM      7  O   UNL     1       6.682   4.733  19.262  0.00  0.00    +0.000 OA
ENDROOT
BRANCH   1   8
ATOM      8  O   UNL     1       6.727   4.014  16.512  0.00  0.00    +0.000 OA
BRANCH   8   9
ATOM      9  C   UNL     1       7.043   5.127  15.781  0.00  0.00    +0.000 C 
ATOM     10  O   UNL     1       7.311   6.234  16.224  0.00  0.00    +0.000 OA
BRANCH   9  16
ATOM     11  C   UNL     1       5.423   2.483  11.792  0.00  0.00    +0.000 C 
ATOM     12  C   UNL     1       6.284   3.562  12.378  0.00  0.00    +0.000 A 
ATOM     13  C   UNL     1       7.120   4.336  11.565  0.00  0.00    +0.000 A 
ATOM     14  C   UNL     1       7.917   5.338  12.117  0.00  0.00    +0.000 A 
ATOM     15  C   UNL     1       7.887   5.575  13.492  0.00  0.00    +0.000 A 
ATOM     16  C   UNL     1       7.056   4.811  14.324  0.00  0.00    +0.000 A 
ATOM     17  C   UNL     1       6.255   3.807  13.759  0.00  0.00    +0.000 A 
ENDBRANCH   9  16
ENDBRANCH   8   9
ENDBRANCH   1   8
BRANCH   4  18
ATOM     18  C   UNL     1       1.826   4.764  19.371  0.00  0.00    +0.000 C 
BRANCH  18  19
ATOM     19  S   UNL     1       1.954   5.791  20.872  0.00  0.00    +0.000 S 
BRANCH  19  20
ATOM     20  C   UNL     1       1.720   7.395  20.205  0.00  0.00    +0.000 A 
ATOM     21  N   UNL     1       2.005   7.687  18.954  0.00  0.00    +0.000 NA
ATOM     22  N   UNL     1       1.694   8.995  18.647  0.00  0.00    +0.000 NA
ATOM     23  C   UNL     1       1.219   9.651  19.683  0.00  0.00    +0.000 A 
ATOM     24  N   UNL     1       0.822  10.957  19.569  0.00  0.00    +0.000 N 
ATOM     25  C   UNL     1       0.419  11.817  20.556  0.00  0.00    +0.000 C 
ATOM     26  O   UNL     1       0.363  11.619  21.756  0.00  0.00    +0.000 OA
ATOM     27  S   UNL     1       1.090   8.722  21.105  0.00  0.00    +0.000 S 
ATOM     28  H   UNL     1       0.866  11.310  18.627  0.00  0.00    +0.000 HD
BRANCH  25  29
ATOM     29  C   UNL     1      -0.000  13.134  19.968  0.00  0.00    +0.000 C 
ATOM     30  C   UNL     1       0.975  13.887  19.096  0.00  0.00    +0.000 C 
ATOM     31  C   UNL     1      -0.286  13.333  18.502  0.00  0.00    +0.000 C 
ENDBRANCH  25  29
ENDBRANCH  19  20
ENDBRANCH  18  19
ENDBRANCH   4  18
TORSDOF 7
ENDMDL
MODEL 5
REMARK VINA RESULT:      -7.6      1.930      2.925
REMARK  Name = 
REMARK  8 active torsions:
REMARK  status: ('A' for Active; 'I' for Inactive)
REMARK    1  A    between atoms: C_1  and  C_2
REMARK    2  A    between atoms: C_6  and  C_7
REMARK    3  A    between atoms: C_7  and  O_9
REMARK    4  A    between atoms: O_9  and  C_10
REMARK    5  A    between atoms: C_13  and  C_14
REMARK    6  A    between atoms: C_14  and  S_15
REMARK    7  A    between atoms: S_15  and  C_16
REMARK    8  A    between atoms: C_21  and  C_23
REMARK                            x       y       z     vdW  Elec       q    Type
REMARK                         _______ _______ _______ _____ _____    ______ ____
ROOT
ATOM      1  C   UNL     1       2.713   5.026  19.027  0.00  0.00    +0.000 A 
ATOM      2  C   UNL     1       2.969   6.284  18.648  0.00  0.00    +0.000 A 
ATOM      3  O   UNL     1       2.544   7.412  19.314  0.00  0.00    +0.000 OA
ATOM      4  C   UNL     1       1.728   7.260  20.433  0.00  0.00    +0.000 A 
ATOM      5  C   UNL     1       1.426   6.053  20.938  0.00  0.00    +0.000 A 
ATOM      6  C   UNL     1       1.957   4.833  20.292  0.00  0.00    +0.000 A 
ATOM      7  O   UNL     1       1.815   3.731  20.811  0.00  0.00    +0.000 OA
ENDROOT
BRANCH   1   8
ATOM      8  O   UNL     1       3.206   3.911  18.337  0.00  0.00    +0.000 OA
BRANCH   8   9
ATOM      9  C   UNL     1       4.521   3.674  18.636  0.00  0.00    +0.000 C 
ATOM     10  O   UNL     1       4.950   3.128  19.642  0.00  0.00    +0.000 OA
BRANCH   9  16
ATOM     11  C   UNL     1       5.806   3.894  13.755  0.00  0.00    +0.000 C 
ATOM     12  C   UNL     1       6.040   4.286  15.184  0.00  0.00    +0.000 A 
ATOM     13  C   UNL     1       7.091   5.142  15.531  0.00  0.00    +0.000 A 
ATOM     14  C   UNL     1       7.302   5.503  16.861  0.00  0.00    +0.000 A 
ATOM     15  C   UNL     1       6.462   5.009  17.860  0.00  0.00    +0.000 A 
ATOM     16  C   UNL     1       5.402   4.150  17.532  0.00  0.00    +0.000 A 
ATOM     17  C   UNL     1       5.197   3.794  16.191  0.00  0.00    +0.000 A 
ENDBRANCH   9  16
ENDBRANCH   8   9
ENDBRANCH   1   8
BRANCH   4  18
ATOM     18  C   UNL     1       1.276   8.552  21.075  0.00  0.00    +0.000 C 
BRANCH  18  19
ATOM     19  S   UNL     1       0.923   9.824  19.818  0.00  0.00    +0.000 S 
BRANCH  19  20
ATOM     20  C   UNL     1       0.338  11.137  20.821  0.00  0.00    +0.000 A 
ATOM     21  N   UNL     1       1.108  12.138  21.193  0.00  0.00    +0.000 NA
ATOM     22  N   UNL     1       0.417  13.071  21.937  0.00  0.00    +0.000 NA
ATOM     23  C   UNL     1      -0.839  12.724  22.129  0.00  0.00    +0.000 A 
ATOM     24  N   UNL     1      -1.696  13.539  22.819  0.00  0.00    +0.000 N 
ATOM     25  C   UNL     1      -2.985  13.288  23.209  0.00  0.00    +0.000 C 
ATOM     26  O   UNL     1      -3.636  12.270  23.061  0.00  0.00    +0.000 OA
ATOM     27  S   UNL     1      -1.281  11.251  21.400  0.00  0.00    +0.000 S 
ATOM     28  H   UNL     1      -1.289  14.422  23.082  0.00  0.00    +0.000 HD
BRANCH  25  29
ATOM     29  C   UNL     1      -3.577  14.495  23.878  0.00  0.00    +0.000 C 
ATOM     30  C   UNL     1      -4.122  15.612  23.021  0.00  0.00    +0.000 C 
ATOM     31  C   UNL     1      -5.052  14.803  23.876  0.00  0.00    +0.000 C 
ENDBRANCH  25  29
ENDBRANCH  19  20
ENDBRANCH  18  19
ENDBRANCH   4  18
TORSDOF 7
ENDMDL
MODEL 6
REMARK VINA RESULT:      -7.5      2.646      3.287
REMARK  Name = 
REMARK  8 active torsions:
REMARK  status: ('A' for Active; 'I' for Inactive)
REMARK    1  A    between atoms: C_1  and  C_2
REMARK    2  A    between atoms: C_6  and  C_7
REMARK    3  A    between atoms: C_7  and  O_9
REMARK    4  A    between atoms: O_9  and  C_10
REMARK    5  A    between atoms: C_13  and  C_14
REMARK    6  A    between atoms: C_14  and  S_15
REMARK    7  A    between atoms: S_15  and  C_16
REMARK    8  A    between atoms: C_21  and  C_23
REMARK                            x       y       z     vdW  Elec       q    Type
REMARK                         _______ _______ _______ _____ _____    ______ ____
ROOT
ATOM      1  C   UNL     1       3.120   5.428  18.606  0.00  0.00    +0.000 A 
ATOM      2  C   UNL     1       3.124   6.586  17.936  0.00  0.00    +0.000 A 
ATOM      3  O   UNL     1       2.564   7.761  18.384  0.00  0.00    +0.000 OA
ATOM      4  C   UNL     1       1.877   7.754  19.596  0.00  0.00    +0.000 A 
ATOM      5  C   UNL     1       1.829   6.667  20.384  0.00  0.00    +0.000 A 
ATOM      6  C   UNL     1       2.510   5.424  19.961  0.00  0.00    +0.000 A 
ATOM      7  O   UNL     1       2.603   4.466  20.721  0.00  0.00    +0.000 OA
ENDROOT
BRANCH   1   8
ATOM      8  O   UNL     1       3.744   4.270  18.124  0.00  0.00    +0.000 OA
BRANCH   8   9
ATOM      9  C   UNL     1       5.105   4.340  18.250  0.00  0.00    +0.000 C 
ATOM     10  O   UNL     1       5.742   4.261  19.291  0.00  0.00    +0.000 OA
BRANCH   9  16
ATOM     11  C   UNL     1       5.175   3.666  13.244  0.00  0.00    +0.000 C 
ATOM     12  C   UNL     1       5.805   4.199  14.497  0.00  0.00    +0.000 A 
ATOM     13  C   UNL     1       7.019   4.894  14.452  0.00  0.00    +0.000 A 
ATOM     14  C   UNL     1       7.598   5.387  15.621  0.00  0.00    +0.000 A 
ATOM     15  C   UNL     1       6.966   5.190  16.849  0.00  0.00    +0.000 A 
ATOM     16  C   UNL     1       5.748   4.497  16.916  0.00  0.00    +0.000 A 
ATOM     17  C   UNL     1       5.173   4.006  15.734  0.00  0.00    +0.000 A 
ENDBRANCH   9  16
ENDBRANCH   8   9
ENDBRANCH   1   8
BRANCH   4  18
ATOM     18  C   UNL     1       1.260   9.077  19.989  0.00  0.00    +0.000 C 
BRANCH  18  19
ATOM     19  S   UNL     1       1.257  10.244  18.589  0.00  0.00    +0.000 S 
BRANCH  19  20
ATOM     20  C   UNL     1      -0.464  10.461  18.334  0.00  0.00    +0.000 A 
ATOM     21  N   UNL     1      -1.118   9.844  17.372  0.00  0.00    +0.000 NA
ATOM     22  N   UNL     1      -2.466  10.134  17.398  0.00  0.00    +0.000 NA
ATOM     23  C   UNL     1      -2.775  10.984  18.354  0.00  0.00    +0.000 A 
ATOM     24  N   UNL     1      -4.072  11.371  18.560  0.00  0.00    +0.000 N 
ATOM     25  C   UNL     1      -4.555  12.322  19.420  0.00  0.00    +0.000 C 
ATOM     26  O   UNL     1      -3.930  13.059  20.160  0.00  0.00    +0.000 OA
ATOM     27  S   UNL     1      -1.456  11.477  19.310  0.00  0.00    +0.000 S 
ATOM     28  H   UNL     1      -4.734  10.892  17.971  0.00  0.00    +0.000 HD
BRANCH  25  29
ATOM     29  C   UNL     1      -6.055  12.362  19.373  0.00  0.00    +0.000 C 
ATOM     30  C   UNL     1      -6.730  13.043  18.207  0.00  0.00    +0.000 C 
ATOM     31  C   UNL     1      -6.875  11.561  18.395  0.00  0.00    +0.000 C 
ENDBRANCH  25  29
ENDBRANCH  19  20
ENDBRANCH  18  19
ENDBRANCH   4  18
TORSDOF 7
ENDMDL
MODEL 7
REMARK VINA RESULT:      -7.5      3.132      4.111
REMARK  Name = 
REMARK  8 active torsions:
REMARK  status: ('A' for Active; 'I' for Inactive)
REMARK    1  A    between atoms: C_1  and  C_2
REMARK    2  A    between atoms: C_6  and  C_7
REMARK    3  A    between atoms: C_7  and  O_9
REMARK    4  A    between atoms: O_9  and  C_10
REMARK    5  A    between atoms: C_13  and  C_14
REMARK    6  A    between atoms: C_14  and  S_15
REMARK    7  A    between atoms: S_15  and  C_16
REMARK    8  A    between atoms: C_21  and  C_23
REMARK                            x       y       z     vdW  Elec       q    Type
REMARK                         _______ _______ _______ _____ _____    ______ ____
ROOT
ATOM      1  C   UNL     1       2.617   5.138  19.069  0.00  0.00    +0.000 A 
ATOM      2  C   UNL     1       2.944   6.408  18.802  0.00  0.00    +0.000 A 
ATOM      3  O   UNL     1       2.541   7.499  19.540  0.00  0.00    +0.000 OA
ATOM      4  C   UNL     1       1.673   7.299  20.611  0.00  0.00    +0.000 A 
ATOM      5  C   UNL     1       1.298   6.071  21.006  0.00  0.00    +0.000 A 
ATOM      6  C   UNL     1       1.801   4.882  20.284  0.00  0.00    +0.000 A 
ATOM      7  O   UNL     1       1.590   3.751  20.708  0.00  0.00    +0.000 OA
ENDROOT
BRANCH   1   8
ATOM      8  O   UNL     1       3.090   4.059  18.312  0.00  0.00    +0.000 OA
BRANCH   8   9
ATOM      9  C   UNL     1       4.394   3.767  18.609  0.00  0.00    +0.000 C 
ATOM     10  O   UNL     1       4.799   3.191  19.608  0.00  0.00    +0.000 OA
BRANCH   9  16
ATOM     11  C   UNL     1       5.725   3.958  13.739  0.00  0.00    +0.000 C 
ATOM     12  C   UNL     1       5.956   4.344  15.170  0.00  0.00    +0.000 A 
ATOM     13  C   UNL     1       7.024   5.176  15.527  0.00  0.00    +0.000 A 
ATOM     14  C   UNL     1       7.232   5.531  16.859  0.00  0.00    +0.000 A 
ATOM     15  C   UNL     1       6.372   5.056  17.850  0.00  0.00    +0.000 A 
ATOM     16  C   UNL     1       5.296   4.222  17.513  0.00  0.00    +0.000 A 
ATOM     17  C   UNL     1       5.093   3.872  16.170  0.00  0.00    +0.000 A 
ENDBRANCH   9  16
ENDBRANCH   8   9
ENDBRANCH   1   8
BRANCH   4  18
ATOM     18  C   UNL     1       1.251   8.556  21.337  0.00  0.00    +0.000 C 
BRANCH  18  19
ATOM     19  S   UNL     1      -0.063   9.432  20.427  0.00  0.00    +0.000 S 
BRANCH  19  20
ATOM     20  C   UNL     1       0.516  11.085  20.505  0.00  0.00    +0.000 A 
ATOM     21  N   UNL     1       1.336  11.501  21.446  0.00  0.00    +0.000 NA
ATOM     22  N   UNL     1       1.688  12.823  21.275  0.00  0.00    +0.000 NA
ATOM     23  C   UNL     1       1.095  13.366  20.233  0.00  0.00    +0.000 A 
ATOM     24  N   UNL     1       1.343  14.666  19.880  0.00  0.00    +0.000 N 
ATOM     25  C   UNL     1       0.735  15.419  18.910  0.00  0.00    +0.000 C 
ATOM     26  O   UNL     1      -0.185  15.107  18.177  0.00  0.00    +0.000 OA
ATOM     27  S   UNL     1       0.083  12.305  19.368  0.00  0.00    +0.000 S 
ATOM     28  H   UNL     1       2.054  15.107  20.440  0.00  0.00    +0.000 HD
BRANCH  25  29
ATOM     29  C   UNL     1       1.376  16.773  18.816  0.00  0.00    +0.000 C 
ATOM     30  C   UNL     1       2.394  17.025  17.729  0.00  0.00    +0.000 C 
ATOM     31  C   UNL     1       1.082  17.753  17.710  0.00  0.00    +0.000 C 
ENDBRANCH  25  29
ENDBRANCH  19  20
ENDBRANCH  18  19
ENDBRANCH   4  18
TORSDOF 7
ENDMDL
MODEL 8
REMARK VINA RESULT:      -7.5      2.484      2.863
REMARK  Name = 
REMARK  8 active torsions:
REMARK  status: ('A' for Active; 'I' for Inactive)
REMARK    1  A    between atoms: C_1  and  C_2
REMARK    2  A    between atoms: C_6  and  C_7
REMARK    3  A    between atoms: C_7  and  O_9
REMARK    4  A    between atoms: O_9  and  C_10
REMARK    5  A    between atoms: C_13  and  C_14
REMARK    6  A    between atoms: C_14  and  S_15
REMARK    7  A    between atoms: S_15  and  C_16
REMARK    8  A    between atoms: C_21  and  C_23
REMARK                            x       y       z     vdW  Elec       q    Type
REMARK                         _______ _______ _______ _____ _____    ______ ____
ROOT
ATOM      1  C   UNL     1       4.631   5.840  17.822  0.00  0.00    +0.000 A 
ATOM      2  C   UNL     1       4.275   6.991  17.238  0.00  0.00    +0.000 A 
ATOM      3  O   UNL     1       3.309   7.851  17.711  0.00  0.00    +0.000 OA
ATOM      4  C   UNL     1       2.586   7.487  18.845  0.00  0.00    +0.000 A 
ATOM      5  C   UNL     1       2.868   6.376  19.545  0.00  0.00    +0.000 A 
ATOM      6  C   UNL     1       3.969   5.492  19.106  0.00  0.00    +0.000 A 
ATOM      7  O   UNL     1       4.339   4.552  19.802  0.00  0.00    +0.000 OA
ENDROOT
BRANCH   1   8
ATOM      8  O   UNL     1       5.652   5.021  17.324  0.00  0.00    +0.000 OA
BRANCH   8   9
ATOM      9  C   UNL     1       5.161   4.051  16.493  0.00  0.00    +0.000 C 
ATOM     10  O   UNL     1       4.296   3.231  16.767  0.00  0.00    +0.000 OA
BRANCH   9  16
ATOM     11  C   UNL     1       5.353   2.905  11.577  0.00  0.00    +0.000 C 
ATOM     12  C   UNL     1       5.919   3.608  12.775  0.00  0.00    +0.000 A 
ATOM     13  C   UNL     1       7.071   4.395  12.669  0.00  0.00    +0.000 A 
ATOM     14  C   UNL     1       7.592   5.046  13.786  0.00  0.00    +0.000 A 
ATOM     15  C   UNL     1       6.962   4.916  15.025  0.00  0.00    +0.000 A 
ATOM     16  C   UNL     1       5.806   4.132  15.153  0.00  0.00    +0.000 A 
ATOM     17  C   UNL     1       5.289   3.483  14.022  0.00  0.00    +0.000 A 
ENDBRANCH   9  16
ENDBRANCH   8   9
ENDBRANCH   1   8
BRANCH   4  18
ATOM     18  C   UNL     1       1.520   8.472  19.266  0.00  0.00    +0.000 C 
BRANCH  18  19
ATOM     19  S   UNL     1       1.412   9.867  18.098  0.00  0.00    +0.000 S 
BRANCH  19  20
ATOM     20  C   UNL     1      -0.080  10.628  18.618  0.00  0.00    +0.000 A 
ATOM     21  N   UNL     1      -0.173  11.300  19.745  0.00  0.00    +0.000 NA
ATOM     22  N   UNL     1      -1.428  11.846  19.917  0.00  0.00    +0.000 NA
ATOM     23  C   UNL     1      -2.245  11.538  18.932  0.00  0.00    +0.000 A 
ATOM     24  N   UNL     1      -3.529  12.013  18.907  0.00  0.00    +0.000 N 
ATOM     25  C   UNL     1      -4.538  11.704  18.034  0.00  0.00    +0.000 C 
ATOM     26  O   UNL     1      -4.524  10.908  17.113  0.00  0.00    +0.000 OA
ATOM     27  S   UNL     1      -1.544  10.581  17.711  0.00  0.00    +0.000 S 
ATOM     28  H   UNL     1      -3.736  12.655  19.656  0.00  0.00    +0.000 HD
BRANCH  25  29
ATOM     29  C   UNL     1      -5.762  12.520  18.333  0.00  0.00    +0.000 C 
ATOM     30  C   UNL     1      -6.768  12.758  17.233  0.00  0.00    +0.000 C 
ATOM     31  C   UNL     1      -7.147  11.932  18.428  0.00  0.00    +0.000 C 
ENDBRANCH  25  29
ENDBRANCH  19  20
ENDBRANCH  18  19
ENDBRANCH   4  18
TORSDOF 7
ENDMDL
MODEL 9
REMARK VINA RESULT:      -7.5      3.323      4.853
REMARK  Name = 
REMARK  8 active torsions:
REMARK  status: ('A' for Active; 'I' for Inactive)
REMARK    1  A    between atoms: C_1  and  C_2
REMARK    2  A    between atoms: C_6  and  C_7
REMARK    3  A    between atoms: C_7  and  O_9
REMARK    4  A    between atoms: O_9  and  C_10
REMARK    5  A    between atoms: C_13  and  C_14
REMARK    6  A    between atoms: C_14  and  S_15
REMARK    7  A    between atoms: S_15  and  C_16
REMARK    8  A    between atoms: C_21  and  C_23
REMARK                            x       y       z     vdW  Elec       q    Type
REMARK                         _______ _______ _______ _____ _____    ______ ____
ROOT
ATOM      1  C   UNL     1       2.658   5.076  19.339  0.00  0.00    +0.000 A 
ATOM      2  C   UNL     1       2.102   4.970  20.551  0.00  0.00    +0.000 A 
ATOM      3  O   UNL     1       1.592   6.020  21.282  0.00  0.00    +0.000 OA
ATOM      4  C   UNL     1       1.711   7.310  20.771  0.00  0.00    +0.000 A 
ATOM      5  C   UNL     1       2.216   7.551  19.549  0.00  0.00    +0.000 A 
ATOM      6  C   UNL     1       2.678   6.423  18.711  0.00  0.00    +0.000 A 
ATOM      7  O   UNL     1       3.010   6.599  17.544  0.00  0.00    +0.000 OA
ENDROOT
BRANCH   1   8
ATOM      8  O   UNL     1       3.123   3.969  18.618  0.00  0.00    +0.000 OA
BRANCH   8   9
ATOM      9  C   UNL     1       4.408   3.647  18.960  0.00  0.00    +0.000 C 
ATOM     10  O   UNL     1       4.752   2.828  19.800  0.00  0.00    +0.000 OA
BRANCH   9  16
ATOM     11  C   UNL     1       8.093   7.068  18.471  0.00  0.00    +0.000 C 
ATOM     12  C   UNL     1       7.167   6.054  17.867  0.00  0.00    +0.000 A 
ATOM     13  C   UNL     1       7.201   5.775  16.497  0.00  0.00    +0.000 A 
ATOM     14  C   UNL     1       6.338   4.831  15.943  0.00  0.00    +0.000 A 
ATOM     15  C   UNL     1       5.429   4.155  16.758  0.00  0.00    +0.000 A 
ATOM     16  C   UNL     1       5.379   4.419  18.134  0.00  0.00    +0.000 A 
ATOM     17  C   UNL     1       6.253   5.369  18.682  0.00  0.00    +0.000 A 
ENDBRANCH   9  16
ENDBRANCH   8   9
ENDBRANCH   1   8
BRANCH   4  18
ATOM     18  C   UNL     1       1.161   8.404  21.658  0.00  0.00    +0.000 C 
BRANCH  18  19
ATOM     19  S   UNL     1      -0.218   9.279  20.847  0.00  0.00    +0.000 S 
BRANCH  19  20
ATOM     20  C   UNL     1       0.412  10.914  20.782  0.00  0.00    +0.000 A 
ATOM     21  N   UNL     1       0.304  11.752  21.790  0.00  0.00    +0.000 NA
ATOM     22  N   UNL     1       0.914  12.960  21.523  0.00  0.00    +0.000 NA
ATOM     23  C   UNL     1       1.430  13.002  20.313  0.00  0.00    +0.000 A 
ATOM     24  N   UNL     1       2.106  14.108  19.873  0.00  0.00    +0.000 N 
ATOM     25  C   UNL     1       2.599  14.367  18.622  0.00  0.00    +0.000 C 
ATOM     26  O   UNL     1       2.509  13.686  17.617  0.00  0.00    +0.000 OA
ATOM     27  S   UNL     1       1.233  11.568  19.416  0.00  0.00    +0.000 S 
ATOM     28  H   UNL     1       2.219  14.818  20.579  0.00  0.00    +0.000 HD
BRANCH  25  29
ATOM     29  C   UNL     1       3.340  15.673  18.607  0.00  0.00    +0.000 C 
ATOM     30  C   UNL     1       2.889  16.758  17.659  0.00  0.00    +0.000 C 
ATOM     31  C   UNL     1       2.762  16.959  19.141  0.00  0.00    +0.000 C 
ENDBRANCH  25  29
ENDBRANCH  19  20
ENDBRANCH  18  19
ENDBRANCH   4  18
TORSDOF 7
ENDMDL
