MODEL 1
REMARK VINA RESULT:      -8.5      0.000      0.000
REMARK  Name = 
REMARK  6 active torsions:
REMARK  status: ('A' for Active; 'I' for Inactive)
REMARK    1  A    between atoms: C_5  and  C_6
REMARK    2  A    between atoms: N_12  and  C_13
REMARK    3  A    between atoms: C_13  and  C_14
REMARK    4  A    between atoms: C_14  and  C_15
REMARK    5  A    between atoms: C_15  and  N_16
REMARK    6  A    between atoms: C_17  and  C_18
REMARK                            x       y       z     vdW  Elec       q    Type
REMARK                         _______ _______ _______ _____ _____    ______ ____
ROOT
ATOM      1  C   UNL     1       3.281   3.624  16.866  0.00  0.00    +0.000 C 
ENDROOT
BRANCH   1   2
ATOM      2  C   UNL     1       2.002   4.014  17.621  0.00  0.00    +0.000 C 
BRANCH   2   8
ATOM      3  N   UNL     1       2.113   1.449  19.094  0.00  0.00    +0.000 N 
ATOM      4  C   UNL     1       2.076   2.635  19.721  0.00  0.00    +0.000 A 
ATOM      5  N   UNL     1       2.066   2.794  21.014  0.00  0.00    +0.000 NA
ATOM      6  C   UNL     1       2.009   4.146  21.217  0.00  0.00    +0.000 A 
ATOM      7  C   UNL     1       1.970   4.849  20.017  0.00  0.00    +0.000 A 
ATOM      8  N   UNL     1       2.035   3.851  19.061  0.00  0.00    +0.000 N 
ATOM      9  H   UNL     1       2.213   0.651  19.716  0.00  0.00    +0.000 HD
ATOM     10  H   UNL     1       2.666   1.328  18.251  0.00  0.00    +0.000 HD
BRANCH   7  11
ATOM     11  C   UNL     1       1.923   6.300  19.803  0.00  0.00    +0.000 A 
ATOM     12  C   UNL     1       2.344   6.833  18.577  0.00  0.00    +0.000 A 
ATOM     13  C   UNL     1       2.245   8.204  18.319  0.00  0.00    +0.000 A 
ATOM     14  C   UNL     1       1.702   9.058  19.278  0.00  0.00    +0.000 A 
ATOM     15  C   UNL     1       1.297   8.550  20.505  0.00  0.00    +0.000 A 
ATOM     16  C   UNL     1       1.444   7.187  20.776  0.00  0.00    +0.000 A 
ENDBRANCH   7  11
ENDBRANCH   2   8
ENDBRANCH   1   2
BRANCH   1  17
ATOM     17  C   UNL     1       4.276   4.765  16.692  0.00  0.00    +0.000 C 
BRANCH  17  18
ATOM     18  N   UNL     1       5.649   4.644  17.127  0.00  0.00    +0.000 N 
ATOM     19  C   UNL     1       6.743   4.567  16.256  0.00  0.00    +0.000 A 
ATOM     20  C   UNL     1       7.833   4.554  17.112  0.00  0.00    +0.000 A 
ATOM     21  N   UNL     1       7.456   4.604  18.424  0.00  0.00    +0.000 NA
ATOM     22  C   UNL     1       6.151   4.583  18.412  0.00  0.00    +0.000 A 
ATOM     23  N   UNL     1       5.417   4.547  19.538  0.00  0.00    +0.000 N 
ATOM     24  H   UNL     1       5.997   4.512  20.377  0.00  0.00    +0.000 HD
ATOM     25  H   UNL     1       4.700   3.834  19.602  0.00  0.00    +0.000 HD
BRANCH  19  26
ATOM     26  C   UNL     1       6.736   4.436  14.786  0.00  0.00    +0.000 A 
ATOM     27  C   UNL     1       5.871   3.588  14.084  0.00  0.00    +0.000 A 
ATOM     28  C   UNL     1       5.949   3.451  12.691  0.00  0.00    +0.000 A 
ATOM     29  C   UNL     1       6.859   4.211  11.967  0.00  0.00    +0.000 A 
ATOM     30  C   UNL     1       7.686   5.109  12.632  0.00  0.00    +0.000 A 
ATOM     31  C   UNL     1       7.629   5.213  14.028  0.00  0.00    +0.000 A 
ENDBRANCH  19  26
ENDBRANCH  17  18
ENDBRANCH   1  17
TORSDOF 6
ENDMDL
MODEL 2
REMARK VINA RESULT:      -8.3      2.732      7.639
REMARK  Name = 
REMARK  6 active torsions:
REMARK  status: ('A' for Active; 'I' for Inactive)
REMARK    1  A    between atoms: C_5  and  C_6
REMARK    2  A    between atoms: N_12  and  C_13
REMARK    3  A    between atoms: C_13  and  C_14
REMARK    4  A    between atoms: C_14  and  C_15
REMARK    5  A    between atoms: C_15  and  N_16
REMARK    6  A    between atoms: C_17  and  C_18
REMARK                            x       y       z     vdW  Elec       q    Type
REMARK                         _______ _______ _______ _____ _____    ______ ____
ROOT
ATOM      1  C   UNL     1       2.352   7.335  17.869  0.00  0.00    +0.000 C 
ENDROOT
BRANCH   1   2
ATOM      2  C   UNL     1       3.769   6.803  18.133  0.00  0.00    +0.000 C 
BRANCH   2   8
ATOM      3  N   UNL     1       5.486   6.684  15.724  0.00  0.00    +0.000 N 
ATOM      4  C   UNL     1       4.944   5.585  16.274  0.00  0.00    +0.000 A 
ATOM      5  N   UNL     1       5.088   4.374  15.816  0.00  0.00    +0.000 NA
ATOM      6  C   UNL     1       4.363   3.575  16.658  0.00  0.00    +0.000 A 
ATOM      7  C   UNL     1       3.741   4.310  17.662  0.00  0.00    +0.000 A 
ATOM      8  N   UNL     1       4.146   5.608  17.405  0.00  0.00    +0.000 N 
ATOM      9  H   UNL     1       6.104   6.495  14.940  0.00  0.00    +0.000 HD
ATOM     10  H   UNL     1       5.854   7.426  16.312  0.00  0.00    +0.000 HD
BRANCH   7  11
ATOM     11  C   UNL     1       2.896   3.831  18.762  0.00  0.00    +0.000 A 
ATOM     12  C   UNL     1       3.492   3.382  19.949  0.00  0.00    +0.000 A 
ATOM     13  C   UNL     1       2.711   2.987  21.039  0.00  0.00    +0.000 A 
ATOM     14  C   UNL     1       1.321   3.055  20.963  0.00  0.00    +0.000 A 
ATOM     15  C   UNL     1       0.713   3.479  19.790  0.00  0.00    +0.000 A 
ATOM     16  C   UNL     1       1.497   3.826  18.687  0.00  0.00    +0.000 A 
ENDBRANCH   7  11
ENDBRANCH   2   8
ENDBRANCH   1   2
BRANCH   1  17
ATOM     17  C   UNL     1       2.047   8.663  18.553  0.00  0.00    +0.000 C 
BRANCH  17  18
ATOM     18  N   UNL     1       1.324   8.721  19.803  0.00  0.00    +0.000 N 
ATOM     19  C   UNL     1       0.478   9.775  20.170  0.00  0.00    +0.000 A 
ATOM     20  C   UNL     1      -0.050   9.355  21.381  0.00  0.00    +0.000 A 
ATOM     21  N   UNL     1       0.436   8.134  21.756  0.00  0.00    +0.000 NA
ATOM     22  C   UNL     1       1.307   7.809  20.839  0.00  0.00    +0.000 A 
ATOM     23  N   UNL     1       2.050   6.692  20.911  0.00  0.00    +0.000 N 
ATOM     24  H   UNL     1       1.870   6.161  21.764  0.00  0.00    +0.000 HD
ATOM     25  H   UNL     1       3.051   6.792  20.791  0.00  0.00    +0.000 HD
BRANCH  19  26
ATOM     26  C   UNL     1       0.270  11.065  19.483  0.00  0.00    +0.000 A 
ATOM     27  C   UNL     1       1.217  12.095  19.459  0.00  0.00    +0.000 A 
ATOM     28  C   UNL     1       0.945  13.327  18.848  0.00  0.00    +0.000 A 
ATOM     29  C   UNL     1      -0.264  13.527  18.193  0.00  0.00    +0.000 A 
ATOM     30  C   UNL     1      -1.196  12.497  18.145  0.00  0.00    +0.000 A 
ATOM     31  C   UNL     1      -0.934  11.283  18.791  0.00  0.00    +0.000 A 
ENDBRANCH  19  26
ENDBRANCH  17  18
ENDBRANCH   1  17
TORSDOF 6
ENDMDL
MODEL 3
REMARK VINA RESULT:      -8.3      2.296      4.859
REMARK  Name = 
REMARK  6 active torsions:
REMARK  status: ('A' for Active; 'I' for Inactive)
REMARK    1  A    between atoms: C_5  and  C_6
REMARK    2  A    between atoms: N_12  and  C_13
REMARK    3  A    between atoms: C_13  and  C_14
REMARK    4  A    between atoms: C_14  and  C_15
REMARK    5  A    between atoms: C_15  and  N_16
REMARK    6  A    between atoms: C_17  and  C_18
REMARK                            x       y       z     vdW  Elec       q    Type
REMARK                         _______ _______ _______ _____ _____    ______ ____
ROOT
ATOM      1  C   UNL     1       1.293   5.879  20.289  0.00  0.00    +0.000 C 
ENDROOT
BRANCH   1   2
ATOM      2  C   UNL     1       2.242   7.086  20.326  0.00  0.00    +0.000 C 
BRANCH   2   8
ATOM      3  N   UNL     1       3.304   7.244  17.568  0.00  0.00    +0.000 N 
ATOM      4  C   UNL     1       2.499   8.187  18.082  0.00  0.00    +0.000 A 
ATOM      5  N   UNL     1       2.115   9.263  17.455  0.00  0.00    +0.000 NA
ATOM      6  C   UNL     1       1.328   9.945  18.343  0.00  0.00    +0.000 A 
ATOM      7  C   UNL     1       1.228   9.282  19.561  0.00  0.00    +0.000 A 
ATOM      8  N   UNL     1       1.978   8.136  19.363  0.00  0.00    +0.000 N 
ATOM      9  H   UNL     1       3.545   7.390  16.591  0.00  0.00    +0.000 HD
ATOM     10  H   UNL     1       3.136   6.262  17.762  0.00  0.00    +0.000 HD
BRANCH   7  11
ATOM     11  C   UNL     1       0.473   9.669  20.758  0.00  0.00    +0.000 A 
ATOM     12  C   UNL     1       0.745   9.041  21.982  0.00  0.00    +0.000 A 
ATOM     13  C   UNL     1       0.090   9.438  23.152  0.00  0.00    +0.000 A 
ATOM     14  C   UNL     1      -0.831  10.484  23.117  0.00  0.00    +0.000 A 
ATOM     15  C   UNL     1      -1.126  11.104  21.911  0.00  0.00    +0.000 A 
ATOM     16  C   UNL     1      -0.506  10.671  20.736  0.00  0.00    +0.000 A 
ENDBRANCH   7  11
ENDBRANCH   2   8
ENDBRANCH   1   2
BRANCH   1  17
ATOM     17  C   UNL     1       1.804   4.707  19.460  0.00  0.00    +0.000 C 
BRANCH  17  18
ATOM     18  N   UNL     1       2.634   3.676  20.042  0.00  0.00    +0.000 N 
ATOM     19  C   UNL     1       3.937   3.389  19.618  0.00  0.00    +0.000 A 
ATOM     20  C   UNL     1       4.356   2.412  20.508  0.00  0.00    +0.000 A 
ATOM     21  N   UNL     1       3.385   2.098  21.417  0.00  0.00    +0.000 NA
ATOM     22  C   UNL     1       2.345   2.808  21.076  0.00  0.00    +0.000 A 
ATOM     23  N   UNL     1       1.162   2.708  21.706  0.00  0.00    +0.000 N 
ATOM     24  H   UNL     1       1.175   2.005  22.445  0.00  0.00    +0.000 HD
ATOM     25  H   UNL     1       0.340   2.566  21.131  0.00  0.00    +0.000 HD
BRANCH  19  26
ATOM     26  C   UNL     1       4.659   3.924  18.447  0.00  0.00    +0.000 A 
ATOM     27  C   UNL     1       4.284   3.678  17.121  0.00  0.00    +0.000 A 
ATOM     28  C   UNL     1       5.042   4.157  16.044  0.00  0.00    +0.000 A 
ATOM     29  C   UNL     1       6.161   4.947  16.276  0.00  0.00    +0.000 A 
ATOM     30  C   UNL     1       6.519   5.261  17.582  0.00  0.00    +0.000 A 
ATOM     31  C   UNL     1       5.780   4.747  18.655  0.00  0.00    +0.000 A 
ENDBRANCH  19  26
ENDBRANCH  17  18
ENDBRANCH   1  17
TORSDOF 6
ENDMDL
MODEL 4
REMARK VINA RESULT:      -8.3      2.313      4.858
REMARK  Name = 
REMARK  6 active torsions:
REMARK  status: ('A' for Active; 'I' for Inactive)
REMARK    1  A    between atoms: C_5  and  C_6
REMARK    2  A    between atoms: N_12  and  C_13
REMARK    3  A    between atoms: C_13  and  C_14
REMARK    4  A    between atoms: C_14  and  C_15
REMARK    5  A    between atoms: C_15  and  N_16
REMARK    6  A    between atoms: C_17  and  C_18
REMARK                            x       y       z     vdW  Elec       q    Type
REMARK                         _______ _______ _______ _____ _____    ______ ____
ROOT
ATOM      1  C   UNL     1       1.560   5.931  20.498  0.00  0.00    +0.000 C 
ENDROOT
BRANCH   1   2
ATOM      2  C   UNL     1       2.432   7.188  20.360  0.00  0.00    +0.000 C 
BRANCH   2   8
ATOM      3  N   UNL     1       3.243   7.199  17.513  0.00  0.00    +0.000 N 
ATOM      4  C   UNL     1       2.424   8.129  18.030  0.00  0.00    +0.000 A 
ATOM      5  N   UNL     1       1.918   9.129  17.364  0.00  0.00    +0.000 NA
ATOM      6  C   UNL     1       1.166   9.828  18.269  0.00  0.00    +0.000 A 
ATOM      7  C   UNL     1       1.214   9.255  19.535  0.00  0.00    +0.000 A 
ATOM      8  N   UNL     1       2.019   8.144  19.353  0.00  0.00    +0.000 N 
ATOM      9  H   UNL     1       3.390   7.284  16.511  0.00  0.00    +0.000 HD
ATOM     10  H   UNL     1       3.158   6.226  17.791  0.00  0.00    +0.000 HD
BRANCH   7  11
ATOM     11  C   UNL     1       0.539   9.686  20.765  0.00  0.00    +0.000 A 
ATOM     12  C   UNL     1       0.267  11.047  20.965  0.00  0.00    +0.000 A 
ATOM     13  C   UNL     1      -0.438  11.478  22.094  0.00  0.00    +0.000 A 
ATOM     14  C   UNL     1      -0.898  10.551  23.028  0.00  0.00    +0.000 A 
ATOM     15  C   UNL     1      -0.621   9.202  22.854  0.00  0.00    +0.000 A 
ATOM     16  C   UNL     1       0.125   8.781  21.750  0.00  0.00    +0.000 A 
ENDBRANCH   7  11
ENDBRANCH   2   8
ENDBRANCH   1   2
BRANCH   1  17
ATOM     17  C   UNL     1       1.989   4.772  19.605  0.00  0.00    +0.000 C 
BRANCH  17  18
ATOM     18  N   UNL     1       2.823   3.703  20.105  0.00  0.00    +0.000 N 
ATOM     19  C   UNL     1       4.101   3.411  19.611  0.00  0.00    +0.000 A 
ATOM     20  C   UNL     1       4.538   2.389  20.439  0.00  0.00    +0.000 A 
ATOM     21  N   UNL     1       3.602   2.053  21.376  0.00  0.00    +0.000 NA
ATOM     22  C   UNL     1       2.562   2.796  21.112  0.00  0.00    +0.000 A 
ATOM     23  N   UNL     1       1.406   2.689  21.789  0.00  0.00    +0.000 N 
ATOM     24  H   UNL     1       1.438   1.954  22.496  0.00  0.00    +0.000 HD
ATOM     25  H   UNL     1       0.557   2.586  21.245  0.00  0.00    +0.000 HD
BRANCH  19  26
ATOM     26  C   UNL     1       4.781   3.984  18.434  0.00  0.00    +0.000 A 
ATOM     27  C   UNL     1       5.872   4.858  18.513  0.00  0.00    +0.000 A 
ATOM     28  C   UNL     1       6.441   5.426  17.365  0.00  0.00    +0.000 A 
ATOM     29  C   UNL     1       5.966   5.078  16.107  0.00  0.00    +0.000 A 
ATOM     30  C   UNL     1       4.927   4.161  15.996  0.00  0.00    +0.000 A 
ATOM     31  C   UNL     1       4.337   3.628  17.148  0.00  0.00    +0.000 A 
ENDBRANCH  19  26
ENDBRANCH  17  18
ENDBRANCH   1  17
TORSDOF 6
ENDMDL
MODEL 5
REMARK VINA RESULT:      -8.3      1.907      6.854
REMARK  Name = 
REMARK  6 active torsions:
REMARK  status: ('A' for Active; 'I' for Inactive)
REMARK    1  A    between atoms: C_5  and  C_6
REMARK    2  A    between atoms: N_12  and  C_13
REMARK    3  A    between atoms: C_13  and  C_14
REMARK    4  A    between atoms: C_14  and  C_15
REMARK    5  A    between atoms: C_15  and  N_16
REMARK    6  A    between atoms: C_17  and  C_18
REMARK                            x       y       z     vdW  Elec       q    Type
REMARK                         _______ _______ _______ _____ _____    ______ ____
ROOT
ATOM      1  C   UNL     1       4.252   3.908  16.200  0.00  0.00    +0.000 C 
ENDROOT
BRANCH   1   2
ATOM      2  C   UNL     1       5.371   3.149  15.470  0.00  0.00    +0.000 C 
BRANCH   2   8
ATOM      3  N   UNL     1       5.648   2.869  12.536  0.00  0.00    +0.000 N 
ATOM      4  C   UNL     1       6.339   3.782  13.239  0.00  0.00    +0.000 A 
ATOM      5  N   UNL     1       7.203   4.615  12.731  0.00  0.00    +0.000 NA
ATOM      6  C   UNL     1       7.676   5.342  13.790  0.00  0.00    +0.000 A 
ATOM      7  C   UNL     1       7.101   4.942  14.991  0.00  0.00    +0.000 A 
ATOM      8  N   UNL     1       6.223   3.944  14.608  0.00  0.00    +0.000 N 
ATOM      9  H   UNL     1       5.791   2.922  11.531  0.00  0.00    +0.000 HD
ATOM     10  H   UNL     1       4.677   2.674  12.760  0.00  0.00    +0.000 HD
BRANCH   7  11
ATOM     11  C   UNL     1       7.325   5.476  16.339  0.00  0.00    +0.000 A 
ATOM     12  C   UNL     1       7.692   4.608  17.377  0.00  0.00    +0.000 A 
ATOM     13  C   UNL     1       7.980   5.098  18.654  0.00  0.00    +0.000 A 
ATOM     14  C   UNL     1       7.925   6.468  18.906  0.00  0.00    +0.000 A 
ATOM     15  C   UNL     1       7.545   7.341  17.896  0.00  0.00    +0.000 A 
ATOM     16  C   UNL     1       7.211   6.841  16.634  0.00  0.00    +0.000 A 
ENDBRANCH   7  11
ENDBRANCH   2   8
ENDBRANCH   1   2
BRANCH   1  17
ATOM     17  C   UNL     1       4.334   3.830  17.721  0.00  0.00    +0.000 C 
BRANCH  17  18
ATOM     18  N   UNL     1       3.277   3.232  18.504  0.00  0.00    +0.000 N 
ATOM     19  C   UNL     1       2.263   3.962  19.136  0.00  0.00    +0.000 A 
ATOM     20  C   UNL     1       1.449   2.978  19.676  0.00  0.00    +0.000 A 
ATOM     21  N   UNL     1       1.921   1.722  19.416  0.00  0.00    +0.000 NA
ATOM     22  C   UNL     1       3.048   1.899  18.781  0.00  0.00    +0.000 A 
ATOM     23  N   UNL     1       3.843   0.877  18.421  0.00  0.00    +0.000 N 
ATOM     24  H   UNL     1       3.476  -0.025  18.724  0.00  0.00    +0.000 HD
ATOM     25  H   UNL     1       4.822   0.937  18.677  0.00  0.00    +0.000 HD
BRANCH  19  26
ATOM     26  C   UNL     1       2.139   5.426  19.278  0.00  0.00    +0.000 A 
ATOM     27  C   UNL     1       2.403   6.333  18.245  0.00  0.00    +0.000 A 
ATOM     28  C   UNL     1       2.333   7.718  18.450  0.00  0.00    +0.000 A 
ATOM     29  C   UNL     1       1.936   8.220  19.683  0.00  0.00    +0.000 A 
ATOM     30  C   UNL     1       1.604   7.340  20.707  0.00  0.00    +0.000 A 
ATOM     31  C   UNL     1       1.713   5.959  20.507  0.00  0.00    +0.000 A 
ENDBRANCH  19  26
ENDBRANCH  17  18
ENDBRANCH   1  17
TORSDOF 6
ENDMDL
MODEL 6
REMARK VINA RESULT:      -8.3      2.340      4.936
REMARK  Name = 
REMARK  6 active torsions:
REMARK  status: ('A' for Active; 'I' for Inactive)
REMARK    1  A    between atoms: C_5  and  C_6
REMARK    2  A    between atoms: N_12  and  C_13
REMARK    3  A    between atoms: C_13  and  C_14
REMARK    4  A    between atoms: C_14  and  C_15
REMARK    5  A    between atoms: C_15  and  N_16
REMARK    6  A    between atoms: C_17  and  C_18
REMARK                            x       y       z     vdW  Elec       q    Type
REMARK                         _______ _______ _______ _____ _____    ______ ____
ROOT
ATOM      1  C   UNL     1       1.790   5.971  20.357  0.00  0.00    +0.000 C 
ENDROOT
BRANCH   1   2
ATOM      2  C   UNL     1       2.221   7.435  20.529  0.00  0.00    +0.000 C 
BRANCH   2   8
ATOM      3  N   UNL     1       3.193   7.380  17.734  0.00  0.00    +0.000 N 
ATOM      4  C   UNL     1       2.317   8.298  18.171  0.00  0.00    +0.000 A 
ATOM      5  N   UNL     1       1.818   9.258  17.444  0.00  0.00    +0.000 NA
ATOM      6  C   UNL     1       0.994   9.961  18.280  0.00  0.00    +0.000 A 
ATOM      7  C   UNL     1       0.987   9.432  19.566  0.00  0.00    +0.000 A 
ATOM      8  N   UNL     1       1.836   8.343  19.468  0.00  0.00    +0.000 N 
ATOM      9  H   UNL     1       3.395   7.437  16.739  0.00  0.00    +0.000 HD
ATOM     10  H   UNL     1       3.124   6.415  18.040  0.00  0.00    +0.000 HD
BRANCH   7  11
ATOM     11  C   UNL     1       0.229   9.880  20.740  0.00  0.00    +0.000 A 
ATOM     12  C   UNL     1       0.227   9.097  21.903  0.00  0.00    +0.000 A 
ATOM     13  C   UNL     1      -0.428   9.533  23.059  0.00  0.00    +0.000 A 
ATOM     14  C   UNL     1      -1.073  10.769  23.073  0.00  0.00    +0.000 A 
ATOM     15  C   UNL     1      -1.097  11.548  21.924  0.00  0.00    +0.000 A 
ATOM     16  C   UNL     1      -0.483  11.086  20.758  0.00  0.00    +0.000 A 
ENDBRANCH   7  11
ENDBRANCH   2   8
ENDBRANCH   1   2
BRANCH   1  17
ATOM     17  C   UNL     1       2.947   5.000  20.150  0.00  0.00    +0.000 C 
BRANCH  17  18
ATOM     18  N   UNL     1       2.773   3.761  19.427  0.00  0.00    +0.000 N 
ATOM     19  C   UNL     1       3.640   3.312  18.423  0.00  0.00    +0.000 A 
ATOM     20  C   UNL     1       3.130   2.066  18.093  0.00  0.00    +0.000 A 
ATOM     21  N   UNL     1       2.019   1.757  18.825  0.00  0.00    +0.000 NA
ATOM     22  C   UNL     1       1.781   2.810  19.559  0.00  0.00    +0.000 A 
ATOM     23  N   UNL     1       0.709   2.903  20.365  0.00  0.00    +0.000 N 
ATOM     24  H   UNL     1       0.110   2.079  20.309  0.00  0.00    +0.000 HD
ATOM     25  H   UNL     1       0.136   3.734  20.282  0.00  0.00    +0.000 HD
BRANCH  19  26
ATOM     26  C   UNL     1       4.766   4.031  17.796  0.00  0.00    +0.000 A 
ATOM     27  C   UNL     1       5.921   4.421  18.485  0.00  0.00    +0.000 A 
ATOM     28  C   UNL     1       6.934   5.159  17.859  0.00  0.00    +0.000 A 
ATOM     29  C   UNL     1       6.838   5.468  16.508  0.00  0.00    +0.000 A 
ATOM     30  C   UNL     1       5.733   5.036  15.784  0.00  0.00    +0.000 A 
ATOM     31  C   UNL     1       4.705   4.332  16.425  0.00  0.00    +0.000 A 
ENDBRANCH  19  26
ENDBRANCH  17  18
ENDBRANCH   1  17
TORSDOF 6
ENDMDL
MODEL 7
REMARK VINA RESULT:      -8.3      2.403      7.618
REMARK  Name = 
REMARK  6 active torsions:
REMARK  status: ('A' for Active; 'I' for Inactive)
REMARK    1  A    between atoms: C_5  and  C_6
REMARK    2  A    between atoms: N_12  and  C_13
REMARK    3  A    between atoms: C_13  and  C_14
REMARK    4  A    between atoms: C_14  and  C_15
REMARK    5  A    between atoms: C_15  and  N_16
REMARK    6  A    between atoms: C_17  and  C_18
REMARK                            x       y       z     vdW  Elec       q    Type
REMARK                         _______ _______ _______ _____ _____    ______ ____
ROOT
ATOM      1  C   UNL     1       1.598   5.963  20.397  0.00  0.00    +0.000 C 
ENDROOT
BRANCH   1   2
ATOM      2  C   UNL     1       2.766   4.965  20.383  0.00  0.00    +0.000 C 
BRANCH   2   8
ATOM      3  N   UNL     1       0.704   2.891  20.842  0.00  0.00    +0.000 N 
ATOM      4  C   UNL     1       1.600   2.805  19.845  0.00  0.00    +0.000 A 
ATOM      5  N   UNL     1       1.679   1.818  18.998  0.00  0.00    +0.000 NA
ATOM      6  C   UNL     1       2.728   2.124  18.175  0.00  0.00    +0.000 A 
ATOM      7  C   UNL     1       3.327   3.329  18.526  0.00  0.00    +0.000 A 
ATOM      8  N   UNL     1       2.568   3.763  19.599  0.00  0.00    +0.000 N 
ATOM      9  H   UNL     1       0.015   2.144  20.848  0.00  0.00    +0.000 HD
ATOM     10  H   UNL     1       0.282   3.783  21.078  0.00  0.00    +0.000 HD
BRANCH   7  11
ATOM     11  C   UNL     1       4.460   4.012  17.891  0.00  0.00    +0.000 A 
ATOM     12  C   UNL     1       4.434   4.260  16.511  0.00  0.00    +0.000 A 
ATOM     13  C   UNL     1       5.466   4.971  15.891  0.00  0.00    +0.000 A 
ATOM     14  C   UNL     1       6.530   5.461  16.647  0.00  0.00    +0.000 A 
ATOM     15  C   UNL     1       6.581   5.209  18.011  0.00  0.00    +0.000 A 
ATOM     16  C   UNL     1       5.572   4.457  18.618  0.00  0.00    +0.000 A 
ENDBRANCH   7  11
ENDBRANCH   2   8
ENDBRANCH   1   2
BRANCH   1  17
ATOM     17  C   UNL     1       2.022   7.418  20.562  0.00  0.00    +0.000 C 
BRANCH  17  18
ATOM     18  N   UNL     1       1.798   8.392  19.518  0.00  0.00    +0.000 N 
ATOM     19  C   UNL     1       1.092   9.588  19.702  0.00  0.00    +0.000 A 
ATOM     20  C   UNL     1       1.213  10.223  18.476  0.00  0.00    +0.000 A 
ATOM     21  N   UNL     1       1.931   9.480  17.582  0.00  0.00    +0.000 NA
ATOM     22  C   UNL     1       2.205   8.363  18.200  0.00  0.00    +0.000 A 
ATOM     23  N   UNL     1       2.846   7.344  17.601  0.00  0.00    +0.000 N 
ATOM     24  H   UNL     1       3.058   7.541  16.623  0.00  0.00    +0.000 HD
ATOM     25  H   UNL     1       2.423   6.426  17.668  0.00  0.00    +0.000 HD
BRANCH  19  26
ATOM     26  C   UNL     1       0.322  10.025  20.883  0.00  0.00    +0.000 A 
ATOM     27  C   UNL     1       0.319   9.345  22.107  0.00  0.00    +0.000 A 
ATOM     28  C   UNL     1      -0.481   9.765  23.177  0.00  0.00    +0.000 A 
ATOM     29  C   UNL     1      -1.250  10.917  23.062  0.00  0.00    +0.000 A 
ATOM     30  C   UNL     1      -1.215  11.648  21.880  0.00  0.00    +0.000 A 
ATOM     31  C   UNL     1      -0.444  11.201  20.801  0.00  0.00    +0.000 A 
ENDBRANCH  19  26
ENDBRANCH  17  18
ENDBRANCH   1  17
TORSDOF 6
ENDMDL
MODEL 8
REMARK VINA RESULT:      -8.2      2.377      4.944
REMARK  Name = 
REMARK  6 active torsions:
REMARK  status: ('A' for Active; 'I' for Inactive)
REMARK    1  A    between atoms: C_5  and  C_6
REMARK    2  A    between atoms: N_12  and  C_13
REMARK    3  A    between atoms: C_13  and  C_14
REMARK    4  A    between atoms: C_14  and  C_15
REMARK    5  A    between atoms: C_15  and  N_16
REMARK    6  A    between atoms: C_17  and  C_18
REMARK                            x       y       z     vdW  Elec       q    Type
REMARK                         _______ _______ _______ _____ _____    ______ ____
ROOT
ATOM      1  C   UNL     1       1.746   5.993  20.280  0.00  0.00    +0.000 C 
ENDROOT
BRANCH   1   2
ATOM      2  C   UNL     1       2.195   7.443  20.519  0.00  0.00    +0.000 C 
BRANCH   2   8
ATOM      3  N   UNL     1       3.077   7.440  17.693  0.00  0.00    +0.000 N 
ATOM      4  C   UNL     1       2.257   8.381  18.188  0.00  0.00    +0.000 A 
ATOM      5  N   UNL     1       1.781   9.386  17.509  0.00  0.00    +0.000 NA
ATOM      6  C   UNL     1       1.015  10.096  18.394  0.00  0.00    +0.000 A 
ATOM      7  C   UNL     1       1.024   9.524  19.662  0.00  0.00    +0.000 A 
ATOM      8  N   UNL     1       1.819   8.402  19.501  0.00  0.00    +0.000 N 
ATOM      9  H   UNL     1       3.251   7.522  16.695  0.00  0.00    +0.000 HD
ATOM     10  H   UNL     1       2.973   6.469  17.970  0.00  0.00    +0.000 HD
BRANCH   7  11
ATOM     11  C   UNL     1       0.323   9.964  20.873  0.00  0.00    +0.000 A 
ATOM     12  C   UNL     1      -0.287  11.226  20.900  0.00  0.00    +0.000 A 
ATOM     13  C   UNL     1      -1.021  11.644  22.015  0.00  0.00    +0.000 A 
ATOM     14  C   UNL     1      -1.173  10.795  23.110  0.00  0.00    +0.000 A 
ATOM     15  C   UNL     1      -0.560   9.549  23.108  0.00  0.00    +0.000 A 
ATOM     16  C   UNL     1       0.213   9.157  22.012  0.00  0.00    +0.000 A 
ENDBRANCH   7  11
ENDBRANCH   2   8
ENDBRANCH   1   2
BRANCH   1  17
ATOM     17  C   UNL     1       2.892   4.991  20.191  0.00  0.00    +0.000 C 
BRANCH  17  18
ATOM     18  N   UNL     1       2.748   3.742  19.479  0.00  0.00    +0.000 N 
ATOM     19  C   UNL     1       3.609   3.320  18.457  0.00  0.00    +0.000 A 
ATOM     20  C   UNL     1       3.140   2.053  18.147  0.00  0.00    +0.000 A 
ATOM     21  N   UNL     1       2.058   1.706  18.906  0.00  0.00    +0.000 NA
ATOM     22  C   UNL     1       1.797   2.754  19.639  0.00  0.00    +0.000 A 
ATOM     23  N   UNL     1       0.742   2.812  20.470  0.00  0.00    +0.000 N 
ATOM     24  H   UNL     1       0.173   1.966  20.432  0.00  0.00    +0.000 HD
ATOM     25  H   UNL     1       0.135   3.620  20.395  0.00  0.00    +0.000 HD
BRANCH  19  26
ATOM     26  C   UNL     1       4.692   4.077  17.801  0.00  0.00    +0.000 A 
ATOM     27  C   UNL     1       4.645   4.510  16.470  0.00  0.00    +0.000 A 
ATOM     28  C   UNL     1       5.729   5.169  15.875  0.00  0.00    +0.000 A 
ATOM     29  C   UNL     1       6.862   5.463  16.624  0.00  0.00    +0.000 A 
ATOM     30  C   UNL     1       6.909   5.103  17.966  0.00  0.00    +0.000 A 
ATOM     31  C   UNL     1       5.839   4.410  18.544  0.00  0.00    +0.000 A 
ENDBRANCH  19  26
ENDBRANCH  17  18
ENDBRANCH   1  17
TORSDOF 6
ENDMDL
MODEL 9
REMARK VINA RESULT:      -8.2      1.871      3.436
REMARK  Name = 
REMARK  6 active torsions:
REMARK  status: ('A' for Active; 'I' for Inactive)
REMARK    1  A    between atoms: C_5  and  C_6
REMARK    2  A    between atoms: N_12  and  C_13
REMARK    3  A    between atoms: C_13  and  C_14
REMARK    4  A    between atoms: C_14  and  C_15
REMARK    5  A    between atoms: C_15  and  N_16
REMARK    6  A    between atoms: C_17  and  C_18
REMARK                            x       y       z     vdW  Elec       q    Type
REMARK                         _______ _______ _______ _____ _____    ______ ____
ROOT
ATOM      1  C   UNL     1       4.252   4.250  16.558  0.00  0.00    +0.000 C 
ENDROOT
BRANCH   1   2
ATOM      2  C   UNL     1       4.437   3.821  18.021  0.00  0.00    +0.000 C 
BRANCH   2   8
ATOM      3  N   UNL     1       3.678   0.979  18.349  0.00  0.00    +0.000 N 
ATOM      4  C   UNL     1       2.922   1.983  18.821  0.00  0.00    +0.000 A 
ATOM      5  N   UNL     1       1.787   1.831  19.445  0.00  0.00    +0.000 NA
ATOM      6  C   UNL     1       1.355   3.098  19.731  0.00  0.00    +0.000 A 
ATOM      7  C   UNL     1       2.237   4.065  19.262  0.00  0.00    +0.000 A 
ATOM      8  N   UNL     1       3.255   3.319  18.693  0.00  0.00    +0.000 N 
ATOM      9  H   UNL     1       3.334   0.051  18.584  0.00  0.00    +0.000 HD
ATOM     10  H   UNL     1       4.690   1.022  18.413  0.00  0.00    +0.000 HD
BRANCH   7  11
ATOM     11  C   UNL     1       2.148   5.525  19.379  0.00  0.00    +0.000 A 
ATOM     12  C   UNL     1       2.373   6.326  18.251  0.00  0.00    +0.000 A 
ATOM     13  C   UNL     1       2.225   7.715  18.316  0.00  0.00    +0.000 A 
ATOM     14  C   UNL     1       1.829   8.320  19.508  0.00  0.00    +0.000 A 
ATOM     15  C   UNL     1       1.620   7.544  20.640  0.00  0.00    +0.000 A 
ATOM     16  C   UNL     1       1.817   6.162  20.582  0.00  0.00    +0.000 A 
ENDBRANCH   7  11
ENDBRANCH   2   8
ENDBRANCH   1   2
BRANCH   1  17
ATOM     17  C   UNL     1       5.027   3.403  15.555  0.00  0.00    +0.000 C 
BRANCH  17  18
ATOM     18  N   UNL     1       5.960   3.997  14.626  0.00  0.00    +0.000 N 
ATOM     19  C   UNL     1       7.037   4.807  15.008  0.00  0.00    +0.000 A 
ATOM     20  C   UNL     1       7.687   5.062  13.811  0.00  0.00    +0.000 A 
ATOM     21  N   UNL     1       7.060   4.469  12.751  0.00  0.00    +0.000 NA
ATOM     22  C   UNL     1       5.995   3.902  13.249  0.00  0.00    +0.000 A 
ATOM     23  N   UNL     1       5.084   3.276  12.485  0.00  0.00    +0.000 N 
ATOM     24  H   UNL     1       5.313   3.324  11.492  0.00  0.00    +0.000 HD
ATOM     25  H   UNL     1       4.113   3.537  12.612  0.00  0.00    +0.000 HD
BRANCH  19  26
ATOM     26  C   UNL     1       7.352   5.341  16.348  0.00  0.00    +0.000 A 
ATOM     27  C   UNL     1       7.755   4.547  17.428  0.00  0.00    +0.000 A 
ATOM     28  C   UNL     1       7.979   5.096  18.698  0.00  0.00    +0.000 A 
ATOM     29  C   UNL     1       7.863   6.466  18.895  0.00  0.00    +0.000 A 
ATOM     30  C   UNL     1       7.528   7.286  17.823  0.00  0.00    +0.000 A 
ATOM     31  C   UNL     1       7.268   6.727  16.567  0.00  0.00    +0.000 A 
ENDBRANCH  19  26
ENDBRANCH  17  18
ENDBRANCH   1  17
TORSDOF 6
ENDMDL
