MODEL 1
REMARK VINA RESULT:      -6.9      0.000      0.000
REMARK  Name = 
REMARK  5 active torsions:
REMARK  status: ('A' for Active; 'I' for Inactive)
REMARK    1  A    between atoms: C_1  and  O_2
REMARK    2  A    between atoms: O_2  and  C_3
REMARK    3  A    between atoms: C_5  and  O_6
REMARK    4  A    between atoms: O_6  and  C_7
REMARK    5  A    between atoms: C_9  and  N_10
REMARK                            x       y       z     vdW  Elec       q    Type
REMARK                         _______ _______ _______ _____ _____    ______ ____
ROOT
ATOM      1  C   UNL     1       6.485   4.936  18.360  0.00  0.00    +0.000 A 
ATOM      2  C   UNL     1       6.767   4.482  17.075  0.00  0.00    +0.000 A 
ATOM      3  C   UNL     1       5.739   4.085  16.230  0.00  0.00    +0.000 A 
ATOM      4  C   UNL     1       4.417   4.115  16.690  0.00  0.00    +0.000 A 
ATOM      5  C   UNL     1       4.085   4.591  17.968  0.00  0.00    +0.000 A 
ATOM      6  C   UNL     1       5.157   4.981  18.791  0.00  0.00    +0.000 A 
ENDROOT
BRANCH   5   7
ATOM      7  N   UNL     1       2.773   4.692  18.402  0.00  0.00    +0.000 N 
ATOM      8  C   UNL     1       1.663   3.983  17.765  0.00  0.00    +0.000 C 
ATOM      9  C   UNL     1       1.419   2.641  18.441  0.00  0.00    +0.000 C 
ATOM     10  C   UNL     1       1.112   2.686  19.941  0.00  0.00    +0.000 C 
ATOM     11  N   UNL     1       0.684   3.976  20.494  0.00  0.00    +0.000 NA
ATOM     12  C   UNL     1       1.847   4.858  20.732  0.00  0.00    +0.000 C 
ATOM     13  C   UNL     1       2.389   5.602  19.495  0.00  0.00    +0.000 C 
ATOM     14  H   UNL     1       0.247   3.794  21.398  0.00  0.00    +0.000 HD
ENDBRANCH   5   7
BRANCH   1  16
ATOM     15  C   UNL     1       8.107   6.608  18.814  0.00  0.00    +0.000 C 
ATOM     16  O   UNL     1       7.571   5.320  19.099  0.00  0.00    +0.000 OA
ENDBRANCH   1  16
BRANCH   3  17
ATOM     17  O   UNL     1       6.119   3.675  14.979  0.00  0.00    +0.000 OA
ATOM     18  C   UNL     1       6.805   4.651  14.198  0.00  0.00    +0.000 C 
ENDBRANCH   3  17
TORSDOF 3
ENDMDL
MODEL 2
REMARK VINA RESULT:      -6.8      0.291      2.679
REMARK  Name = 
REMARK  5 active torsions:
REMARK  status: ('A' for Active; 'I' for Inactive)
REMARK    1  A    between atoms: C_1  and  O_2
REMARK    2  A    between atoms: O_2  and  C_3
REMARK    3  A    between atoms: C_5  and  O_6
REMARK    4  A    between atoms: O_6  and  C_7
REMARK    5  A    between atoms: C_9  and  N_10
REMARK                            x       y       z     vdW  Elec       q    Type
REMARK                         _______ _______ _______ _____ _____    ______ ____
ROOT
ATOM      1  C   UNL     1       5.512   4.257  16.016  0.00  0.00    +0.000 A 
ATOM      2  C   UNL     1       6.621   4.435  16.839  0.00  0.00    +0.000 A 
ATOM      3  C   UNL     1       6.454   4.710  18.190  0.00  0.00    +0.000 A 
ATOM      4  C   UNL     1       5.163   4.837  18.715  0.00  0.00    +0.000 A 
ATOM      5  C   UNL     1       4.017   4.637  17.927  0.00  0.00    +0.000 A 
ATOM      6  C   UNL     1       4.232   4.363  16.564  0.00  0.00    +0.000 A 
ENDROOT
BRANCH   5   7
ATOM      7  N   UNL     1       2.738   4.689  18.457  0.00  0.00    +0.000 N 
ATOM      8  C   UNL     1       1.594   4.007  17.851  0.00  0.00    +0.000 C 
ATOM      9  C   UNL     1       1.412   2.620  18.451  0.00  0.00    +0.000 C 
ATOM     10  C   UNL     1       1.209   2.560  19.968  0.00  0.00    +0.000 C 
ATOM     11  N   UNL     1       0.808   3.804  20.635  0.00  0.00    +0.000 NA
ATOM     12  C   UNL     1       1.976   4.686  20.852  0.00  0.00    +0.000 C 
ATOM     13  C   UNL     1       2.422   5.518  19.633  0.00  0.00    +0.000 C 
ATOM     14  H   UNL     1       0.437   3.556  21.553  0.00  0.00    +0.000 HD
ENDBRANCH   5   7
BRANCH   1  16
ATOM     15  C   UNL     1       6.888   4.672  14.127  0.00  0.00    +0.000 C 
ATOM     16  O   UNL     1       5.793   3.972  14.707  0.00  0.00    +0.000 OA
ENDBRANCH   1  16
BRANCH   3  17
ATOM     17  O   UNL     1       7.607   4.847  18.918  0.00  0.00    +0.000 OA
ATOM     18  C   UNL     1       8.047   6.188  19.117  0.00  0.00    +0.000 C 
ENDBRANCH   3  17
TORSDOF 3
ENDMDL
MODEL 3
REMARK VINA RESULT:      -6.7      1.105      3.050
REMARK  Name = 
REMARK  5 active torsions:
REMARK  status: ('A' for Active; 'I' for Inactive)
REMARK    1  A    between atoms: C_1  and  O_2
REMARK    2  A    between atoms: O_2  and  C_3
REMARK    3  A    between atoms: C_5  and  O_6
REMARK    4  A    between atoms: O_6  and  C_7
REMARK    5  A    between atoms: C_9  and  N_10
REMARK                            x       y       z     vdW  Elec       q    Type
REMARK                         _______ _______ _______ _____ _____    ______ ____
ROOT
ATOM      1  C   UNL     1       6.335   4.365  15.486  0.00  0.00    +0.000 A 
ATOM      2  C   UNL     1       7.312   4.536  16.464  0.00  0.00    +0.000 A 
ATOM      3  C   UNL     1       6.962   4.559  17.808  0.00  0.00    +0.000 A 
ATOM      4  C   UNL     1       5.616   4.441  18.174  0.00  0.00    +0.000 A 
ATOM      5  C   UNL     1       4.603   4.239  17.223  0.00  0.00    +0.000 A 
ATOM      6  C   UNL     1       5.001   4.224  15.873  0.00  0.00    +0.000 A 
ENDROOT
BRANCH   5   7
ATOM      7  N   UNL     1       3.278   4.048  17.583  0.00  0.00    +0.000 N 
ATOM      8  C   UNL     1       2.569   2.785  17.382  0.00  0.00    +0.000 C 
ATOM      9  C   UNL     1       2.671   1.904  18.619  0.00  0.00    +0.000 C 
ATOM     10  C   UNL     1       2.139   2.506  19.923  0.00  0.00    +0.000 C 
ATOM     11  N   UNL     1       1.238   3.658  19.805  0.00  0.00    +0.000 NA
ATOM     12  C   UNL     1       2.002   4.903  19.572  0.00  0.00    +0.000 C 
ATOM     13  C   UNL     1       2.458   5.148  18.120  0.00  0.00    +0.000 C 
ATOM     14  H   UNL     1       0.750   3.760  20.696  0.00  0.00    +0.000 HD
ENDBRANCH   5   7
BRANCH   1  16
ATOM     15  C   UNL     1       5.958   3.694  13.242  0.00  0.00    +0.000 C 
ATOM     16  O   UNL     1       6.794   4.338  14.197  0.00  0.00    +0.000 OA
ENDBRANCH   1  16
BRANCH   3  17
ATOM     17  O   UNL     1       7.998   4.711  18.692  0.00  0.00    +0.000 OA
ATOM     18  C   UNL     1       7.894   5.830  19.568  0.00  0.00    +0.000 C 
ENDBRANCH   3  17
TORSDOF 3
ENDMDL
MODEL 4
REMARK VINA RESULT:      -6.6      1.240      1.240
REMARK  Name = 
REMARK  5 active torsions:
REMARK  status: ('A' for Active; 'I' for Inactive)
REMARK    1  A    between atoms: C_1  and  O_2
REMARK    2  A    between atoms: O_2  and  C_3
REMARK    3  A    between atoms: C_5  and  O_6
REMARK    4  A    between atoms: O_6  and  C_7
REMARK    5  A    between atoms: C_9  and  N_10
REMARK                            x       y       z     vdW  Elec       q    Type
REMARK                         _______ _______ _______ _____ _____    ______ ____
ROOT
ATOM      1  C   UNL     1       5.898   6.550  16.961  0.00  0.00    +0.000 A 
ATOM      2  C   UNL     1       6.324   5.534  16.111  0.00  0.00    +0.000 A 
ATOM      3  C   UNL     1       5.563   4.383  15.957  0.00  0.00    +0.000 A 
ATOM      4  C   UNL     1       4.378   4.236  16.687  0.00  0.00    +0.000 A 
ATOM      5  C   UNL     1       3.896   5.247  17.534  0.00  0.00    +0.000 A 
ATOM      6  C   UNL     1       4.699   6.395  17.662  0.00  0.00    +0.000 A 
ENDROOT
BRANCH   5   7
ATOM      7  N   UNL     1       2.687   5.138  18.202  0.00  0.00    +0.000 N 
ATOM      8  C   UNL     1       1.574   4.323  17.715  0.00  0.00    +0.000 C 
ATOM      9  C   UNL     1       1.632   2.922  18.307  0.00  0.00    +0.000 C 
ATOM     10  C   UNL     1       1.609   2.832  19.836  0.00  0.00    +0.000 C 
ATOM     11  N   UNL     1       1.136   4.014  20.565  0.00  0.00    +0.000 NA
ATOM     12  C   UNL     1       2.204   5.032  20.666  0.00  0.00    +0.000 C 
ATOM     13  C   UNL     1       2.406   5.918  19.420  0.00  0.00    +0.000 C 
ATOM     14  H   UNL     1       0.903   3.718  21.514  0.00  0.00    +0.000 HD
ENDBRANCH   5   7
BRANCH   1  16
ATOM     15  C   UNL     1       7.829   7.559  17.903  0.00  0.00    +0.000 C 
ATOM     16  O   UNL     1       6.714   7.647  17.021  0.00  0.00    +0.000 OA
ENDBRANCH   1  16
BRANCH   3  17
ATOM     17  O   UNL     1       6.058   3.452  15.082  0.00  0.00    +0.000 OA
ATOM     18  C   UNL     1       6.256   3.912  13.748  0.00  0.00    +0.000 C 
ENDBRANCH   3  17
TORSDOF 3
ENDMDL
MODEL 5
REMARK VINA RESULT:      -6.6      1.607      2.112
REMARK  Name = 
REMARK  5 active torsions:
REMARK  status: ('A' for Active; 'I' for Inactive)
REMARK    1  A    between atoms: C_1  and  O_2
REMARK    2  A    between atoms: O_2  and  C_3
REMARK    3  A    between atoms: C_5  and  O_6
REMARK    4  A    between atoms: O_6  and  C_7
REMARK    5  A    between atoms: C_9  and  N_10
REMARK                            x       y       z     vdW  Elec       q    Type
REMARK                         _______ _______ _______ _____ _____    ______ ____
ROOT
ATOM      1  C   UNL     1       7.150   6.170  18.148  0.00  0.00    +0.000 A 
ATOM      2  C   UNL     1       7.134   6.118  16.757  0.00  0.00    +0.000 A 
ATOM      3  C   UNL     1       6.196   5.337  16.094  0.00  0.00    +0.000 A 
ATOM      4  C   UNL     1       5.284   4.575  16.836  0.00  0.00    +0.000 A 
ATOM      5  C   UNL     1       5.247   4.620  18.239  0.00  0.00    +0.000 A 
ATOM      6  C   UNL     1       6.216   5.423  18.869  0.00  0.00    +0.000 A 
ENDROOT
BRANCH   5   7
ATOM      7  N   UNL     1       4.300   3.926  18.975  0.00  0.00    +0.000 N 
ATOM      8  C   UNL     1       3.103   4.554  19.533  0.00  0.00    +0.000 C 
ATOM      9  C   UNL     1       1.932   4.438  18.567  0.00  0.00    +0.000 C 
ATOM     10  C   UNL     1       1.533   3.018  18.155  0.00  0.00    +0.000 C 
ATOM     11  N   UNL     1       2.013   1.920  19.002  0.00  0.00    +0.000 NA
ATOM     12  C   UNL     1       3.420   1.589  18.688  0.00  0.00    +0.000 C 
ATOM     13  C   UNL     1       4.483   2.506  19.325  0.00  0.00    +0.000 C 
ATOM     14  H   UNL     1       1.449   1.097  18.788  0.00  0.00    +0.000 HD
ENDBRANCH   5   7
BRANCH   1  16
ATOM     15  C   UNL     1       8.215   8.291  18.135  0.00  0.00    +0.000 C 
ATOM     16  O   UNL     1       8.103   6.986  18.694  0.00  0.00    +0.000 OA
ENDBRANCH   1  16
BRANCH   3  17
ATOM     17  O   UNL     1       6.250   5.370  14.726  0.00  0.00    +0.000 OA
ATOM     18  C   UNL     1       6.270   4.098  14.084  0.00  0.00    +0.000 C 
ENDBRANCH   3  17
TORSDOF 3
ENDMDL
MODEL 6
REMARK VINA RESULT:      -6.6      1.596      3.405
REMARK  Name = 
REMARK  5 active torsions:
REMARK  status: ('A' for Active; 'I' for Inactive)
REMARK    1  A    between atoms: C_1  and  O_2
REMARK    2  A    between atoms: O_2  and  C_3
REMARK    3  A    between atoms: C_5  and  O_6
REMARK    4  A    between atoms: O_6  and  C_7
REMARK    5  A    between atoms: C_9  and  N_10
REMARK                            x       y       z     vdW  Elec       q    Type
REMARK                         _______ _______ _______ _____ _____    ______ ____
ROOT
ATOM      1  C   UNL     1       5.971   5.422  16.151  0.00  0.00    +0.000 A 
ATOM      2  C   UNL     1       6.971   6.141  16.799  0.00  0.00    +0.000 A 
ATOM      3  C   UNL     1       7.053   6.136  18.185  0.00  0.00    +0.000 A 
ATOM      4  C   UNL     1       6.103   5.428  18.930  0.00  0.00    +0.000 A 
ATOM      5  C   UNL     1       5.095   4.666  18.317  0.00  0.00    +0.000 A 
ATOM      6  C   UNL     1       5.048   4.701  16.911  0.00  0.00    +0.000 A 
ENDROOT
BRANCH   5   7
ATOM      7  N   UNL     1       4.197   3.904  19.047  0.00  0.00    +0.000 N 
ATOM      8  C   UNL     1       3.009   4.464  19.689  0.00  0.00    +0.000 C 
ATOM      9  C   UNL     1       1.802   4.373  18.766  0.00  0.00    +0.000 C 
ATOM     10  C   UNL     1       1.423   2.969  18.285  0.00  0.00    +0.000 C 
ATOM     11  N   UNL     1       1.966   1.837  19.044  0.00  0.00    +0.000 NA
ATOM     12  C   UNL     1       3.366   1.565  18.654  0.00  0.00    +0.000 C 
ATOM     13  C   UNL     1       4.431   2.472  19.303  0.00  0.00    +0.000 C 
ATOM     14  H   UNL     1       1.414   1.012  18.803  0.00  0.00    +0.000 HD
ENDBRANCH   5   7
BRANCH   1  16
ATOM     15  C   UNL     1       6.430   4.306  14.107  0.00  0.00    +0.000 C 
ATOM     16  O   UNL     1       5.997   5.482  14.784  0.00  0.00    +0.000 OA
ENDBRANCH   1  16
BRANCH   3  17
ATOM     17  O   UNL     1       8.085   6.858  18.725  0.00  0.00    +0.000 OA
ATOM     18  C   UNL     1       8.248   8.175  18.204  0.00  0.00    +0.000 C 
ENDBRANCH   3  17
TORSDOF 3
ENDMDL
MODEL 7
REMARK VINA RESULT:      -6.6      1.070      1.835
REMARK  Name = 
REMARK  5 active torsions:
REMARK  status: ('A' for Active; 'I' for Inactive)
REMARK    1  A    between atoms: C_1  and  O_2
REMARK    2  A    between atoms: O_2  and  C_3
REMARK    3  A    between atoms: C_5  and  O_6
REMARK    4  A    between atoms: O_6  and  C_7
REMARK    5  A    between atoms: C_9  and  N_10
REMARK                            x       y       z     vdW  Elec       q    Type
REMARK                         _______ _______ _______ _____ _____    ______ ____
ROOT
ATOM      1  C   UNL     1       6.338   5.114  18.332  0.00  0.00    +0.000 A 
ATOM      2  C   UNL     1       6.416   4.936  16.954  0.00  0.00    +0.000 A 
ATOM      3  C   UNL     1       5.508   4.113  16.300  0.00  0.00    +0.000 A 
ATOM      4  C   UNL     1       4.531   3.437  17.041  0.00  0.00    +0.000 A 
ATOM      5  C   UNL     1       4.398   3.610  18.428  0.00  0.00    +0.000 A 
ATOM      6  C   UNL     1       5.340   4.450  19.050  0.00  0.00    +0.000 A 
ENDROOT
BRANCH   5   7
ATOM      7  N   UNL     1       3.388   3.002  19.156  0.00  0.00    +0.000 N 
ATOM      8  C   UNL     1       3.274   3.107  20.610  0.00  0.00    +0.000 C 
ATOM      9  C   UNL     1       2.378   4.274  21.000  0.00  0.00    +0.000 C 
ATOM     10  C   UNL     1       0.950   4.245  20.447  0.00  0.00    +0.000 C 
ATOM     11  N   UNL     1       0.453   2.954  19.956  0.00  0.00    +0.000 NA
ATOM     12  C   UNL     1       0.959   2.678  18.594  0.00  0.00    +0.000 C 
ATOM     13  C   UNL     1       2.395   2.123  18.512  0.00  0.00    +0.000 C 
ATOM     14  H   UNL     1      -0.564   3.017  19.899  0.00  0.00    +0.000 HD
ENDBRANCH   5   7
BRANCH   1  16
ATOM     15  C   UNL     1       7.731   7.010  18.025  0.00  0.00    +0.000 C 
ATOM     16  O   UNL     1       7.269   5.960  18.869  0.00  0.00    +0.000 OA
ENDBRANCH   1  16
BRANCH   3  17
ATOM     17  O   UNL     1       5.656   4.020  14.942  0.00  0.00    +0.000 OA
ATOM     18  C   UNL     1       6.715   4.798  14.388  0.00  0.00    +0.000 C 
ENDBRANCH   3  17
TORSDOF 3
ENDMDL
MODEL 8
REMARK VINA RESULT:      -6.6      1.531      1.962
REMARK  Name = 
REMARK  5 active torsions:
REMARK  status: ('A' for Active; 'I' for Inactive)
REMARK    1  A    between atoms: C_1  and  O_2
REMARK    2  A    between atoms: O_2  and  C_3
REMARK    3  A    between atoms: C_5  and  O_6
REMARK    4  A    between atoms: O_6  and  C_7
REMARK    5  A    between atoms: C_9  and  N_10
REMARK                            x       y       z     vdW  Elec       q    Type
REMARK                         _______ _______ _______ _____ _____    ______ ____
ROOT
ATOM      1  C   UNL     1       6.888   5.918  16.561  0.00  0.00    +0.000 A 
ATOM      2  C   UNL     1       6.864   5.173  15.385  0.00  0.00    +0.000 A 
ATOM      3  C   UNL     1       5.953   4.136  15.230  0.00  0.00    +0.000 A 
ATOM      4  C   UNL     1       5.078   3.824  16.277  0.00  0.00    +0.000 A 
ATOM      5  C   UNL     1       5.048   4.567  17.468  0.00  0.00    +0.000 A 
ATOM      6  C   UNL     1       5.989   5.607  17.584  0.00  0.00    +0.000 A 
ENDROOT
BRANCH   5   7
ATOM      7  N   UNL     1       4.134   4.310  18.477  0.00  0.00    +0.000 N 
ATOM      8  C   UNL     1       2.918   5.098  18.675  0.00  0.00    +0.000 C 
ATOM      9  C   UNL     1       1.745   4.478  17.929  0.00  0.00    +0.000 C 
ATOM     10  C   UNL     1       1.398   3.031  18.296  0.00  0.00    +0.000 C 
ATOM     11  N   UNL     1       1.927   2.523  19.567  0.00  0.00    +0.000 NA
ATOM     12  C   UNL     1       3.343   2.120  19.425  0.00  0.00    +0.000 C 
ATOM     13  C   UNL     1       4.374   3.265  19.488  0.00  0.00    +0.000 C 
ATOM     14  H   UNL     1       1.393   1.687  19.809  0.00  0.00    +0.000 HD
ENDBRANCH   5   7
BRANCH   1  16
ATOM     15  C   UNL     1       7.686   7.861  17.665  0.00  0.00    +0.000 C 
ATOM     16  O   UNL     1       7.812   6.927  16.598  0.00  0.00    +0.000 OA
ENDBRANCH   1  16
BRANCH   3  17
ATOM     17  O   UNL     1       5.997   3.478  14.030  0.00  0.00    +0.000 OA
ATOM     18  C   UNL     1       6.745   4.126  13.004  0.00  0.00    +0.000 C 
ENDBRANCH   3  17
TORSDOF 3
ENDMDL
MODEL 9
REMARK VINA RESULT:      -6.5      1.566      3.286
REMARK  Name = 
REMARK  5 active torsions:
REMARK  status: ('A' for Active; 'I' for Inactive)
REMARK    1  A    between atoms: C_1  and  O_2
REMARK    2  A    between atoms: O_2  and  C_3
REMARK    3  A    between atoms: C_5  and  O_6
REMARK    4  A    between atoms: O_6  and  C_7
REMARK    5  A    between atoms: C_9  and  N_10
REMARK                            x       y       z     vdW  Elec       q    Type
REMARK                         _______ _______ _______ _____ _____    ______ ____
ROOT
ATOM      1  C   UNL     1       6.073   4.089  15.357  0.00  0.00    +0.000 A 
ATOM      2  C   UNL     1       6.913   5.193  15.467  0.00  0.00    +0.000 A 
ATOM      3  C   UNL     1       6.809   6.048  16.557  0.00  0.00    +0.000 A 
ATOM      4  C   UNL     1       5.831   5.810  17.530  0.00  0.00    +0.000 A 
ATOM      5  C   UNL     1       4.982   4.693  17.473  0.00  0.00    +0.000 A 
ATOM      6  C   UNL     1       5.121   3.854  16.352  0.00  0.00    +0.000 A 
ENDROOT
BRANCH   5   7
ATOM      7  N   UNL     1       4.063   4.411  18.471  0.00  0.00    +0.000 N 
ATOM      8  C   UNL     1       2.758   5.067  18.565  0.00  0.00    +0.000 C 
ATOM      9  C   UNL     1       1.694   4.258  17.835  0.00  0.00    +0.000 C 
ATOM     10  C   UNL     1       1.498   2.815  18.309  0.00  0.00    +0.000 C 
ATOM     11  N   UNL     1       2.028   2.472  19.634  0.00  0.00    +0.000 NA
ATOM     12  C   UNL     1       3.485   2.226  19.570  0.00  0.00    +0.000 C 
ATOM     13  C   UNL     1       4.377   3.484  19.571  0.00  0.00    +0.000 C 
ATOM     14  H   UNL     1       1.583   1.602  19.928  0.00  0.00    +0.000 HD
ENDBRANCH   5   7
BRANCH   1  16
ATOM     15  C   UNL     1       5.779   3.808  13.019  0.00  0.00    +0.000 C 
ATOM     16  O   UNL     1       6.276   3.304  14.254  0.00  0.00    +0.000 OA
ENDBRANCH   1  16
BRANCH   3  17
ATOM     17  O   UNL     1       7.695   7.092  16.584  0.00  0.00    +0.000 OA
ATOM     18  C   UNL     1       7.837   7.741  17.845  0.00  0.00    +0.000 C 
ENDBRANCH   3  17
TORSDOF 3
ENDMDL
