MODEL 1
REMARK VINA RESULT:      -8.4      0.000      0.000
REMARK  Name = 
REMARK  7 active torsions:
REMARK  status: ('A' for Active; 'I' for Inactive)
REMARK    1  A    between atoms: C_2  and  CA_17
REMARK    2  A    between atoms: N_3  and  CA_4
REMARK    3  A    between atoms: CA_4  and  C_5
REMARK    4  A    between atoms: CA_4  and  C_14
REMARK    5  A    between atoms: C_5  and  C_6
REMARK    6  A    between atoms: C_9  and  O_10
REMARK    7  A    between atoms: C_14  and  OXT_16
REMARK                            x       y       z     vdW  Elec       q    Type
REMARK                         _______ _______ _______ _____ _____    ______ ____
ROOT
ATOM      1  O   UNL     1       8.284   6.906  18.941  0.00  0.00    +0.000 OA
ATOM      2  C   UNL     1       7.956   7.740  18.097  0.00  0.00    +0.000 C 
ATOM      3  N   UNL     1       7.099   7.416  17.079  0.00  0.00    +0.000 N 
ATOM      4  H   UNL     1       6.896   8.092  16.347  0.00  0.00    +0.000 HD
ENDROOT
BRANCH   2   5
ATOM      5  CA  UNL     1       8.409   9.108  18.178  0.00  0.00    +0.000 A 
ATOM      6  C   UNL     1       8.299  10.215  17.346  0.00  0.00    +0.000 A 
ATOM      7  C   UNL     1       8.857  11.346  18.023  0.00  0.00    +0.000 A 
ATOM      8  C   UNL     1       8.991  12.719  17.728  0.00  0.00    +0.000 A 
ATOM      9  C   UNL     1       9.570  13.579  18.676  0.00  0.00    +0.000 A 
ATOM     10  C   UNL     1      10.034  13.086  19.892  0.00  0.00    +0.000 A 
ATOM     11  C   UNL     1       9.923  11.732  20.189  0.00  0.00    +0.000 A 
ATOM     12  F   UNL     1      10.368  11.256  21.361  0.00  0.00    +0.000 F 
ATOM     13  C   UNL     1       9.331  10.887  19.250  0.00  0.00    +0.000 A 
ATOM     14  N   UNL     1       9.078   9.543  19.304  0.00  0.00    +0.000 N 
ATOM     15  H   UNL     1       9.298   8.947  20.092  0.00  0.00    +0.000 HD
ENDBRANCH   2   5
BRANCH   3  16
ATOM     16  CA  UNL     1       6.450   6.098  16.977  0.00  0.00    +0.000 C 
BRANCH  16  17
ATOM     17  C   UNL     1       7.368   5.155  16.179  0.00  0.00    +0.000 C 
ATOM     18  O   UNL     1       7.571   5.263  14.975  0.00  0.00    +0.000 OA
BRANCH  17  19
ATOM     19  OXT UNL     1       7.970   4.188  16.914  0.00  0.00    +0.000 OA
ATOM     20  HXT UNL     1       8.941   4.142  16.842  0.00  0.00    +0.000 HD
ENDBRANCH  17  19
ENDBRANCH  16  17
BRANCH  16  21
ATOM     21  C   UNL     1       5.030   6.133  16.357  0.00  0.00    +0.000 C 
BRANCH  21  22
ATOM     22  C   UNL     1       3.938   5.905  17.376  0.00  0.00    +0.000 A 
ATOM     23  C   UNL     1       3.462   6.960  18.162  0.00  0.00    +0.000 A 
ATOM     24  C   UNL     1       2.578   6.716  19.214  0.00  0.00    +0.000 A 
ATOM     25  C   UNL     1       2.161   5.414  19.482  0.00  0.00    +0.000 A 
ATOM     26  C   UNL     1       2.605   4.355  18.685  0.00  0.00    +0.000 A 
ATOM     27  I   UNL     1       2.082   2.369  19.076  0.00  0.00    +0.000 I 
ATOM     28  C   UNL     1       3.470   4.603  17.623  0.00  0.00    +0.000 A 
BRANCH  25  29
ATOM     29  O   UNL     1       1.338   5.179  20.548  0.00  0.00    +0.000 OA
ATOM     30  H   UNL     1       1.834   5.326  21.369  0.00  0.00    +0.000 HD
ENDBRANCH  25  29
ENDBRANCH  21  22
ENDBRANCH  16  21
ENDBRANCH   3  16
TORSDOF 7
ENDMDL
MODEL 2
REMARK VINA RESULT:      -7.9      1.143      1.479
REMARK  Name = 
REMARK  7 active torsions:
REMARK  status: ('A' for Active; 'I' for Inactive)
REMARK    1  A    between atoms: C_2  and  CA_17
REMARK    2  A    between atoms: N_3  and  CA_4
REMARK    3  A    between atoms: CA_4  and  C_5
REMARK    4  A    between atoms: CA_4  and  C_14
REMARK    5  A    between atoms: C_5  and  C_6
REMARK    6  A    between atoms: C_9  and  O_10
REMARK    7  A    between atoms: C_14  and  OXT_16
REMARK                            x       y       z     vdW  Elec       q    Type
REMARK                         _______ _______ _______ _____ _____    ______ ____
ROOT
ATOM      1  O   UNL     1       8.458   7.087  18.879  0.00  0.00    +0.000 OA
ATOM      2  C   UNL     1       8.010   7.938  18.110  0.00  0.00    +0.000 C 
ATOM      3  N   UNL     1       7.041   7.624  17.196  0.00  0.00    +0.000 N 
ATOM      4  H   UNL     1       6.734   8.317  16.518  0.00  0.00    +0.000 HD
ENDROOT
BRANCH   2   5
ATOM      5  CA  UNL     1       8.442   9.313  18.180  0.00  0.00    +0.000 A 
ATOM      6  C   UNL     1       8.226  10.437  17.394  0.00  0.00    +0.000 A 
ATOM      7  C   UNL     1       8.828  11.563  18.039  0.00  0.00    +0.000 A 
ATOM      8  C   UNL     1       8.904  12.946  17.768  0.00  0.00    +0.000 A 
ATOM      9  C   UNL     1       9.560  13.796  18.674  0.00  0.00    +0.000 A 
ATOM     10  C   UNL     1      10.157  13.284  19.822  0.00  0.00    +0.000 A 
ATOM     11  C   UNL     1      10.104  11.922  20.094  0.00  0.00    +0.000 A 
ATOM     12  F   UNL     1      10.676  11.427  21.201  0.00  0.00    +0.000 F 
ATOM     13  C   UNL     1       9.434  11.086  19.199  0.00  0.00    +0.000 A 
ATOM     14  N   UNL     1       9.215   9.736  19.242  0.00  0.00    +0.000 N 
ATOM     15  H   UNL     1       9.526   9.126  19.988  0.00  0.00    +0.000 HD
ENDBRANCH   2   5
BRANCH   3  16
ATOM     16  CA  UNL     1       6.411   6.295  17.131  0.00  0.00    +0.000 C 
BRANCH  16  17
ATOM     17  C   UNL     1       7.272   5.382  16.240  0.00  0.00    +0.000 C 
ATOM     18  O   UNL     1       7.351   5.498  15.023  0.00  0.00    +0.000 OA
BRANCH  17  19
ATOM     19  OXT UNL     1       7.974   4.433  16.907  0.00  0.00    +0.000 OA
ATOM     20  HXT UNL     1       7.722   3.509  16.722  0.00  0.00    +0.000 HD
ENDBRANCH  17  19
ENDBRANCH  16  17
BRANCH  16  21
ATOM     21  C   UNL     1       4.941   6.309  16.639  0.00  0.00    +0.000 C 
BRANCH  21  22
ATOM     22  C   UNL     1       3.971   5.776  17.667  0.00  0.00    +0.000 A 
ATOM     23  C   UNL     1       3.542   4.445  17.621  0.00  0.00    +0.000 A 
ATOM     24  C   UNL     1       2.523   4.000  18.465  0.00  0.00    +0.000 A 
ATOM     25  C   UNL     1       1.930   4.886  19.362  0.00  0.00    +0.000 A 
ATOM     26  C   UNL     1       2.369   6.211  19.439  0.00  0.00    +0.000 A 
ATOM     27  I   UNL     1       1.474   7.612  20.706  0.00  0.00    +0.000 I 
ATOM     28  C   UNL     1       3.400   6.646  18.612  0.00  0.00    +0.000 A 
BRANCH  25  29
ATOM     29  O   UNL     1       0.895   4.454  20.145  0.00  0.00    +0.000 OA
ATOM     30  H   UNL     1       0.142   5.056  20.035  0.00  0.00    +0.000 HD
ENDBRANCH  25  29
ENDBRANCH  21  22
ENDBRANCH  16  21
ENDBRANCH   3  16
TORSDOF 7
ENDMDL
MODEL 3
REMARK VINA RESULT:      -7.9      6.288      9.144
REMARK  Name = 
REMARK  7 active torsions:
REMARK  status: ('A' for Active; 'I' for Inactive)
REMARK    1  A    between atoms: C_2  and  CA_17
REMARK    2  A    between atoms: N_3  and  CA_4
REMARK    3  A    between atoms: CA_4  and  C_5
REMARK    4  A    between atoms: CA_4  and  C_14
REMARK    5  A    between atoms: C_5  and  C_6
REMARK    6  A    between atoms: C_9  and  O_10
REMARK    7  A    between atoms: C_14  and  OXT_16
REMARK                            x       y       z     vdW  Elec       q    Type
REMARK                         _______ _______ _______ _____ _____    ______ ____
ROOT
ATOM      1  O   UNL     1       2.023   9.331  17.307  0.00  0.00    +0.000 OA
ATOM      2  C   UNL     1       1.754   9.047  18.475  0.00  0.00    +0.000 C 
ATOM      3  N   UNL     1       1.122   9.944  19.294  0.00  0.00    +0.000 N 
ATOM      4  H   UNL     1       0.975   9.724  20.275  0.00  0.00    +0.000 HD
ENDROOT
BRANCH   2   5
ATOM      5  CA  UNL     1       2.038   7.737  19.012  0.00  0.00    +0.000 A 
ATOM      6  C   UNL     1       1.857   7.140  20.252  0.00  0.00    +0.000 A 
ATOM      7  C   UNL     1       2.232   5.763  20.149  0.00  0.00    +0.000 A 
ATOM      8  C   UNL     1       2.225   4.658  21.027  0.00  0.00    +0.000 A 
ATOM      9  C   UNL     1       2.633   3.398  20.561  0.00  0.00    +0.000 A 
ATOM     10  C   UNL     1       3.068   3.233  19.249  0.00  0.00    +0.000 A 
ATOM     11  C   UNL     1       3.096   4.316  18.377  0.00  0.00    +0.000 A 
ATOM     12  F   UNL     1       3.513   4.159  17.113  0.00  0.00    +0.000 F 
ATOM     13  C   UNL     1       2.671   5.561  18.843  0.00  0.00    +0.000 A 
ATOM     14  N   UNL     1       2.574   6.763  18.195  0.00  0.00    +0.000 N 
ATOM     15  H   UNL     1       2.808   6.913  17.221  0.00  0.00    +0.000 HD
ENDBRANCH   2   5
BRANCH   3  16
ATOM     16  CA  UNL     1       0.645  11.253  18.818  0.00  0.00    +0.000 C 
BRANCH  16  17
ATOM     17  C   UNL     1       1.837  12.225  18.766  0.00  0.00    +0.000 C 
ATOM     18  O   UNL     1       2.236  12.864  19.733  0.00  0.00    +0.000 OA
BRANCH  17  19
ATOM     19  OXT UNL     1       2.447  12.315  17.559  0.00  0.00    +0.000 OA
ATOM     20  HXT UNL     1       3.212  12.919  17.512  0.00  0.00    +0.000 HD
ENDBRANCH  17  19
ENDBRANCH  16  17
BRANCH  16  21
ATOM     21  C   UNL     1      -0.513  11.852  19.657  0.00  0.00    +0.000 C 
BRANCH  21  22
ATOM     22  C   UNL     1      -1.836  11.840  18.927  0.00  0.00    +0.000 A 
ATOM     23  C   UNL     1      -3.015  12.215  19.581  0.00  0.00    +0.000 A 
ATOM     24  C   UNL     1      -4.253  12.043  18.959  0.00  0.00    +0.000 A 
ATOM     25  C   UNL     1      -4.316  11.499  17.679  0.00  0.00    +0.000 A 
ATOM     26  C   UNL     1      -3.144  11.148  17.003  0.00  0.00    +0.000 A 
ATOM     27  I   UNL     1      -3.169  10.256  15.113  0.00  0.00    +0.000 I 
ATOM     28  C   UNL     1      -1.909  11.340  17.616  0.00  0.00    +0.000 A 
BRANCH  25  29
ATOM     29  O   UNL     1      -5.537  11.284  17.101  0.00  0.00    +0.000 OA
ATOM     30  H   UNL     1      -6.227  11.660  17.670  0.00  0.00    +0.000 HD
ENDBRANCH  25  29
ENDBRANCH  21  22
ENDBRANCH  16  21
ENDBRANCH   3  16
TORSDOF 7
ENDMDL
MODEL 4
REMARK VINA RESULT:      -7.8      5.643      7.158
REMARK  Name = 
REMARK  7 active torsions:
REMARK  status: ('A' for Active; 'I' for Inactive)
REMARK    1  A    between atoms: C_2  and  CA_17
REMARK    2  A    between atoms: N_3  and  CA_4
REMARK    3  A    between atoms: CA_4  and  C_5
REMARK    4  A    between atoms: CA_4  and  C_14
REMARK    5  A    between atoms: C_5  and  C_6
REMARK    6  A    between atoms: C_9  and  O_10
REMARK    7  A    between atoms: C_14  and  OXT_16
REMARK                            x       y       z     vdW  Elec       q    Type
REMARK                         _______ _______ _______ _____ _____    ______ ____
ROOT
ATOM      1  O   UNL     1       5.876   4.058  18.617  0.00  0.00    +0.000 OA
ATOM      2  C   UNL     1       5.182   4.275  17.623  0.00  0.00    +0.000 C 
ATOM      3  N   UNL     1       3.819   4.358  17.717  0.00  0.00    +0.000 N 
ATOM      4  H   UNL     1       3.254   4.463  16.878  0.00  0.00    +0.000 HD
ENDROOT
BRANCH   2   5
ATOM      5  CA  UNL     1       5.778   4.512  16.330  0.00  0.00    +0.000 A 
ATOM      6  C   UNL     1       6.835   5.293  15.880  0.00  0.00    +0.000 A 
ATOM      7  C   UNL     1       7.032   5.027  14.488  0.00  0.00    +0.000 A 
ATOM      8  C   UNL     1       7.954   5.458  13.510  0.00  0.00    +0.000 A 
ATOM      9  C   UNL     1       7.879   4.937  12.208  0.00  0.00    +0.000 A 
ATOM     10  C   UNL     1       6.889   4.020  11.866  0.00  0.00    +0.000 A 
ATOM     11  C   UNL     1       5.964   3.598  12.815  0.00  0.00    +0.000 A 
ATOM     12  F   UNL     1       5.012   2.713  12.488  0.00  0.00    +0.000 F 
ATOM     13  C   UNL     1       6.057   4.106  14.112  0.00  0.00    +0.000 A 
ATOM     14  N   UNL     1       5.303   3.840  15.222  0.00  0.00    +0.000 N 
ATOM     15  H   UNL     1       4.530   3.187  15.251  0.00  0.00    +0.000 HD
ENDBRANCH   2   5
BRANCH   3  16
ATOM     16  CA  UNL     1       3.106   4.287  19.004  0.00  0.00    +0.000 C 
BRANCH  16  17
ATOM     17  C   UNL     1       1.610   4.052  18.728  0.00  0.00    +0.000 C 
ATOM     18  O   UNL     1       1.115   4.071  17.608  0.00  0.00    +0.000 OA
BRANCH  17  19
ATOM     19  OXT UNL     1       0.861   3.795  19.829  0.00  0.00    +0.000 OA
ATOM     20  HXT UNL     1       0.852   2.867  20.129  0.00  0.00    +0.000 HD
ENDBRANCH  17  19
ENDBRANCH  16  17
BRANCH  16  21
ATOM     21  C   UNL     1       3.306   5.527  19.913  0.00  0.00    +0.000 C 
BRANCH  21  22
ATOM     22  C   UNL     1       2.619   6.763  19.382  0.00  0.00    +0.000 A 
ATOM     23  C   UNL     1       2.897   7.238  18.095  0.00  0.00    +0.000 A 
ATOM     24  C   UNL     1       2.391   8.468  17.670  0.00  0.00    +0.000 A 
ATOM     25  C   UNL     1       1.600   9.226  18.530  0.00  0.00    +0.000 A 
ATOM     26  C   UNL     1       1.290   8.750  19.807  0.00  0.00    +0.000 A 
ATOM     27  I   UNL     1       0.174   9.868  21.175  0.00  0.00    +0.000 I 
ATOM     28  C   UNL     1       1.777   7.514  20.221  0.00  0.00    +0.000 A 
BRANCH  25  29
ATOM     29  O   UNL     1       1.155  10.454  18.123  0.00  0.00    +0.000 OA
ATOM     30  H   UNL     1       0.357  10.338  17.583  0.00  0.00    +0.000 HD
ENDBRANCH  25  29
ENDBRANCH  21  22
ENDBRANCH  16  21
ENDBRANCH   3  16
TORSDOF 7
ENDMDL
MODEL 5
REMARK VINA RESULT:      -7.8      0.786      1.013
REMARK  Name = 
REMARK  7 active torsions:
REMARK  status: ('A' for Active; 'I' for Inactive)
REMARK    1  A    between atoms: C_2  and  CA_17
REMARK    2  A    between atoms: N_3  and  CA_4
REMARK    3  A    between atoms: CA_4  and  C_5
REMARK    4  A    between atoms: CA_4  and  C_14
REMARK    5  A    between atoms: C_5  and  C_6
REMARK    6  A    between atoms: C_9  and  O_10
REMARK    7  A    between atoms: C_14  and  OXT_16
REMARK                            x       y       z     vdW  Elec       q    Type
REMARK                         _______ _______ _______ _____ _____    ______ ____
ROOT
ATOM      1  O   UNL     1       8.117   6.761  18.908  0.00  0.00    +0.000 OA
ATOM      2  C   UNL     1       7.831   7.628  18.081  0.00  0.00    +0.000 C 
ATOM      3  N   UNL     1       6.949   7.372  17.066  0.00  0.00    +0.000 N 
ATOM      4  H   UNL     1       6.779   8.071  16.347  0.00  0.00    +0.000 HD
ENDROOT
BRANCH   2   5
ATOM      5  CA  UNL     1       8.364   8.966  18.181  0.00  0.00    +0.000 A 
ATOM      6  C   UNL     1       8.428  10.048  17.315  0.00  0.00    +0.000 A 
ATOM      7  C   UNL     1       8.979  11.163  18.026  0.00  0.00    +0.000 A 
ATOM      8  C   UNL     1       9.240  12.514  17.715  0.00  0.00    +0.000 A 
ATOM      9  C   UNL     1       9.760  13.366  18.703  0.00  0.00    +0.000 A 
ATOM     10  C   UNL     1      10.042  12.884  19.978  0.00  0.00    +0.000 A 
ATOM     11  C   UNL     1       9.805  11.551  20.294  0.00  0.00    +0.000 A 
ATOM     12  F   UNL     1      10.074  11.086  21.522  0.00  0.00    +0.000 F 
ATOM     13  C   UNL     1       9.271  10.716  19.312  0.00  0.00    +0.000 A 
ATOM     14  N   UNL     1       8.923   9.393  19.368  0.00  0.00    +0.000 N 
ATOM     15  H   UNL     1       9.006   8.810  20.192  0.00  0.00    +0.000 HD
ENDBRANCH   2   5
BRANCH   3  16
ATOM     16  CA  UNL     1       6.224   6.096  16.947  0.00  0.00    +0.000 C 
BRANCH  16  17
ATOM     17  C   UNL     1       7.033   5.149  16.043  0.00  0.00    +0.000 C 
ATOM     18  O   UNL     1       7.047   3.931  16.174  0.00  0.00    +0.000 OA
BRANCH  17  19
ATOM     19  OXT UNL     1       7.730   5.762  15.054  0.00  0.00    +0.000 OA
ATOM     20  HXT UNL     1       7.959   5.205  14.287  0.00  0.00    +0.000 HD
ENDBRANCH  17  19
ENDBRANCH  16  17
BRANCH  16  21
ATOM     21  C   UNL     1       4.769   6.235  16.429  0.00  0.00    +0.000 C 
BRANCH  21  22
ATOM     22  C   UNL     1       3.763   6.409  17.541  0.00  0.00    +0.000 A 
ATOM     23  C   UNL     1       3.226   7.670  17.828  0.00  0.00    +0.000 A 
ATOM     24  C   UNL     1       2.429   7.859  18.958  0.00  0.00    +0.000 A 
ATOM     25  C   UNL     1       2.162   6.786  19.805  0.00  0.00    +0.000 A 
ATOM     26  C   UNL     1       2.667   5.516  19.515  0.00  0.00    +0.000 A 
ATOM     27  I   UNL     1       2.370   3.880  20.781  0.00  0.00    +0.000 I 
ATOM     28  C   UNL     1       3.443   5.324  18.376  0.00  0.00    +0.000 A 
BRANCH  25  29
ATOM     29  O   UNL     1       1.425   6.994  20.939  0.00  0.00    +0.000 OA
ATOM     30  H   UNL     1       0.484   6.893  20.727  0.00  0.00    +0.000 HD
ENDBRANCH  25  29
ENDBRANCH  21  22
ENDBRANCH  16  21
ENDBRANCH   3  16
TORSDOF 7
ENDMDL
MODEL 6
REMARK VINA RESULT:      -7.7      1.807      2.396
REMARK  Name = 
REMARK  7 active torsions:
REMARK  status: ('A' for Active; 'I' for Inactive)
REMARK    1  A    between atoms: C_2  and  CA_17
REMARK    2  A    between atoms: N_3  and  CA_4
REMARK    3  A    between atoms: CA_4  and  C_5
REMARK    4  A    between atoms: CA_4  and  C_14
REMARK    5  A    between atoms: C_5  and  C_6
REMARK    6  A    between atoms: C_9  and  O_10
REMARK    7  A    between atoms: C_14  and  OXT_16
REMARK                            x       y       z     vdW  Elec       q    Type
REMARK                         _______ _______ _______ _____ _____    ______ ____
ROOT
ATOM      1  O   UNL     1       8.214   6.610  18.804  0.00  0.00    +0.000 OA
ATOM      2  C   UNL     1       7.838   7.596  18.167  0.00  0.00    +0.000 C 
ATOM      3  N   UNL     1       6.855   7.492  17.220  0.00  0.00    +0.000 N 
ATOM      4  H   UNL     1       6.608   8.297  16.650  0.00  0.00    +0.000 HD
ENDROOT
BRANCH   2   5
ATOM      5  CA  UNL     1       8.372   8.910  18.435  0.00  0.00    +0.000 A 
ATOM      6  C   UNL     1       9.369   9.397  19.269  0.00  0.00    +0.000 A 
ATOM      7  C   UNL     1       9.528  10.796  19.013  0.00  0.00    +0.000 A 
ATOM      8  C   UNL     1      10.389  11.806  19.492  0.00  0.00    +0.000 A 
ATOM      9  C   UNL     1      10.293  13.106  18.968  0.00  0.00    +0.000 A 
ATOM     10  C   UNL     1       9.340  13.413  18.000  0.00  0.00    +0.000 A 
ATOM     11  C   UNL     1       8.474  12.431  17.532  0.00  0.00    +0.000 A 
ATOM     12  F   UNL     1       7.558  12.723  16.598  0.00  0.00    +0.000 F 
ATOM     13  C   UNL     1       8.589  11.137  18.044  0.00  0.00    +0.000 A 
ATOM     14  N   UNL     1       7.892  10.000  17.739  0.00  0.00    +0.000 N 
ATOM     15  H   UNL     1       7.155   9.944  17.047  0.00  0.00    +0.000 HD
ENDBRANCH   2   5
BRANCH   3  16
ATOM     16  CA  UNL     1       6.127   6.238  16.965  0.00  0.00    +0.000 C 
BRANCH  16  17
ATOM     17  C   UNL     1       6.319   5.847  15.489  0.00  0.00    +0.000 C 
ATOM     18  O   UNL     1       5.463   6.006  14.627  0.00  0.00    +0.000 OA
BRANCH  17  19
ATOM     19  OXT UNL     1       7.533   5.321  15.191  0.00  0.00    +0.000 OA
ATOM     20  HXT UNL     1       7.568   4.350  15.114  0.00  0.00    +0.000 HD
ENDBRANCH  17  19
ENDBRANCH  16  17
BRANCH  16  21
ATOM     21  C   UNL     1       4.620   6.291  17.325  0.00  0.00    +0.000 C 
BRANCH  21  22
ATOM     22  C   UNL     1       4.070   4.952  17.755  0.00  0.00    +0.000 A 
ATOM     23  C   UNL     1       3.956   3.900  16.838  0.00  0.00    +0.000 A 
ATOM     24  C   UNL     1       3.295   2.722  17.192  0.00  0.00    +0.000 A 
ATOM     25  C   UNL     1       2.749   2.590  18.466  0.00  0.00    +0.000 A 
ATOM     26  C   UNL     1       2.882   3.621  19.401  0.00  0.00    +0.000 A 
ATOM     27  I   UNL     1       2.022   3.521  21.303  0.00  0.00    +0.000 I 
ATOM     28  C   UNL     1       3.560   4.785  19.054  0.00  0.00    +0.000 A 
BRANCH  25  29
ATOM     29  O   UNL     1       2.056   1.454  18.784  0.00  0.00    +0.000 OA
ATOM     30  H   UNL     1       2.513   0.688  18.403  0.00  0.00    +0.000 HD
ENDBRANCH  25  29
ENDBRANCH  21  22
ENDBRANCH  16  21
ENDBRANCH   3  16
TORSDOF 7
ENDMDL
MODEL 7
REMARK VINA RESULT:      -7.7      4.727      7.180
REMARK  Name = 
REMARK  7 active torsions:
REMARK  status: ('A' for Active; 'I' for Inactive)
REMARK    1  A    between atoms: C_2  and  CA_17
REMARK    2  A    between atoms: N_3  and  CA_4
REMARK    3  A    between atoms: CA_4  and  C_5
REMARK    4  A    between atoms: CA_4  and  C_14
REMARK    5  A    between atoms: C_5  and  C_6
REMARK    6  A    between atoms: C_9  and  O_10
REMARK    7  A    between atoms: C_14  and  OXT_16
REMARK                            x       y       z     vdW  Elec       q    Type
REMARK                         _______ _______ _______ _____ _____    ______ ____
ROOT
ATOM      1  O   UNL     1       3.011   6.426  18.144  0.00  0.00    +0.000 OA
ATOM      2  C   UNL     1       2.353   6.182  19.156  0.00  0.00    +0.000 C 
ATOM      3  N   UNL     1       2.266   4.909  19.653  0.00  0.00    +0.000 N 
ATOM      4  H   UNL     1       1.659   4.710  20.444  0.00  0.00    +0.000 HD
ENDROOT
BRANCH   2   5
ATOM      5  CA  UNL     1       1.698   7.234  19.896  0.00  0.00    +0.000 A 
ATOM      6  C   UNL     1       1.147   7.324  21.167  0.00  0.00    +0.000 A 
ATOM      7  C   UNL     1       0.739   8.678  21.388  0.00  0.00    +0.000 A 
ATOM      8  C   UNL     1       0.175   9.387  22.470  0.00  0.00    +0.000 A 
ATOM      9  C   UNL     1      -0.060  10.767  22.349  0.00  0.00    +0.000 A 
ATOM     10  C   UNL     1       0.235  11.436  21.165  0.00  0.00    +0.000 A 
ATOM     11  C   UNL     1       0.775  10.747  20.084  0.00  0.00    +0.000 A 
ATOM     12  F   UNL     1       1.062  11.390  18.943  0.00  0.00    +0.000 F 
ATOM     13  C   UNL     1       1.023   9.380  20.219  0.00  0.00    +0.000 A 
ATOM     14  N   UNL     1       1.566   8.488  19.334  0.00  0.00    +0.000 N 
ATOM     15  H   UNL     1       1.889   8.723  18.404  0.00  0.00    +0.000 HD
ENDBRANCH   2   5
BRANCH   3  16
ATOM     16  CA  UNL     1       3.013   3.779  19.076  0.00  0.00    +0.000 C 
BRANCH  16  17
ATOM     17  C   UNL     1       2.217   2.485  19.319  0.00  0.00    +0.000 C 
ATOM     18  O   UNL     1       1.464   2.319  20.271  0.00  0.00    +0.000 OA
BRANCH  17  19
ATOM     19  OXT UNL     1       2.390   1.524  18.378  0.00  0.00    +0.000 OA
ATOM     20  HXT UNL     1       3.292   1.162  18.301  0.00  0.00    +0.000 HD
ENDBRANCH  17  19
ENDBRANCH  16  17
BRANCH  16  21
ATOM     21  C   UNL     1       4.463   3.638  19.606  0.00  0.00    +0.000 C 
BRANCH  21  22
ATOM     22  C   UNL     1       5.482   4.318  18.722  0.00  0.00    +0.000 A 
ATOM     23  C   UNL     1       6.313   5.322  19.232  0.00  0.00    +0.000 A 
ATOM     24  C   UNL     1       7.132   6.063  18.379  0.00  0.00    +0.000 A 
ATOM     25  C   UNL     1       7.126   5.801  17.011  0.00  0.00    +0.000 A 
ATOM     26  C   UNL     1       6.323   4.781  16.493  0.00  0.00    +0.000 A 
ATOM     27  I   UNL     1       6.207   4.384  14.444  0.00  0.00    +0.000 I 
ATOM     28  C   UNL     1       5.524   4.028  17.347  0.00  0.00    +0.000 A 
BRANCH  25  29
ATOM     29  O   UNL     1       7.891   6.569  16.178  0.00  0.00    +0.000 OA
ATOM     30  H   UNL     1       8.756   6.144  16.061  0.00  0.00    +0.000 HD
ENDBRANCH  25  29
ENDBRANCH  21  22
ENDBRANCH  16  21
ENDBRANCH   3  16
TORSDOF 7
ENDMDL
MODEL 8
REMARK VINA RESULT:      -7.7      2.134      2.528
REMARK  Name = 
REMARK  7 active torsions:
REMARK  status: ('A' for Active; 'I' for Inactive)
REMARK    1  A    between atoms: C_2  and  CA_17
REMARK    2  A    between atoms: N_3  and  CA_4
REMARK    3  A    between atoms: CA_4  and  C_5
REMARK    4  A    between atoms: CA_4  and  C_14
REMARK    5  A    between atoms: C_5  and  C_6
REMARK    6  A    between atoms: C_9  and  O_10
REMARK    7  A    between atoms: C_14  and  OXT_16
REMARK                            x       y       z     vdW  Elec       q    Type
REMARK                         _______ _______ _______ _____ _____    ______ ____
ROOT
ATOM      1  O   UNL     1       8.080   6.475  18.894  0.00  0.00    +0.000 OA
ATOM      2  C   UNL     1       7.814   7.414  18.144  0.00  0.00    +0.000 C 
ATOM      3  N   UNL     1       6.953   7.256  17.091  0.00  0.00    +0.000 N 
ATOM      4  H   UNL     1       6.801   8.018  16.436  0.00  0.00    +0.000 HD
ENDROOT
BRANCH   2   5
ATOM      5  CA  UNL     1       8.347   8.735  18.378  0.00  0.00    +0.000 A 
ATOM      6  C   UNL     1       9.383   9.237  19.155  0.00  0.00    +0.000 A 
ATOM      7  C   UNL     1       9.512  10.636  18.886  0.00  0.00    +0.000 A 
ATOM      8  C   UNL     1      10.387  11.658  19.313  0.00  0.00    +0.000 A 
ATOM      9  C   UNL     1      10.248  12.955  18.790  0.00  0.00    +0.000 A 
ATOM     10  C   UNL     1       9.241  13.246  17.875  0.00  0.00    +0.000 A 
ATOM     11  C   UNL     1       8.362  12.253  17.457  0.00  0.00    +0.000 A 
ATOM     12  F   UNL     1       7.392  12.532  16.573  0.00  0.00    +0.000 F 
ATOM     13  C   UNL     1       8.518  10.963  17.967  0.00  0.00    +0.000 A 
ATOM     14  N   UNL     1       7.818   9.817  17.704  0.00  0.00    +0.000 N 
ATOM     15  H   UNL     1       7.045   9.750  17.054  0.00  0.00    +0.000 HD
ENDBRANCH   2   5
BRANCH   3  16
ATOM     16  CA  UNL     1       6.227   5.999  16.841  0.00  0.00    +0.000 C 
BRANCH  16  17
ATOM     17  C   UNL     1       6.936   5.236  15.708  0.00  0.00    +0.000 C 
ATOM     18  O   UNL     1       7.784   5.735  14.979  0.00  0.00    +0.000 OA
BRANCH  17  19
ATOM     19  OXT UNL     1       6.569   3.937  15.580  0.00  0.00    +0.000 OA
ATOM     20  HXT UNL     1       6.939   3.465  14.811  0.00  0.00    +0.000 HD
ENDBRANCH  17  19
ENDBRANCH  16  17
BRANCH  16  21
ATOM     21  C   UNL     1       4.723   6.186  16.517  0.00  0.00    +0.000 C 
BRANCH  21  22
ATOM     22  C   UNL     1       3.907   6.586  17.724  0.00  0.00    +0.000 A 
ATOM     23  C   UNL     1       3.784   5.725  18.821  0.00  0.00    +0.000 A 
ATOM     24  C   UNL     1       2.898   6.022  19.857  0.00  0.00    +0.000 A 
ATOM     25  C   UNL     1       2.133   7.185  19.804  0.00  0.00    +0.000 A 
ATOM     26  C   UNL     1       2.268   8.068  18.729  0.00  0.00    +0.000 A 
ATOM     27  I   UNL     1       1.098   9.790  18.545  0.00  0.00    +0.000 I 
ATOM     28  C   UNL     1       3.168   7.781  17.707  0.00  0.00    +0.000 A 
BRANCH  25  29
ATOM     29  O   UNL     1       1.228   7.439  20.797  0.00  0.00    +0.000 OA
ATOM     30  H   UNL     1       0.499   7.965  20.434  0.00  0.00    +0.000 HD
ENDBRANCH  25  29
ENDBRANCH  21  22
ENDBRANCH  16  21
ENDBRANCH   3  16
TORSDOF 7
ENDMDL
MODEL 9
REMARK VINA RESULT:      -7.6      5.226      7.019
REMARK  Name = 
REMARK  7 active torsions:
REMARK  status: ('A' for Active; 'I' for Inactive)
REMARK    1  A    between atoms: C_2  and  CA_17
REMARK    2  A    between atoms: N_3  and  CA_4
REMARK    3  A    between atoms: CA_4  and  C_5
REMARK    4  A    between atoms: CA_4  and  C_14
REMARK    5  A    between atoms: C_5  and  C_6
REMARK    6  A    between atoms: C_9  and  O_10
REMARK    7  A    between atoms: C_14  and  OXT_16
REMARK                            x       y       z     vdW  Elec       q    Type
REMARK                         _______ _______ _______ _____ _____    ______ ____
ROOT
ATOM      1  O   UNL     1       3.670   5.431  19.858  0.00  0.00    +0.000 OA
ATOM      2  C   UNL     1       2.968   5.949  18.989  0.00  0.00    +0.000 C 
ATOM      3  N   UNL     1       2.684   5.288  17.824  0.00  0.00    +0.000 N 
ATOM      4  H   UNL     1       2.167   5.757  17.084  0.00  0.00    +0.000 HD
ENDROOT
BRANCH   2   5
ATOM      5  CA  UNL     1       2.366   7.246  19.185  0.00  0.00    +0.000 A 
ATOM      6  C   UNL     1       2.085   8.318  18.350  0.00  0.00    +0.000 A 
ATOM      7  C   UNL     1       1.364   9.300  19.103  0.00  0.00    +0.000 A 
ATOM      8  C   UNL     1       0.775  10.548  18.809  0.00  0.00    +0.000 A 
ATOM      9  C   UNL     1       0.083  11.243  19.815  0.00  0.00    +0.000 A 
ATOM     10  C   UNL     1      -0.006  10.725  21.103  0.00  0.00    +0.000 A 
ATOM     11  C   UNL     1       0.584   9.504  21.411  0.00  0.00    +0.000 A 
ATOM     12  F   UNL     1       0.498   9.002  22.651  0.00  0.00    +0.000 F 
ATOM     13  C   UNL     1       1.254   8.811  20.402  0.00  0.00    +0.000 A 
ATOM     14  N   UNL     1       1.887   7.597  20.431  0.00  0.00    +0.000 N 
ATOM     15  H   UNL     1       1.949   6.999  21.245  0.00  0.00    +0.000 HD
ENDBRANCH   2   5
BRANCH   3  16
ATOM     16  CA  UNL     1       3.112   3.902  17.572  0.00  0.00    +0.000 C 
BRANCH  16  17
ATOM     17  C   UNL     1       2.156   2.948  18.308  0.00  0.00    +0.000 C 
ATOM     18  O   UNL     1       2.514   2.166  19.181  0.00  0.00    +0.000 OA
BRANCH  17  19
ATOM     19  OXT UNL     1       0.855   3.045  17.937  0.00  0.00    +0.000 OA
ATOM     20  HXT UNL     1       0.246   3.399  18.612  0.00  0.00    +0.000 HD
ENDBRANCH  17  19
ENDBRANCH  16  17
BRANCH  16  21
ATOM     21  C   UNL     1       4.584   3.610  17.961  0.00  0.00    +0.000 C 
BRANCH  21  22
ATOM     22  C   UNL     1       5.569   4.033  16.897  0.00  0.00    +0.000 A 
ATOM     23  C   UNL     1       6.560   4.981  17.178  0.00  0.00    +0.000 A 
ATOM     24  C   UNL     1       7.358   5.494  16.154  0.00  0.00    +0.000 A 
ATOM     25  C   UNL     1       7.171   5.058  14.844  0.00  0.00    +0.000 A 
ATOM     26  C   UNL     1       6.205   4.090  14.555  0.00  0.00    +0.000 A 
ATOM     27  I   UNL     1       5.820   3.446  12.604  0.00  0.00    +0.000 I 
ATOM     28  C   UNL     1       5.425   3.564  15.580  0.00  0.00    +0.000 A 
BRANCH  25  29
ATOM     29  O   UNL     1       7.922   5.607  13.841  0.00  0.00    +0.000 OA
ATOM     30  H   UNL     1       7.778   5.101  13.026  0.00  0.00    +0.000 HD
ENDBRANCH  25  29
ENDBRANCH  21  22
ENDBRANCH  16  21
ENDBRANCH   3  16
TORSDOF 7
ENDMDL
