MODEL 1
REMARK VINA RESULT:      -6.4      0.000      0.000
REMARK  Name = 
REMARK  14 active torsions:
REMARK  status: ('A' for Active; 'I' for Inactive)
REMARK    1  A    between atoms: C_1  and  C_2
REMARK    2  A    between atoms: C_2  and  O_4
REMARK    3  A    between atoms: O_4  and  C_5
REMARK    4  A    between atoms: C_6  and  C_7
REMARK    5  A    between atoms: C_8  and  C_9
REMARK    6  A    between atoms: C_10  and  O_11
REMARK    7  A    between atoms: O_11  and  C_12
REMARK    8  A    between atoms: C_12  and  C_13
REMARK    9  A    between atoms: C_17  and  O_18
REMARK   10  A    between atoms: O_18  and  C_19
REMARK   11  A    between atoms: C_19  and  C_20
REMARK   12  A    between atoms: C_23  and  O_24
REMARK   13  A    between atoms: O_24  and  C_25
REMARK   14  A    between atoms: C_25  and  C_26
REMARK                            x       y       z     vdW  Elec       q    Type
REMARK                         _______ _______ _______ _____ _____    ______ ____
ROOT
ATOM      1  C   UNL     1       4.595   5.792  17.727  0.00  0.00    +0.000 A 
ATOM      2  C   UNL     1       3.954   6.995  17.356  0.00  0.00    +0.000 A 
ATOM      3  C   UNL     1       4.328   7.673  16.059  0.00  0.00    +0.000 C 
ATOM      4  C   UNL     1       2.925   7.540  18.200  0.00  0.00    +0.000 A 
ATOM      5  C   UNL     1       2.273   8.853  17.850  0.00  0.00    +0.000 C 
ATOM      6  C   UNL     1       2.560   6.835  19.366  0.00  0.00    +0.000 A 
ATOM      7  C   UNL     1       3.190   5.636  19.682  0.00  0.00    +0.000 A 
ATOM      8  C   UNL     1       4.177   5.115  18.861  0.00  0.00    +0.000 A 
ATOM      9  C   UNL     1       4.585   3.785  19.405  0.00  0.00    +0.000 C 
ATOM     10  O   UNL     1       3.646   3.487  20.451  0.00  0.00    +0.000 OA
ATOM     11  C   UNL     1       3.039   4.733  20.867  0.00  0.00    +0.000 C 
ENDROOT
BRANCH   1  12
ATOM     12  O   UNL     1       5.541   5.201  16.872  0.00  0.00    +0.000 OA
BRANCH  12  14
ATOM     13  C   UNL     1       7.646   4.555  17.715  0.00  0.00    +0.000 C 
ATOM     14  C   UNL     1       6.861   5.628  17.017  0.00  0.00    +0.000 C 
ATOM     15  O   UNL     1       7.308   6.731  16.723  0.00  0.00    +0.000 OA
ENDBRANCH  12  14
ENDBRANCH   1  12
BRANCH   6  16
ATOM     16  O   UNL     1       1.460   7.139  20.232  0.00  0.00    +0.000 OA
BRANCH  16  17
ATOM     17  C   UNL     1       1.130   8.123  21.173  0.00  0.00    +0.000 C 
ATOM     18  C   UNL     1      -0.369   8.166  21.297  0.00  0.00    +0.000 C 
ATOM     19  O   UNL     1       1.897   8.798  21.835  0.00  0.00    +0.000 OA
ENDBRANCH  16  17
ENDBRANCH   6  16
BRANCH   9  20
ATOM     20  O   UNL     1       4.685   2.750  18.419  0.00  0.00    +0.000 OA
BRANCH  20  21
ATOM     21  C   UNL     1       3.582   1.996  18.187  0.00  0.00    +0.000 C 
ATOM     22  C   UNL     1       2.696   2.660  17.173  0.00  0.00    +0.000 C 
ATOM     23  O   UNL     1       3.300   0.930  18.714  0.00  0.00    +0.000 OA
ENDBRANCH  20  21
ENDBRANCH   9  20
BRANCH  11  24
ATOM     24  O   UNL     1       1.684   4.500  21.219  0.00  0.00    +0.000 OA
BRANCH  24  25
ATOM     25  C   UNL     1       1.316   3.197  21.207  0.00  0.00    +0.000 C 
ATOM     26  C   UNL     1       0.561   2.867  19.957  0.00  0.00    +0.000 C 
ATOM     27  O   UNL     1       1.520   2.382  22.097  0.00  0.00    +0.000 OA
ENDBRANCH  24  25
ENDBRANCH  11  24
TORSDOF 8
ENDMDL
MODEL 2
REMARK VINA RESULT:      -6.4      0.887      1.039
REMARK  Name = 
REMARK  14 active torsions:
REMARK  status: ('A' for Active; 'I' for Inactive)
REMARK    1  A    between atoms: C_1  and  C_2
REMARK    2  A    between atoms: C_2  and  O_4
REMARK    3  A    between atoms: O_4  and  C_5
REMARK    4  A    between atoms: C_6  and  C_7
REMARK    5  A    between atoms: C_8  and  C_9
REMARK    6  A    between atoms: C_10  and  O_11
REMARK    7  A    between atoms: O_11  and  C_12
REMARK    8  A    between atoms: C_12  and  C_13
REMARK    9  A    between atoms: C_17  and  O_18
REMARK   10  A    between atoms: O_18  and  C_19
REMARK   11  A    between atoms: C_19  and  C_20
REMARK   12  A    between atoms: C_23  and  O_24
REMARK   13  A    between atoms: O_24  and  C_25
REMARK   14  A    between atoms: C_25  and  C_26
REMARK                            x       y       z     vdW  Elec       q    Type
REMARK                         _______ _______ _______ _____ _____    ______ ____
ROOT
ATOM      1  C   UNL     1       4.833   5.652  17.657  0.00  0.00    +0.000 A 
ATOM      2  C   UNL     1       4.284   6.864  17.182  0.00  0.00    +0.000 A 
ATOM      3  C   UNL     1       4.779   7.451  15.881  0.00  0.00    +0.000 C 
ATOM      4  C   UNL     1       3.233   7.507  17.924  0.00  0.00    +0.000 A 
ATOM      5  C   UNL     1       2.679   8.830  17.464  0.00  0.00    +0.000 C 
ATOM      6  C   UNL     1       2.754   6.887  19.097  0.00  0.00    +0.000 A 
ATOM      7  C   UNL     1       3.296   5.676  19.516  0.00  0.00    +0.000 A 
ATOM      8  C   UNL     1       4.305   5.061  18.793  0.00  0.00    +0.000 A 
ATOM      9  C   UNL     1       4.603   3.744  19.431  0.00  0.00    +0.000 C 
ATOM     10  O   UNL     1       3.582   3.551  20.423  0.00  0.00    +0.000 OA
ATOM     11  C   UNL     1       3.018   4.848  20.733  0.00  0.00    +0.000 C 
ENDROOT
BRANCH   1  12
ATOM     12  O   UNL     1       5.800   4.968  16.901  0.00  0.00    +0.000 OA
BRANCH  12  14
ATOM     13  C   UNL     1       7.354   6.411  17.932  0.00  0.00    +0.000 C 
ATOM     14  C   UNL     1       7.114   5.043  17.360  0.00  0.00    +0.000 C 
ATOM     15  O   UNL     1       7.980   4.184  17.237  0.00  0.00    +0.000 OA
ENDBRANCH  12  14
ENDBRANCH   1  12
BRANCH   6  16
ATOM     16  O   UNL     1       1.618   7.293  19.868  0.00  0.00    +0.000 OA
BRANCH  16  17
ATOM     17  C   UNL     1       1.307   8.295  20.798  0.00  0.00    +0.000 C 
ATOM     18  C   UNL     1       0.459   9.326  20.104  0.00  0.00    +0.000 C 
ATOM     19  O   UNL     1       1.604   8.324  21.978  0.00  0.00    +0.000 OA
ENDBRANCH  16  17
ENDBRANCH   6  16
BRANCH   9  20
ATOM     20  O   UNL     1       4.711   2.653  18.508  0.00  0.00    +0.000 OA
BRANCH  20  21
ATOM     21  C   UNL     1       3.589   1.938  18.246  0.00  0.00    +0.000 C 
ATOM     22  C   UNL     1       2.784   2.602  17.167  0.00  0.00    +0.000 C 
ATOM     23  O   UNL     1       3.234   0.905  18.795  0.00  0.00    +0.000 OA
ENDBRANCH  20  21
ENDBRANCH   9  20
BRANCH  11  24
ATOM     24  O   UNL     1       1.632   4.704  21.002  0.00  0.00    +0.000 OA
BRANCH  24  25
ATOM     25  C   UNL     1       1.120   3.492  20.681  0.00  0.00    +0.000 C 
ATOM     26  C   UNL     1       1.360   2.503  21.779  0.00  0.00    +0.000 C 
ATOM     27  O   UNL     1       0.566   3.198  19.630  0.00  0.00    +0.000 OA
ENDBRANCH  24  25
ENDBRANCH  11  24
TORSDOF 8
ENDMDL
MODEL 3
REMARK VINA RESULT:      -6.4      6.700      9.435
REMARK  Name = 
REMARK  14 active torsions:
REMARK  status: ('A' for Active; 'I' for Inactive)
REMARK    1  A    between atoms: C_1  and  C_2
REMARK    2  A    between atoms: C_2  and  O_4
REMARK    3  A    between atoms: O_4  and  C_5
REMARK    4  A    between atoms: C_6  and  C_7
REMARK    5  A    between atoms: C_8  and  C_9
REMARK    6  A    between atoms: C_10  and  O_11
REMARK    7  A    between atoms: O_11  and  C_12
REMARK    8  A    between atoms: C_12  and  C_13
REMARK    9  A    between atoms: C_17  and  O_18
REMARK   10  A    between atoms: O_18  and  C_19
REMARK   11  A    between atoms: C_19  and  C_20
REMARK   12  A    between atoms: C_23  and  O_24
REMARK   13  A    between atoms: O_24  and  C_25
REMARK   14  A    between atoms: C_25  and  C_26
REMARK                            x       y       z     vdW  Elec       q    Type
REMARK                         _______ _______ _______ _____ _____    ______ ____
ROOT
ATOM      1  C   UNL     1      -1.197  11.922  19.505  0.00  0.00    +0.000 A 
ATOM      2  C   UNL     1      -2.339  11.862  18.676  0.00  0.00    +0.000 A 
ATOM      3  C   UNL     1      -2.179  11.580  17.201  0.00  0.00    +0.000 C 
ATOM      4  C   UNL     1      -3.645  12.032  19.254  0.00  0.00    +0.000 A 
ATOM      5  C   UNL     1      -4.869  12.029  18.375  0.00  0.00    +0.000 C 
ATOM      6  C   UNL     1      -3.751  12.223  20.648  0.00  0.00    +0.000 A 
ATOM      7  C   UNL     1      -2.606  12.244  21.437  0.00  0.00    +0.000 A 
ATOM      8  C   UNL     1      -1.352  12.075  20.873  0.00  0.00    +0.000 A 
ATOM      9  C   UNL     1      -0.343  12.045  21.975  0.00  0.00    +0.000 C 
ATOM     10  O   UNL     1      -1.100  12.001  23.195  0.00  0.00    +0.000 OA
ATOM     11  C   UNL     1      -2.433  12.485  22.905  0.00  0.00    +0.000 C 
ENDROOT
BRANCH   1  12
ATOM     12  O   UNL     1       0.080  11.674  18.972  0.00  0.00    +0.000 OA
BRANCH  12  14
ATOM     13  C   UNL     1       2.262  12.369  18.411  0.00  0.00    +0.000 C 
ATOM     14  C   UNL     1       0.837  12.793  18.625  0.00  0.00    +0.000 C 
ATOM     15  O   UNL     1       0.449  13.955  18.593  0.00  0.00    +0.000 OA
ENDBRANCH  12  14
ENDBRANCH   1  12
BRANCH   6  16
ATOM     16  O   UNL     1      -4.962  12.250  21.411  0.00  0.00    +0.000 OA
BRANCH  16  17
ATOM     17  C   UNL     1      -6.065  13.101  21.566  0.00  0.00    +0.000 C 
ATOM     18  C   UNL     1      -7.272  12.252  21.856  0.00  0.00    +0.000 C 
ATOM     19  O   UNL     1      -6.067  14.318  21.537  0.00  0.00    +0.000 OA
ENDBRANCH  16  17
ENDBRANCH   6  16
BRANCH   9  20
ATOM     20  O   UNL     1       0.619  10.989  21.865  0.00  0.00    +0.000 OA
BRANCH  20  21
ATOM     21  C   UNL     1       0.360   9.832  22.525  0.00  0.00    +0.000 C 
ATOM     22  C   UNL     1      -0.200   8.805  21.584  0.00  0.00    +0.000 C 
ATOM     23  O   UNL     1       0.527   9.616  23.716  0.00  0.00    +0.000 OA
ENDBRANCH  20  21
ENDBRANCH   9  20
BRANCH  11  24
ATOM     24  O   UNL     1      -3.372  11.775  23.699  0.00  0.00    +0.000 OA
BRANCH  24  25
ATOM     25  C   UNL     1      -4.185  12.561  24.443  0.00  0.00    +0.000 C 
ATOM     26  C   UNL     1      -3.601  13.929  24.608  0.00  0.00    +0.000 C 
ATOM     27  O   UNL     1      -5.241  12.221  24.961  0.00  0.00    +0.000 OA
ENDBRANCH  24  25
ENDBRANCH  11  24
TORSDOF 8
ENDMDL
MODEL 4
REMARK VINA RESULT:      -6.3      5.375      8.690
REMARK  Name = 
REMARK  14 active torsions:
REMARK  status: ('A' for Active; 'I' for Inactive)
REMARK    1  A    between atoms: C_1  and  C_2
REMARK    2  A    between atoms: C_2  and  O_4
REMARK    3  A    between atoms: O_4  and  C_5
REMARK    4  A    between atoms: C_6  and  C_7
REMARK    5  A    between atoms: C_8  and  C_9
REMARK    6  A    between atoms: C_10  and  O_11
REMARK    7  A    between atoms: O_11  and  C_12
REMARK    8  A    between atoms: C_12  and  C_13
REMARK    9  A    between atoms: C_17  and  O_18
REMARK   10  A    between atoms: O_18  and  C_19
REMARK   11  A    between atoms: C_19  and  C_20
REMARK   12  A    between atoms: C_23  and  O_24
REMARK   13  A    between atoms: O_24  and  C_25
REMARK   14  A    between atoms: C_25  and  C_26
REMARK                            x       y       z     vdW  Elec       q    Type
REMARK                         _______ _______ _______ _____ _____    ______ ____
ROOT
ATOM      1  C   UNL     1      -0.511  10.591  19.117  0.00  0.00    +0.000 A 
ATOM      2  C   UNL     1      -1.673  10.629  18.314  0.00  0.00    +0.000 A 
ATOM      3  C   UNL     1      -1.798   9.693  17.135  0.00  0.00    +0.000 C 
ATOM      4  C   UNL     1      -2.739  11.534  18.649  0.00  0.00    +0.000 A 
ATOM      5  C   UNL     1      -3.958  11.630  17.769  0.00  0.00    +0.000 C 
ATOM      6  C   UNL     1      -2.608  12.340  19.800  0.00  0.00    +0.000 A 
ATOM      7  C   UNL     1      -1.464  12.252  20.586  0.00  0.00    +0.000 A 
ATOM      8  C   UNL     1      -0.443  11.374  20.258  0.00  0.00    +0.000 A 
ATOM      9  C   UNL     1       0.591  11.434  21.335  0.00  0.00    +0.000 C 
ATOM     10  O   UNL     1       0.016  12.231  22.383  0.00  0.00    +0.000 OA
ATOM     11  C   UNL     1      -1.050  13.020  21.803  0.00  0.00    +0.000 C 
ENDROOT
BRANCH   1  12
ATOM     12  O   UNL     1       0.502   9.654  18.853  0.00  0.00    +0.000 OA
BRANCH  12  14
ATOM     13  C   UNL     1       2.408   8.961  17.650  0.00  0.00    +0.000 C 
ATOM     14  C   UNL     1       1.628  10.130  18.182  0.00  0.00    +0.000 C 
ATOM     15  O   UNL     1       1.998  11.297  18.112  0.00  0.00    +0.000 OA
ENDBRANCH  12  14
ENDBRANCH   1  12
BRANCH   6  16
ATOM     16  O   UNL     1      -3.622  13.173  20.372  0.00  0.00    +0.000 OA
BRANCH  16  17
ATOM     17  C   UNL     1      -4.888  13.007  20.951  0.00  0.00    +0.000 C 
ATOM     18  C   UNL     1      -5.876  13.809  20.148  0.00  0.00    +0.000 C 
ATOM     19  O   UNL     1      -5.180  12.299  21.897  0.00  0.00    +0.000 OA
ENDBRANCH  16  17
ENDBRANCH   6  16
BRANCH   9  20
ATOM     20  O   UNL     1       1.052  10.154  21.782  0.00  0.00    +0.000 OA
BRANCH  20  21
ATOM     21  C   UNL     1       0.290   9.495  22.690  0.00  0.00    +0.000 C 
ATOM     22  C   UNL     1      -0.532   8.434  22.016  0.00  0.00    +0.000 C 
ATOM     23  O   UNL     1       0.235   9.708  23.893  0.00  0.00    +0.000 OA
ENDBRANCH  20  21
ENDBRANCH   9  20
BRANCH  11  24
ATOM     24  O   UNL     1      -2.096  13.164  22.752  0.00  0.00    +0.000 OA
BRANCH  24  25
ATOM     25  C   UNL     1      -2.018  14.283  23.509  0.00  0.00    +0.000 C 
ATOM     26  C   UNL     1      -3.163  14.357  24.471  0.00  0.00    +0.000 C 
ATOM     27  O   UNL     1      -1.166  15.158  23.420  0.00  0.00    +0.000 OA
ENDBRANCH  24  25
ENDBRANCH  11  24
TORSDOF 8
ENDMDL
MODEL 5
REMARK VINA RESULT:      -6.0      7.243      9.878
REMARK  Name = 
REMARK  14 active torsions:
REMARK  status: ('A' for Active; 'I' for Inactive)
REMARK    1  A    between atoms: C_1  and  C_2
REMARK    2  A    between atoms: C_2  and  O_4
REMARK    3  A    between atoms: O_4  and  C_5
REMARK    4  A    between atoms: C_6  and  C_7
REMARK    5  A    between atoms: C_8  and  C_9
REMARK    6  A    between atoms: C_10  and  O_11
REMARK    7  A    between atoms: O_11  and  C_12
REMARK    8  A    between atoms: C_12  and  C_13
REMARK    9  A    between atoms: C_17  and  O_18
REMARK   10  A    between atoms: O_18  and  C_19
REMARK   11  A    between atoms: C_19  and  C_20
REMARK   12  A    between atoms: C_23  and  O_24
REMARK   13  A    between atoms: O_24  and  C_25
REMARK   14  A    between atoms: C_25  and  C_26
REMARK                            x       y       z     vdW  Elec       q    Type
REMARK                         _______ _______ _______ _____ _____    ______ ____
ROOT
ATOM      1  C   UNL     1      -1.746  12.004  18.958  0.00  0.00    +0.000 A 
ATOM      2  C   UNL     1      -2.710  11.648  17.988  0.00  0.00    +0.000 A 
ATOM      3  C   UNL     1      -2.260  11.131  16.642  0.00  0.00    +0.000 C 
ATOM      4  C   UNL     1      -4.109  11.746  18.307  0.00  0.00    +0.000 A 
ATOM      5  C   UNL     1      -5.149  11.428  17.265  0.00  0.00    +0.000 C 
ATOM      6  C   UNL     1      -4.481  12.168  19.601  0.00  0.00    +0.000 A 
ATOM      7  C   UNL     1      -3.504  12.478  20.541  0.00  0.00    +0.000 A 
ATOM      8  C   UNL     1      -2.159  12.376  20.227  0.00  0.00    +0.000 A 
ATOM      9  C   UNL     1      -1.366  12.675  21.458  0.00  0.00    +0.000 C 
ATOM     10  O   UNL     1      -2.322  12.751  22.528  0.00  0.00    +0.000 OA
ATOM     11  C   UNL     1      -3.622  12.997  21.941  0.00  0.00    +0.000 C 
ENDROOT
BRANCH   1  12
ATOM     12  O   UNL     1      -0.377  11.834  18.692  0.00  0.00    +0.000 OA
BRANCH  12  14
ATOM     13  C   UNL     1       1.826  12.673  18.703  0.00  0.00    +0.000 C 
ATOM     14  C   UNL     1       0.371  12.997  18.516  0.00  0.00    +0.000 C 
ATOM     15  O   UNL     1      -0.067  14.128  18.339  0.00  0.00    +0.000 OA
ENDBRANCH  12  14
ENDBRANCH   1  12
BRANCH   6  16
ATOM     16  O   UNL     1      -5.807  12.171  20.143  0.00  0.00    +0.000 OA
BRANCH  16  17
ATOM     17  C   UNL     1      -6.821  11.237  20.395  0.00  0.00    +0.000 C 
ATOM     18  C   UNL     1      -7.760  11.831  21.409  0.00  0.00    +0.000 C 
ATOM     19  O   UNL     1      -6.976  10.155  19.860  0.00  0.00    +0.000 OA
ENDBRANCH  16  17
ENDBRANCH   6  16
BRANCH   9  20
ATOM     20  O   UNL     1      -0.301  11.751  21.712  0.00  0.00    +0.000 OA
BRANCH  20  21
ATOM     21  C   UNL     1      -0.628  10.549  22.248  0.00  0.00    +0.000 C 
ATOM     22  C   UNL     1      -0.239   9.436  21.319  0.00  0.00    +0.000 C 
ATOM     23  O   UNL     1      -1.174  10.352  23.324  0.00  0.00    +0.000 OA
ENDBRANCH  20  21
ENDBRANCH   9  20
BRANCH  11  24
ATOM     24  O   UNL     1      -4.614  12.323  22.701  0.00  0.00    +0.000 OA
BRANCH  24  25
ATOM     25  C   UNL     1      -4.742  12.765  23.974  0.00  0.00    +0.000 C 
ATOM     26  C   UNL     1      -5.065  14.227  24.002  0.00  0.00    +0.000 C 
ATOM     27  O   UNL     1      -4.584  12.099  24.989  0.00  0.00    +0.000 OA
ENDBRANCH  24  25
ENDBRANCH  11  24
TORSDOF 8
ENDMDL
MODEL 6
REMARK VINA RESULT:      -6.0      2.006      4.754
REMARK  Name = 
REMARK  14 active torsions:
REMARK  status: ('A' for Active; 'I' for Inactive)
REMARK    1  A    between atoms: C_1  and  C_2
REMARK    2  A    between atoms: C_2  and  O_4
REMARK    3  A    between atoms: O_4  and  C_5
REMARK    4  A    between atoms: C_6  and  C_7
REMARK    5  A    between atoms: C_8  and  C_9
REMARK    6  A    between atoms: C_10  and  O_11
REMARK    7  A    between atoms: O_11  and  C_12
REMARK    8  A    between atoms: C_12  and  C_13
REMARK    9  A    between atoms: C_17  and  O_18
REMARK   10  A    between atoms: O_18  and  C_19
REMARK   11  A    between atoms: C_19  and  C_20
REMARK   12  A    between atoms: C_23  and  O_24
REMARK   13  A    between atoms: O_24  and  C_25
REMARK   14  A    between atoms: C_25  and  C_26
REMARK                            x       y       z     vdW  Elec       q    Type
REMARK                         _______ _______ _______ _____ _____    ______ ____
ROOT
ATOM      1  C   UNL     1       5.300   4.160  16.281  0.00  0.00    +0.000 A 
ATOM      2  C   UNL     1       4.581   3.032  16.737  0.00  0.00    +0.000 A 
ATOM      3  C   UNL     1       5.075   1.645  16.399  0.00  0.00    +0.000 C 
ATOM      4  C   UNL     1       3.409   3.217  17.548  0.00  0.00    +0.000 A 
ATOM      5  C   UNL     1       2.597   2.027  17.992  0.00  0.00    +0.000 C 
ATOM      6  C   UNL     1       3.025   4.529  17.897  0.00  0.00    +0.000 A 
ATOM      7  C   UNL     1       3.776   5.614  17.458  0.00  0.00    +0.000 A 
ATOM      8  C   UNL     1       4.907   5.427  16.680  0.00  0.00    +0.000 A 
ATOM      9  C   UNL     1       5.547   6.758  16.456  0.00  0.00    +0.000 C 
ATOM     10  O   UNL     1       4.844   7.677  17.307  0.00  0.00    +0.000 OA
ATOM     11  C   UNL     1       3.563   7.086  17.630  0.00  0.00    +0.000 C 
ENDROOT
BRANCH   1  12
ATOM     12  O   UNL     1       6.494   3.995  15.560  0.00  0.00    +0.000 OA
BRANCH  12  14
ATOM     13  C   UNL     1       5.473   3.741  13.450  0.00  0.00    +0.000 C 
ATOM     14  C   UNL     1       6.503   4.483  14.254  0.00  0.00    +0.000 C 
ATOM     15  O   UNL     1       7.280   5.308  13.788  0.00  0.00    +0.000 OA
ENDBRANCH  12  14
ENDBRANCH   1  12
BRANCH   6  16
ATOM     16  O   UNL     1       1.992   4.894  18.819  0.00  0.00    +0.000 OA
BRANCH  16  17
ATOM     17  C   UNL     1       1.697   4.687  20.173  0.00  0.00    +0.000 C 
ATOM     18  C   UNL     1       0.669   3.592  20.264  0.00  0.00    +0.000 C 
ATOM     19  O   UNL     1       2.209   5.235  21.132  0.00  0.00    +0.000 OA
ENDBRANCH  16  17
ENDBRANCH   6  16
BRANCH   9  20
ATOM     20  O   UNL     1       6.966   6.771  16.655  0.00  0.00    +0.000 OA
BRANCH  20  21
ATOM     21  C   UNL     1       7.421   6.968  17.917  0.00  0.00    +0.000 C 
ATOM     22  C   UNL     1       8.104   8.300  18.027  0.00  0.00    +0.000 C 
ATOM     23  O   UNL     1       7.325   6.195  18.859  0.00  0.00    +0.000 OA
ENDBRANCH  20  21
ENDBRANCH   9  20
BRANCH  11  24
ATOM     24  O   UNL     1       3.203   7.444  18.956  0.00  0.00    +0.000 OA
BRANCH  24  25
ATOM     25  C   UNL     1       2.095   8.216  19.049  0.00  0.00    +0.000 C 
ATOM     26  C   UNL     1       1.769   8.843  17.729  0.00  0.00    +0.000 C 
ATOM     27  O   UNL     1       1.445   8.428  20.065  0.00  0.00    +0.000 OA
ENDBRANCH  24  25
ENDBRANCH  11  24
TORSDOF 8
ENDMDL
MODEL 7
REMARK VINA RESULT:      -6.0      4.907      9.800
REMARK  Name = 
REMARK  14 active torsions:
REMARK  status: ('A' for Active; 'I' for Inactive)
REMARK    1  A    between atoms: C_1  and  C_2
REMARK    2  A    between atoms: C_2  and  O_4
REMARK    3  A    between atoms: O_4  and  C_5
REMARK    4  A    between atoms: C_6  and  C_7
REMARK    5  A    between atoms: C_8  and  C_9
REMARK    6  A    between atoms: C_10  and  O_11
REMARK    7  A    between atoms: O_11  and  C_12
REMARK    8  A    between atoms: C_12  and  C_13
REMARK    9  A    between atoms: C_17  and  O_18
REMARK   10  A    between atoms: O_18  and  C_19
REMARK   11  A    between atoms: C_19  and  C_20
REMARK   12  A    between atoms: C_23  and  O_24
REMARK   13  A    between atoms: O_24  and  C_25
REMARK   14  A    between atoms: C_25  and  C_26
REMARK                            x       y       z     vdW  Elec       q    Type
REMARK                         _______ _______ _______ _____ _____    ______ ____
ROOT
ATOM      1  C   UNL     1      -1.147  11.154  21.956  0.00  0.00    +0.000 A 
ATOM      2  C   UNL     1      -0.262  10.089  22.239  0.00  0.00    +0.000 A 
ATOM      3  C   UNL     1      -0.101   9.608  23.661  0.00  0.00    +0.000 C 
ATOM      4  C   UNL     1       0.447   9.450  21.162  0.00  0.00    +0.000 A 
ATOM      5  C   UNL     1       1.438   8.354  21.452  0.00  0.00    +0.000 C 
ATOM      6  C   UNL     1       0.211   9.887  19.842  0.00  0.00    +0.000 A 
ATOM      7  C   UNL     1      -0.692  10.917  19.599  0.00  0.00    +0.000 A 
ATOM      8  C   UNL     1      -1.374  11.524  20.641  0.00  0.00    +0.000 A 
ATOM      9  C   UNL     1      -2.334  12.510  20.060  0.00  0.00    +0.000 C 
ATOM     10  O   UNL     1      -2.310  12.290  18.641  0.00  0.00    +0.000 OA
ATOM     11  C   UNL     1      -1.077  11.601  18.324  0.00  0.00    +0.000 C 
ENDROOT
BRANCH   1  12
ATOM     12  O   UNL     1      -1.910  11.732  22.984  0.00  0.00    +0.000 OA
BRANCH  12  14
ATOM     13  C   UNL     1      -2.776  13.782  23.765  0.00  0.00    +0.000 C 
ATOM     14  C   UNL     1      -1.541  13.015  23.386  0.00  0.00    +0.000 C 
ATOM     15  O   UNL     1      -0.414  13.496  23.349  0.00  0.00    +0.000 OA
ENDBRANCH  12  14
ENDBRANCH   1  12
BRANCH   6  16
ATOM     16  O   UNL     1       0.699   9.271  18.645  0.00  0.00    +0.000 OA
BRANCH  16  17
ATOM     17  C   UNL     1       1.888   9.255  17.903  0.00  0.00    +0.000 C 
ATOM     18  C   UNL     1       2.398   7.840  17.871  0.00  0.00    +0.000 C 
ATOM     19  O   UNL     1       2.409  10.191  17.325  0.00  0.00    +0.000 OA
ENDBRANCH  16  17
ENDBRANCH   6  16
BRANCH   9  20
ATOM     20  O   UNL     1      -3.651  12.452  20.622  0.00  0.00    +0.000 OA
BRANCH  20  21
ATOM     21  C   UNL     1      -4.501  13.469  20.336  0.00  0.00    +0.000 C 
ATOM     22  C   UNL     1      -5.634  12.982  19.480  0.00  0.00    +0.000 C 
ATOM     23  O   UNL     1      -4.393  14.635  20.689  0.00  0.00    +0.000 OA
ENDBRANCH  20  21
ENDBRANCH   9  20
BRANCH  11  24
ATOM     24  O   UNL     1      -1.309  10.695  17.255  0.00  0.00    +0.000 OA
BRANCH  24  25
ATOM     25  C   UNL     1      -2.592  10.648  16.826  0.00  0.00    +0.000 C 
ATOM     26  C   UNL     1      -3.371   9.619  17.585  0.00  0.00    +0.000 C 
ATOM     27  O   UNL     1      -3.074  11.312  15.917  0.00  0.00    +0.000 OA
ENDBRANCH  24  25
ENDBRANCH  11  24
TORSDOF 8
ENDMDL
MODEL 8
REMARK VINA RESULT:      -5.9      1.784      5.307
REMARK  Name = 
REMARK  14 active torsions:
REMARK  status: ('A' for Active; 'I' for Inactive)
REMARK    1  A    between atoms: C_1  and  C_2
REMARK    2  A    between atoms: C_2  and  O_4
REMARK    3  A    between atoms: O_4  and  C_5
REMARK    4  A    between atoms: C_6  and  C_7
REMARK    5  A    between atoms: C_8  and  C_9
REMARK    6  A    between atoms: C_10  and  O_11
REMARK    7  A    between atoms: O_11  and  C_12
REMARK    8  A    between atoms: C_12  and  C_13
REMARK    9  A    between atoms: C_17  and  O_18
REMARK   10  A    between atoms: O_18  and  C_19
REMARK   11  A    between atoms: C_19  and  C_20
REMARK   12  A    between atoms: C_23  and  O_24
REMARK   13  A    between atoms: O_24  and  C_25
REMARK   14  A    between atoms: C_25  and  C_26
REMARK                            x       y       z     vdW  Elec       q    Type
REMARK                         _______ _______ _______ _____ _____    ______ ____
ROOT
ATOM      1  C   UNL     1       2.996   7.508  18.286  0.00  0.00    +0.000 A 
ATOM      2  C   UNL     1       3.848   6.823  17.392  0.00  0.00    +0.000 A 
ATOM      3  C   UNL     1       4.674   7.605  16.398  0.00  0.00    +0.000 C 
ATOM      4  C   UNL     1       3.947   5.390  17.462  0.00  0.00    +0.000 A 
ATOM      5  C   UNL     1       4.804   4.639  16.477  0.00  0.00    +0.000 C 
ATOM      6  C   UNL     1       3.210   4.707  18.453  0.00  0.00    +0.000 A 
ATOM      7  C   UNL     1       2.406   5.418  19.338  0.00  0.00    +0.000 A 
ATOM      8  C   UNL     1       2.320   6.799  19.266  0.00  0.00    +0.000 A 
ATOM      9  C   UNL     1       1.471   7.275  20.400  0.00  0.00    +0.000 C 
ATOM     10  O   UNL     1       1.249   6.124  21.230  0.00  0.00    +0.000 OA
ATOM     11  C   UNL     1       1.491   4.946  20.425  0.00  0.00    +0.000 C 
ENDROOT
BRANCH   1  12
ATOM     12  O   UNL     1       2.951   8.913  18.287  0.00  0.00    +0.000 OA
BRANCH  12  14
ATOM     13  C   UNL     1       1.746  10.939  18.286  0.00  0.00    +0.000 C 
ATOM     14  C   UNL     1       1.758   9.497  17.866  0.00  0.00    +0.000 C 
ATOM     15  O   UNL     1       0.815   8.926  17.330  0.00  0.00    +0.000 OA
ENDBRANCH  12  14
ENDBRANCH   1  12
BRANCH   6  16
ATOM     16  O   UNL     1       3.306   3.315  18.773  0.00  0.00    +0.000 OA
BRANCH  16  17
ATOM     17  C   UNL     1       4.276   2.437  19.278  0.00  0.00    +0.000 C 
ATOM     18  C   UNL     1       4.007   1.070  18.711  0.00  0.00    +0.000 C 
ATOM     19  O   UNL     1       5.216   2.714  20.000  0.00  0.00    +0.000 OA
ENDBRANCH  16  17
ENDBRANCH   6  16
BRANCH   9  20
ATOM     20  O   UNL     1       2.012   8.394  21.112  0.00  0.00    +0.000 OA
BRANCH  20  21
ATOM     21  C   UNL     1       1.142   9.336  21.554  0.00  0.00    +0.000 C 
ATOM     22  C   UNL     1      -0.247   8.772  21.636  0.00  0.00    +0.000 C 
ATOM     23  O   UNL     1       1.402  10.495  21.843  0.00  0.00    +0.000 OA
ENDBRANCH  20  21
ENDBRANCH   9  20
BRANCH  11  24
ATOM     24  O   UNL     1       2.068   3.934  21.237  0.00  0.00    +0.000 OA
BRANCH  24  25
ATOM     25  C   UNL     1       1.303   2.827  21.384  0.00  0.00    +0.000 C 
ATOM     26  C   UNL     1       0.514   2.555  20.140  0.00  0.00    +0.000 C 
ATOM     27  O   UNL     1       1.212   2.141  22.393  0.00  0.00    +0.000 OA
ENDBRANCH  24  25
ENDBRANCH  11  24
TORSDOF 8
ENDMDL
MODEL 9
REMARK VINA RESULT:      -5.9      6.936     10.435
REMARK  Name = 
REMARK  14 active torsions:
REMARK  status: ('A' for Active; 'I' for Inactive)
REMARK    1  A    between atoms: C_1  and  C_2
REMARK    2  A    between atoms: C_2  and  O_4
REMARK    3  A    between atoms: O_4  and  C_5
REMARK    4  A    between atoms: C_6  and  C_7
REMARK    5  A    between atoms: C_8  and  C_9
REMARK    6  A    between atoms: C_10  and  O_11
REMARK    7  A    between atoms: O_11  and  C_12
REMARK    8  A    between atoms: C_12  and  C_13
REMARK    9  A    between atoms: C_17  and  O_18
REMARK   10  A    between atoms: O_18  and  C_19
REMARK   11  A    between atoms: C_19  and  C_20
REMARK   12  A    between atoms: C_23  and  O_24
REMARK   13  A    between atoms: O_24  and  C_25
REMARK   14  A    between atoms: C_25  and  C_26
REMARK                            x       y       z     vdW  Elec       q    Type
REMARK                         _______ _______ _______ _____ _____    ______ ____
ROOT
ATOM      1  C   UNL     1      -3.714  12.080  18.708  0.00  0.00    +0.000 A 
ATOM      2  C   UNL     1      -5.116  12.148  18.549  0.00  0.00    +0.000 A 
ATOM      3  C   UNL     1      -5.724  11.931  17.184  0.00  0.00    +0.000 C 
ATOM      4  C   UNL     1      -5.950  12.387  19.695  0.00  0.00    +0.000 A 
ATOM      5  C   UNL     1      -7.442  12.521  19.533  0.00  0.00    +0.000 C 
ATOM      6  C   UNL     1      -5.342  12.513  20.962  0.00  0.00    +0.000 A 
ATOM      7  C   UNL     1      -3.960  12.408  21.086  0.00  0.00    +0.000 A 
ATOM      8  C   UNL     1      -3.164  12.173  19.977  0.00  0.00    +0.000 A 
ATOM      9  C   UNL     1      -1.753  12.011  20.439  0.00  0.00    +0.000 C 
ATOM     10  O   UNL     1      -1.816  11.961  21.873  0.00  0.00    +0.000 OA
ATOM     11  C   UNL     1      -3.070  12.558  22.280  0.00  0.00    +0.000 C 
ENDROOT
BRANCH   1  12
ATOM     12  O   UNL     1      -2.891  11.764  17.614  0.00  0.00    +0.000 OA
BRANCH  12  14
ATOM     13  C   UNL     1      -2.691  10.423  15.685  0.00  0.00    +0.000 C 
ATOM     14  C   UNL     1      -2.930  10.443  17.168  0.00  0.00    +0.000 C 
ATOM     15  O   UNL     1      -3.211   9.455  17.837  0.00  0.00    +0.000 OA
ENDBRANCH  12  14
ENDBRANCH   1  12
BRANCH   6  16
ATOM     16  O   UNL     1      -6.016  12.592  22.223  0.00  0.00    +0.000 OA
BRANCH  16  17
ATOM     17  C   UNL     1      -7.236  12.168  22.768  0.00  0.00    +0.000 C 
ATOM     18  C   UNL     1      -7.888  13.352  23.428  0.00  0.00    +0.000 C 
ATOM     19  O   UNL     1      -7.735  11.061  22.687  0.00  0.00    +0.000 OA
ENDBRANCH  16  17
ENDBRANCH   6  16
BRANCH   9  20
ATOM     20  O   UNL     1      -1.068  10.892  19.861  0.00  0.00    +0.000 OA
BRANCH  20  21
ATOM     21  C   UNL     1       0.198  11.092  19.420  0.00  0.00    +0.000 C 
ATOM     22  C   UNL     1       0.582  10.033  18.428  0.00  0.00    +0.000 C 
ATOM     23  O   UNL     1       0.961  11.983  19.764  0.00  0.00    +0.000 OA
ENDBRANCH  20  21
ENDBRANCH   9  20
BRANCH  11  24
ATOM     24  O   UNL     1      -3.561  11.882  23.428  0.00  0.00    +0.000 OA
BRANCH  24  25
ATOM     25  C   UNL     1      -3.868  12.691  24.469  0.00  0.00    +0.000 C 
ATOM     26  C   UNL     1      -3.237  14.039  24.302  0.00  0.00    +0.000 C 
ATOM     27  O   UNL     1      -4.534  12.385  25.449  0.00  0.00    +0.000 OA
ENDBRANCH  24  25
ENDBRANCH  11  24
TORSDOF 8
ENDMDL
