MODEL 1
REMARK VINA RESULT:      -7.4      0.000      0.000
REMARK  Name = 
REMARK  3 active torsions:
REMARK  status: ('A' for Active; 'I' for Inactive)
REMARK    1  A    between atoms: C_2  and  C_16
REMARK    2  A    between atoms: N_3  and  C_4
REMARK    3  A    between atoms: C_7  and  C_8
REMARK                            x       y       z     vdW  Elec       q    Type
REMARK                         _______ _______ _______ _____ _____    ______ ____
ROOT
ATOM      1  C   UNL     1       3.207   6.938  18.080  0.00  0.00    +0.000 A 
ATOM      2  C   UNL     1       2.647   8.162  17.721  0.00  0.00    +0.000 A 
ATOM      3  C   UNL     1       1.852   8.881  18.615  0.00  0.00    +0.000 A 
ATOM      4  C   UNL     1       1.560   8.397  19.898  0.00  0.00    +0.000 A 
ATOM      5  C   UNL     1       2.107   7.148  20.242  0.00  0.00    +0.000 A 
ATOM      6  C   UNL     1       2.913   6.423  19.344  0.00  0.00    +0.000 A 
ENDROOT
BRANCH   4   7
ATOM      7  C   UNL     1       0.711   9.184  20.823  0.00  0.00    +0.000 A 
ATOM      8  C   UNL     1       0.008  10.321  20.376  0.00  0.00    +0.000 A 
ATOM      9  C   UNL     1      -0.765  11.098  21.243  0.00  0.00    +0.000 A 
ATOM     10  C   UNL     1      -0.870  10.744  22.583  0.00  0.00    +0.000 A 
ATOM     11  C   UNL     1      -0.199   9.619  23.052  0.00  0.00    +0.000 A 
ATOM     12  C   UNL     1       0.586   8.853  22.183  0.00  0.00    +0.000 A 
ENDBRANCH   4   7
BRANCH   1  15
ATOM     13  O   UNL     1       6.059   7.322  17.564  0.00  0.00    +0.000 OA
ATOM     14  C   UNL     1       5.392   6.463  16.997  0.00  0.00    +0.000 C 
ATOM     15  N   UNL     1       4.046   6.205  17.216  0.00  0.00    +0.000 N 
ATOM     16  H   UNL     1       3.671   5.368  16.781  0.00  0.00    +0.000 HD
BRANCH  14  17
ATOM     17  C   UNL     1       6.034   5.589  16.032  0.00  0.00    +0.000 A 
ATOM     18  C   UNL     1       5.468   4.445  15.452  0.00  0.00    +0.000 A 
ATOM     19  N   UNL     1       6.335   3.868  14.626  0.00  0.00    +0.000 NA
ATOM     20  O   UNL     1       7.473   4.671  14.697  0.00  0.00    +0.000 OA
ATOM     21  N   UNL     1       7.279   5.752  15.564  0.00  0.00    +0.000 NA
ENDBRANCH  14  17
ENDBRANCH   1  15
TORSDOF 3
ENDMDL
MODEL 2
REMARK VINA RESULT:      -7.4      0.068      1.076
REMARK  Name = 
REMARK  3 active torsions:
REMARK  status: ('A' for Active; 'I' for Inactive)
REMARK    1  A    between atoms: C_2  and  C_16
REMARK    2  A    between atoms: N_3  and  C_4
REMARK    3  A    between atoms: C_7  and  C_8
REMARK                            x       y       z     vdW  Elec       q    Type
REMARK                         _______ _______ _______ _____ _____    ______ ____
ROOT
ATOM      1  C   UNL     1       3.174   6.960  18.097  0.00  0.00    +0.000 A 
ATOM      2  C   UNL     1       2.619   8.184  17.729  0.00  0.00    +0.000 A 
ATOM      3  C   UNL     1       1.838   8.919  18.622  0.00  0.00    +0.000 A 
ATOM      4  C   UNL     1       1.554   8.452  19.913  0.00  0.00    +0.000 A 
ATOM      5  C   UNL     1       2.095   7.202  20.267  0.00  0.00    +0.000 A 
ATOM      6  C   UNL     1       2.887   6.461  19.371  0.00  0.00    +0.000 A 
ENDROOT
BRANCH   4   7
ATOM      7  C   UNL     1       0.718   9.256  20.836  0.00  0.00    +0.000 A 
ATOM      8  C   UNL     1       0.612   8.920  22.201  0.00  0.00    +0.000 A 
ATOM      9  C   UNL     1      -0.203   9.643  23.076  0.00  0.00    +0.000 A 
ATOM     10  C   UNL     1      -0.921  10.737  22.610  0.00  0.00    +0.000 A 
ATOM     11  C   UNL     1      -0.826  11.102  21.271  0.00  0.00    +0.000 A 
ATOM     12  C   UNL     1      -0.021  10.367  20.394  0.00  0.00    +0.000 A 
ENDBRANCH   4   7
BRANCH   1  15
ATOM     13  O   UNL     1       6.016   7.336  17.528  0.00  0.00    +0.000 OA
ATOM     14  C   UNL     1       5.341   6.466  16.989  0.00  0.00    +0.000 C 
ATOM     15  N   UNL     1       3.999   6.211  17.235  0.00  0.00    +0.000 N 
ATOM     16  H   UNL     1       3.618   5.365  16.823  0.00  0.00    +0.000 HD
BRANCH  14  17
ATOM     17  C   UNL     1       5.969   5.573  16.031  0.00  0.00    +0.000 A 
ATOM     18  C   UNL     1       5.367   4.463  15.422  0.00  0.00    +0.000 A 
ATOM     19  N   UNL     1       6.229   3.856  14.612  0.00  0.00    +0.000 NA
ATOM     20  O   UNL     1       7.401   4.604  14.725  0.00  0.00    +0.000 OA
ATOM     21  N   UNL     1       7.233   5.684  15.598  0.00  0.00    +0.000 NA
ENDBRANCH  14  17
ENDBRANCH   1  15
TORSDOF 3
ENDMDL
MODEL 3
REMARK VINA RESULT:      -7.3      0.134      1.078
REMARK  Name = 
REMARK  3 active torsions:
REMARK  status: ('A' for Active; 'I' for Inactive)
REMARK    1  A    between atoms: C_2  and  C_16
REMARK    2  A    between atoms: N_3  and  C_4
REMARK    3  A    between atoms: C_7  and  C_8
REMARK                            x       y       z     vdW  Elec       q    Type
REMARK                         _______ _______ _______ _____ _____    ______ ____
ROOT
ATOM      1  C   UNL     1       3.188   6.915  18.120  0.00  0.00    +0.000 A 
ATOM      2  C   UNL     1       2.902   6.477  19.412  0.00  0.00    +0.000 A 
ATOM      3  C   UNL     1       2.087   7.225  20.262  0.00  0.00    +0.000 A 
ATOM      4  C   UNL     1       1.544   8.457  19.871  0.00  0.00    +0.000 A 
ATOM      5  C   UNL     1       1.860   8.905  18.576  0.00  0.00    +0.000 A 
ATOM      6  C   UNL     1       2.677   8.150  17.714  0.00  0.00    +0.000 A 
ENDROOT
BRANCH   4   7
ATOM      7  C   UNL     1       0.684   9.228  20.800  0.00  0.00    +0.000 A 
ATOM      8  C   UNL     1      -0.014  10.372  20.365  0.00  0.00    +0.000 A 
ATOM      9  C   UNL     1      -0.797  11.134  21.237  0.00  0.00    +0.000 A 
ATOM     10  C   UNL     1      -0.915  10.758  22.569  0.00  0.00    +0.000 A 
ATOM     11  C   UNL     1      -0.248   9.626  23.027  0.00  0.00    +0.000 A 
ATOM     12  C   UNL     1       0.546   8.874  22.154  0.00  0.00    +0.000 A 
ENDBRANCH   4   7
BRANCH   1  15
ATOM     13  O   UNL     1       6.016   7.258  17.463  0.00  0.00    +0.000 OA
ATOM     14  C   UNL     1       5.311   6.405  16.935  0.00  0.00    +0.000 C 
ATOM     15  N   UNL     1       3.974   6.166  17.221  0.00  0.00    +0.000 N 
ATOM     16  H   UNL     1       3.567   5.331  16.811  0.00  0.00    +0.000 HD
BRANCH  14  17
ATOM     17  C   UNL     1       5.894   5.515  15.946  0.00  0.00    +0.000 A 
ATOM     18  C   UNL     1       5.282   4.380  15.396  0.00  0.00    +0.000 A 
ATOM     19  N   UNL     1       6.101   3.785  14.534  0.00  0.00    +0.000 NA
ATOM     20  O   UNL     1       7.255   4.568  14.551  0.00  0.00    +0.000 OA
ATOM     21  N   UNL     1       7.119   5.655  15.421  0.00  0.00    +0.000 NA
ENDBRANCH  14  17
ENDBRANCH   1  15
TORSDOF 3
ENDMDL
MODEL 4
REMARK VINA RESULT:      -7.3      0.169      1.525
REMARK  Name = 
REMARK  3 active torsions:
REMARK  status: ('A' for Active; 'I' for Inactive)
REMARK    1  A    between atoms: C_2  and  C_16
REMARK    2  A    between atoms: N_3  and  C_4
REMARK    3  A    between atoms: C_7  and  C_8
REMARK                            x       y       z     vdW  Elec       q    Type
REMARK                         _______ _______ _______ _____ _____    ______ ____
ROOT
ATOM      1  C   UNL     1       3.228   6.915  18.085  0.00  0.00    +0.000 A 
ATOM      2  C   UNL     1       2.956   6.468  19.377  0.00  0.00    +0.000 A 
ATOM      3  C   UNL     1       2.152   7.211  20.243  0.00  0.00    +0.000 A 
ATOM      4  C   UNL     1       1.608   8.447  19.868  0.00  0.00    +0.000 A 
ATOM      5  C   UNL     1       1.910   8.904  18.572  0.00  0.00    +0.000 A 
ATOM      6  C   UNL     1       2.716   8.155  17.695  0.00  0.00    +0.000 A 
ENDROOT
BRANCH   4   7
ATOM      7  C   UNL     1       0.761   9.213  20.813  0.00  0.00    +0.000 A 
ATOM      8  C   UNL     1       0.689   8.861  22.175  0.00  0.00    +0.000 A 
ATOM      9  C   UNL     1      -0.135   9.546  23.072  0.00  0.00    +0.000 A 
ATOM     10  C   UNL     1      -0.899  10.619  22.629  0.00  0.00    +0.000 A 
ATOM     11  C   UNL     1      -0.840  11.000  21.291  0.00  0.00    +0.000 A 
ATOM     12  C   UNL     1      -0.024  10.301  20.394  0.00  0.00    +0.000 A 
ENDBRANCH   4   7
BRANCH   1  15
ATOM     13  O   UNL     1       6.063   7.219  17.441  0.00  0.00    +0.000 OA
ATOM     14  C   UNL     1       5.343   6.392  16.893  0.00  0.00    +0.000 C 
ATOM     15  N   UNL     1       4.002   6.172  17.172  0.00  0.00    +0.000 N 
ATOM     16  H   UNL     1       3.580   5.354  16.743  0.00  0.00    +0.000 HD
BRANCH  14  17
ATOM     17  C   UNL     1       5.912   5.514  15.886  0.00  0.00    +0.000 A 
ATOM     18  C   UNL     1       5.240   4.478  15.222  0.00  0.00    +0.000 A 
ATOM     19  N   UNL     1       6.060   3.862  14.376  0.00  0.00    +0.000 NA
ATOM     20  O   UNL     1       7.277   4.529  14.521  0.00  0.00    +0.000 OA
ATOM     21  N   UNL     1       7.179   5.568  15.452  0.00  0.00    +0.000 NA
ENDBRANCH  14  17
ENDBRANCH   1  15
TORSDOF 3
ENDMDL
MODEL 5
REMARK VINA RESULT:      -7.0      3.664      4.466
REMARK  Name = 
REMARK  3 active torsions:
REMARK  status: ('A' for Active; 'I' for Inactive)
REMARK    1  A    between atoms: C_2  and  C_16
REMARK    2  A    between atoms: N_3  and  C_4
REMARK    3  A    between atoms: C_7  and  C_8
REMARK                            x       y       z     vdW  Elec       q    Type
REMARK                         _______ _______ _______ _____ _____    ______ ____
ROOT
ATOM      1  C   UNL     1       2.371   6.986  19.738  0.00  0.00    +0.000 A 
ATOM      2  C   UNL     1       2.465   7.541  18.463  0.00  0.00    +0.000 A 
ATOM      3  C   UNL     1       1.874   8.771  18.168  0.00  0.00    +0.000 A 
ATOM      4  C   UNL     1       1.142   9.488  19.124  0.00  0.00    +0.000 A 
ATOM      5  C   UNL     1       1.029   8.906  20.401  0.00  0.00    +0.000 A 
ATOM      6  C   UNL     1       1.628   7.670  20.703  0.00  0.00    +0.000 A 
ENDROOT
BRANCH   4   7
ATOM      7  C   UNL     1       0.525  10.790  18.778  0.00  0.00    +0.000 A 
ATOM      8  C   UNL     1       1.289  11.974  18.754  0.00  0.00    +0.000 A 
ATOM      9  C   UNL     1       0.715  13.216  18.468  0.00  0.00    +0.000 A 
ATOM     10  C   UNL     1      -0.641  13.302  18.179  0.00  0.00    +0.000 A 
ATOM     11  C   UNL     1      -1.420  12.149  18.182  0.00  0.00    +0.000 A 
ATOM     12  C   UNL     1      -0.845  10.910  18.483  0.00  0.00    +0.000 A 
ENDBRANCH   4   7
BRANCH   1  15
ATOM     13  O   UNL     1       1.528   4.271  19.057  0.00  0.00    +0.000 OA
ATOM     14  C   UNL     1       2.514   4.506  19.747  0.00  0.00    +0.000 C 
ATOM     15  N   UNL     1       2.989   5.766  20.081  0.00  0.00    +0.000 N 
ATOM     16  H   UNL     1       3.897   5.800  20.533  0.00  0.00    +0.000 HD
BRANCH  14  17
ATOM     17  C   UNL     1       3.309   3.399  20.247  0.00  0.00    +0.000 A 
ATOM     18  C   UNL     1       4.404   2.811  19.597  0.00  0.00    +0.000 A 
ATOM     19  N   UNL     1       4.890   1.810  20.324  0.00  0.00    +0.000 NA
ATOM     20  O   UNL     1       4.074   1.770  21.454  0.00  0.00    +0.000 OA
ATOM     21  N   UNL     1       3.097   2.771  21.412  0.00  0.00    +0.000 NA
ENDBRANCH  14  17
ENDBRANCH   1  15
TORSDOF 3
ENDMDL
MODEL 6
REMARK VINA RESULT:      -7.0      4.514      8.490
REMARK  Name = 
REMARK  3 active torsions:
REMARK  status: ('A' for Active; 'I' for Inactive)
REMARK    1  A    between atoms: C_2  and  C_16
REMARK    2  A    between atoms: N_3  and  C_4
REMARK    3  A    between atoms: C_7  and  C_8
REMARK                            x       y       z     vdW  Elec       q    Type
REMARK                         _______ _______ _______ _____ _____    ______ ____
ROOT
ATOM      1  C   UNL     1       1.245   8.831  19.595  0.00  0.00    +0.000 A 
ATOM      2  C   UNL     1       1.736   9.137  18.328  0.00  0.00    +0.000 A 
ATOM      3  C   UNL     1       2.571   8.251  17.645  0.00  0.00    +0.000 A 
ATOM      4  C   UNL     1       2.976   7.033  18.209  0.00  0.00    +0.000 A 
ATOM      5  C   UNL     1       2.498   6.745  19.500  0.00  0.00    +0.000 A 
ATOM      6  C   UNL     1       1.652   7.634  20.189  0.00  0.00    +0.000 A 
ENDROOT
BRANCH   4   7
ATOM      7  C   UNL     1       3.866   6.116  17.459  0.00  0.00    +0.000 A 
ATOM      8  C   UNL     1       4.898   6.613  16.638  0.00  0.00    +0.000 A 
ATOM      9  C   UNL     1       5.720   5.764  15.892  0.00  0.00    +0.000 A 
ATOM     10  C   UNL     1       5.542   4.389  15.963  0.00  0.00    +0.000 A 
ATOM     11  C   UNL     1       4.540   3.866  16.775  0.00  0.00    +0.000 A 
ATOM     12  C   UNL     1       3.709   4.720  17.509  0.00  0.00    +0.000 A 
ENDBRANCH   4   7
BRANCH   1  15
ATOM     13  O   UNL     1       1.540   9.916  22.294  0.00  0.00    +0.000 OA
ATOM     14  C   UNL     1       0.559  10.138  21.593  0.00  0.00    +0.000 C 
ATOM     15  N   UNL     1       0.369   9.684  20.295  0.00  0.00    +0.000 N 
ATOM     16  H   UNL     1      -0.423  10.074  19.793  0.00  0.00    +0.000 HD
BRANCH  14  17
ATOM     17  C   UNL     1      -0.505  10.981  22.110  0.00  0.00    +0.000 A 
ATOM     18  C   UNL     1      -1.054  12.101  21.470  0.00  0.00    +0.000 A 
ATOM     19  N   UNL     1      -1.996  12.652  22.228  0.00  0.00    +0.000 NA
ATOM     20  O   UNL     1      -2.032  11.856  23.373  0.00  0.00    +0.000 OA
ATOM     21  N   UNL     1      -1.112  10.806  23.291  0.00  0.00    +0.000 NA
ENDBRANCH  14  17
ENDBRANCH   1  15
TORSDOF 3
ENDMDL
MODEL 7
REMARK VINA RESULT:      -7.0      4.524      8.575
REMARK  Name = 
REMARK  3 active torsions:
REMARK  status: ('A' for Active; 'I' for Inactive)
REMARK    1  A    between atoms: C_2  and  C_16
REMARK    2  A    between atoms: N_3  and  C_4
REMARK    3  A    between atoms: C_7  and  C_8
REMARK                            x       y       z     vdW  Elec       q    Type
REMARK                         _______ _______ _______ _____ _____    ______ ____
ROOT
ATOM      1  C   UNL     1       1.302   8.901  19.716  0.00  0.00    +0.000 A 
ATOM      2  C   UNL     1       1.708   7.680  20.252  0.00  0.00    +0.000 A 
ATOM      3  C   UNL     1       2.507   6.801  19.520  0.00  0.00    +0.000 A 
ATOM      4  C   UNL     1       2.915   7.090  18.210  0.00  0.00    +0.000 A 
ATOM      5  C   UNL     1       2.478   8.312  17.667  0.00  0.00    +0.000 A 
ATOM      6  C   UNL     1       1.676   9.202  18.405  0.00  0.00    +0.000 A 
ENDROOT
BRANCH   4   7
ATOM      7  C   UNL     1       3.762   6.133  17.458  0.00  0.00    +0.000 A 
ATOM      8  C   UNL     1       3.603   4.742  17.615  0.00  0.00    +0.000 A 
ATOM      9  C   UNL     1       4.420   3.827  16.945  0.00  0.00    +0.000 A 
ATOM     10  C   UNL     1       5.408   4.283  16.082  0.00  0.00    +0.000 A 
ATOM     11  C   UNL     1       5.581   5.651  15.896  0.00  0.00    +0.000 A 
ATOM     12  C   UNL     1       4.771   6.565  16.580  0.00  0.00    +0.000 A 
ENDBRANCH   4   7
BRANCH   1  15
ATOM     13  O   UNL     1       1.604   9.725  22.505  0.00  0.00    +0.000 OA
ATOM     14  C   UNL     1       0.711  10.151  21.780  0.00  0.00    +0.000 C 
ATOM     15  N   UNL     1       0.529   9.828  20.442  0.00  0.00    +0.000 N 
ATOM     16  H   UNL     1      -0.163  10.374  19.937  0.00  0.00    +0.000 HD
BRANCH  14  17
ATOM     17  C   UNL     1      -0.238  11.112  22.313  0.00  0.00    +0.000 A 
ATOM     18  C   UNL     1      -1.354  10.813  23.107  0.00  0.00    +0.000 A 
ATOM     19  N   UNL     1      -2.019  11.924  23.407  0.00  0.00    +0.000 NA
ATOM     20  O   UNL     1      -1.301  12.942  22.779  0.00  0.00    +0.000 OA
ATOM     21  N   UNL     1      -0.182  12.435  22.110  0.00  0.00    +0.000 NA
ENDBRANCH  14  17
ENDBRANCH   1  15
TORSDOF 3
ENDMDL
MODEL 8
REMARK VINA RESULT:      -6.9      4.774      8.622
REMARK  Name = 
REMARK  3 active torsions:
REMARK  status: ('A' for Active; 'I' for Inactive)
REMARK    1  A    between atoms: C_2  and  C_16
REMARK    2  A    between atoms: N_3  and  C_4
REMARK    3  A    between atoms: C_7  and  C_8
REMARK                            x       y       z     vdW  Elec       q    Type
REMARK                         _______ _______ _______ _____ _____    ______ ____
ROOT
ATOM      1  C   UNL     1       0.856   9.257  19.825  0.00  0.00    +0.000 A 
ATOM      2  C   UNL     1       1.218   9.456  18.494  0.00  0.00    +0.000 A 
ATOM      3  C   UNL     1       2.049   8.552  17.830  0.00  0.00    +0.000 A 
ATOM      4  C   UNL     1       2.578   7.424  18.473  0.00  0.00    +0.000 A 
ATOM      5  C   UNL     1       2.229   7.246  19.824  0.00  0.00    +0.000 A 
ATOM      6  C   UNL     1       1.387   8.152  20.495  0.00  0.00    +0.000 A 
ENDROOT
BRANCH   4   7
ATOM      7  C   UNL     1       3.460   6.486  17.740  0.00  0.00    +0.000 A 
ATOM      8  C   UNL     1       3.219   5.097  17.757  0.00  0.00    +0.000 A 
ATOM      9  C   UNL     1       4.064   4.195  17.105  0.00  0.00    +0.000 A 
ATOM     10  C   UNL     1       5.166   4.663  16.400  0.00  0.00    +0.000 A 
ATOM     11  C   UNL     1       5.423   6.029  16.354  0.00  0.00    +0.000 A 
ATOM     12  C   UNL     1       4.583   6.929  17.020  0.00  0.00    +0.000 A 
ENDBRANCH   4   7
BRANCH   1  15
ATOM     13  O   UNL     1       1.520  11.696  21.293  0.00  0.00    +0.000 OA
ATOM     14  C   UNL     1       0.378  11.257  21.217  0.00  0.00    +0.000 C 
ATOM     15  N   UNL     1      -0.013  10.127  20.513  0.00  0.00    +0.000 N 
ATOM     16  H   UNL     1      -1.013   9.976  20.422  0.00  0.00    +0.000 HD
BRANCH  14  17
ATOM     17  C   UNL     1      -0.701  11.974  21.873  0.00  0.00    +0.000 A 
ATOM     18  C   UNL     1      -1.423  11.534  22.992  0.00  0.00    +0.000 A 
ATOM     19  N   UNL     1      -2.352  12.425  23.323  0.00  0.00    +0.000 NA
ATOM     20  O   UNL     1      -2.209  13.444  22.383  0.00  0.00    +0.000 OA
ATOM     21  N   UNL     1      -1.170  13.169  21.488  0.00  0.00    +0.000 NA
ENDBRANCH  14  17
ENDBRANCH   1  15
TORSDOF 3
ENDMDL
MODEL 9
REMARK VINA RESULT:      -6.9      4.388      8.512
REMARK  Name = 
REMARK  3 active torsions:
REMARK  status: ('A' for Active; 'I' for Inactive)
REMARK    1  A    between atoms: C_2  and  C_16
REMARK    2  A    between atoms: N_3  and  C_4
REMARK    3  A    between atoms: C_7  and  C_8
REMARK                            x       y       z     vdW  Elec       q    Type
REMARK                         _______ _______ _______ _____ _____    ______ ____
ROOT
ATOM      1  C   UNL     1       1.418   8.568  19.600  0.00  0.00    +0.000 A 
ATOM      2  C   UNL     1       1.868   7.366  20.144  0.00  0.00    +0.000 A 
ATOM      3  C   UNL     1       2.757   6.547  19.446  0.00  0.00    +0.000 A 
ATOM      4  C   UNL     1       3.215   6.878  18.163  0.00  0.00    +0.000 A 
ATOM      5  C   UNL     1       2.734   8.080  17.611  0.00  0.00    +0.000 A 
ATOM      6  C   UNL     1       1.842   8.910  18.314  0.00  0.00    +0.000 A 
ENDROOT
BRANCH   4   7
ATOM      7  C   UNL     1       4.157   5.985  17.448  0.00  0.00    +0.000 A 
ATOM      8  C   UNL     1       5.329   6.492  16.851  0.00  0.00    +0.000 A 
ATOM      9  C   UNL     1       6.207   5.671  16.139  0.00  0.00    +0.000 A 
ATOM     10  C   UNL     1       5.943   4.312  16.020  0.00  0.00    +0.000 A 
ATOM     11  C   UNL     1       4.800   3.779  16.609  0.00  0.00    +0.000 A 
ATOM     12  C   UNL     1       3.915   4.607  17.309  0.00  0.00    +0.000 A 
ENDBRANCH   4   7
BRANCH   1  15
ATOM     13  O   UNL     1       1.704   9.633  22.307  0.00  0.00    +0.000 OA
ATOM     14  C   UNL     1       0.737   9.881  21.596  0.00  0.00    +0.000 C 
ATOM     15  N   UNL     1       0.552   9.437  20.294  0.00  0.00    +0.000 N 
ATOM     16  H   UNL     1      -0.224   9.847  19.783  0.00  0.00    +0.000 HD
BRANCH  14  17
ATOM     17  C   UNL     1      -0.315  10.745  22.103  0.00  0.00    +0.000 A 
ATOM     18  C   UNL     1      -0.931  11.791  21.403  0.00  0.00    +0.000 A 
ATOM     19  N   UNL     1      -1.838  12.389  22.169  0.00  0.00    +0.000 NA
ATOM     20  O   UNL     1      -1.782  11.700  23.380  0.00  0.00    +0.000 OA
ATOM     21  N   UNL     1      -0.841  10.665  23.333  0.00  0.00    +0.000 NA
ENDBRANCH  14  17
ENDBRANCH   1  15
TORSDOF 3
ENDMDL
