MODEL 1
REMARK VINA RESULT:      -6.6      0.000      0.000
REMARK  Name = 
REMARK  7 active torsions:
REMARK  status: ('A' for Active; 'I' for Inactive)
REMARK    1  A    between atoms: N_4  and  C_5
REMARK    2  A    between atoms: C_5  and  C_6
REMARK    3  A    between atoms: C_6  and  O_7
REMARK    4  A    between atoms: O_7  and  C_8
REMARK    5  A    between atoms: C_8  and  C_9
REMARK    6  A    between atoms: C_9  and  O_10
REMARK    7  A    between atoms: O_10  and  C_11
REMARK                            x       y       z     vdW  Elec       q    Type
REMARK                         _______ _______ _______ _____ _____    ______ ____
ROOT
ATOM      1  C   UNL     1       5.120   3.759  15.676  0.00  0.00    +0.000 C 
ENDROOT
BRANCH   1   2
ATOM      2  C   UNL     1       6.574   4.217  15.607  0.00  0.00    +0.000 C 
BRANCH   2   3
ATOM      3  O   UNL     1       6.630   5.641  15.485  0.00  0.00    +0.000 OA
BRANCH   3   4
ATOM      4  C   UNL     1       5.373   6.238  15.821  0.00  0.00    +0.000 C 
BRANCH   4   5
ATOM      5  C   UNL     1       5.508   7.076  17.084  0.00  0.00    +0.000 C 
BRANCH   5   9
ATOM      6  C   UNL     1       8.064   6.010  19.172  0.00  0.00    +0.000 A 
ATOM      7  N   UNL     1       7.074   5.271  19.758  0.00  0.00    +0.000 NA
ATOM      8  C   UNL     1       6.019   5.573  19.037  0.00  0.00    +0.000 A 
ATOM      9  N   UNL     1       6.373   6.454  18.063  0.00  0.00    +0.000 N 
ATOM     10  N   UNL     1       7.681   6.758  18.133  0.00  0.00    +0.000 NA
ENDBRANCH   5   9
ENDBRANCH   4   5
ENDBRANCH   3   4
ENDBRANCH   2   3
ENDBRANCH   1   2
BRANCH   1  11
ATOM     11  O   UNL     1       4.956   2.916  16.817  0.00  0.00    +0.000 OA
BRANCH  11  12
ATOM     12  C   UNL     1       3.856   3.158  17.599  0.00  0.00    +0.000 A 
ATOM     13  C   UNL     1       2.651   3.728  17.151  0.00  0.00    +0.000 A 
ATOM     14  C   UNL     1       1.582   3.932  18.027  0.00  0.00    +0.000 A 
ATOM     15  C   UNL     1       1.729   3.547  19.347  0.00  0.00    +0.000 A 
ATOM     16  C   UNL     1       2.925   2.985  19.804  0.00  0.00    +0.000 A 
ATOM     17  C   UNL     1       3.997   2.794  18.945  0.00  0.00    +0.000 A 
ATOM     18  C   UNL     1       2.849   2.705  21.272  0.00  0.00    +0.000 C 
ATOM     19  C   UNL     1       1.328   2.718  21.496  0.00  0.00    +0.000 C 
ATOM     20  C   UNL     1       0.742   3.688  20.461  0.00  0.00    +0.000 C 
ENDBRANCH  11  12
ENDBRANCH   1  11
TORSDOF 7
ENDMDL
MODEL 2
REMARK VINA RESULT:      -6.6      3.812      4.648
REMARK  Name = 
REMARK  7 active torsions:
REMARK  status: ('A' for Active; 'I' for Inactive)
REMARK    1  A    between atoms: N_4  and  C_5
REMARK    2  A    between atoms: C_5  and  C_6
REMARK    3  A    between atoms: C_6  and  O_7
REMARK    4  A    between atoms: O_7  and  C_8
REMARK    5  A    between atoms: C_8  and  C_9
REMARK    6  A    between atoms: C_9  and  O_10
REMARK    7  A    between atoms: O_10  and  C_11
REMARK                            x       y       z     vdW  Elec       q    Type
REMARK                         _______ _______ _______ _____ _____    ______ ____
ROOT
ATOM      1  C   UNL     1       7.389   6.066  17.769  0.00  0.00    +0.000 C 
ENDROOT
BRANCH   1   2
ATOM      2  C   UNL     1       7.510   7.565  17.511  0.00  0.00    +0.000 C 
BRANCH   2   3
ATOM      3  O   UNL     1       8.422   8.147  18.448  0.00  0.00    +0.000 OA
BRANCH   3   4
ATOM      4  C   UNL     1       8.561   9.554  18.226  0.00  0.00    +0.000 C 
BRANCH   4   5
ATOM      5  C   UNL     1       9.234  10.213  19.422  0.00  0.00    +0.000 C 
BRANCH   5   9
ATOM      6  C   UNL     1      11.529  12.275  17.838  0.00  0.00    +0.000 A 
ATOM      7  N   UNL     1      11.983  12.493  19.109  0.00  0.00    +0.000 NA
ATOM      8  C   UNL     1      11.191  11.739  19.836  0.00  0.00    +0.000 A 
ATOM      9  N   UNL     1      10.306  11.099  19.026  0.00  0.00    +0.000 N 
ATOM     10  N   UNL     1      10.497  11.434  17.737  0.00  0.00    +0.000 NA
ENDBRANCH   5   9
ENDBRANCH   4   5
ENDBRANCH   3   4
ENDBRANCH   2   3
ENDBRANCH   1   2
BRANCH   1  11
ATOM     11  O   UNL     1       6.503   5.859  18.871  0.00  0.00    +0.000 OA
BRANCH  11  12
ATOM     12  C   UNL     1       5.302   5.264  18.581  0.00  0.00    +0.000 A 
ATOM     13  C   UNL     1       5.004   4.573  17.394  0.00  0.00    +0.000 A 
ATOM     14  C   UNL     1       3.747   3.995  17.194  0.00  0.00    +0.000 A 
ATOM     15  C   UNL     1       2.803   4.106  18.198  0.00  0.00    +0.000 A 
ATOM     16  C   UNL     1       3.087   4.797  19.379  0.00  0.00    +0.000 A 
ATOM     17  C   UNL     1       4.326   5.387  19.580  0.00  0.00    +0.000 A 
ATOM     18  C   UNL     1       1.890   4.819  20.278  0.00  0.00    +0.000 C 
ATOM     19  C   UNL     1       1.063   3.662  19.695  0.00  0.00    +0.000 C 
ATOM     20  C   UNL     1       1.398   3.597  18.198  0.00  0.00    +0.000 C 
ENDBRANCH  11  12
ENDBRANCH   1  11
TORSDOF 7
ENDMDL
MODEL 3
REMARK VINA RESULT:      -6.5      3.016      6.172
REMARK  Name = 
REMARK  7 active torsions:
REMARK  status: ('A' for Active; 'I' for Inactive)
REMARK    1  A    between atoms: N_4  and  C_5
REMARK    2  A    between atoms: C_5  and  C_6
REMARK    3  A    between atoms: C_6  and  O_7
REMARK    4  A    between atoms: O_7  and  C_8
REMARK    5  A    between atoms: C_8  and  C_9
REMARK    6  A    between atoms: C_9  and  O_10
REMARK    7  A    between atoms: O_10  and  C_11
REMARK                            x       y       z     vdW  Elec       q    Type
REMARK                         _______ _______ _______ _____ _____    ______ ____
ROOT
ATOM      1  C   UNL     1       2.865   6.032  19.336  0.00  0.00    +0.000 C 
ENDROOT
BRANCH   1   2
ATOM      2  C   UNL     1       1.946   6.055  20.553  0.00  0.00    +0.000 C 
BRANCH   2   3
ATOM      3  O   UNL     1       1.219   4.825  20.637  0.00  0.00    +0.000 OA
BRANCH   3   4
ATOM      4  C   UNL     1       1.910   3.872  21.452  0.00  0.00    +0.000 C 
BRANCH   4   5
ATOM      5  C   UNL     1       1.698   2.465  20.913  0.00  0.00    +0.000 C 
BRANCH   5   9
ATOM      6  C   UNL     1       2.462   2.244  17.536  0.00  0.00    +0.000 A 
ATOM      7  N   UNL     1       3.723   1.982  17.993  0.00  0.00    +0.000 NA
ATOM      8  C   UNL     1       3.576   2.019  19.298  0.00  0.00    +0.000 A 
ATOM      9  N   UNL     1       2.277   2.290  19.599  0.00  0.00    +0.000 N 
ATOM     10  N   UNL     1       1.542   2.448  18.484  0.00  0.00    +0.000 NA
ENDBRANCH   5   9
ENDBRANCH   4   5
ENDBRANCH   3   4
ENDBRANCH   2   3
ENDBRANCH   1   2
BRANCH   1  11
ATOM     11  O   UNL     1       4.160   5.586  19.744  0.00  0.00    +0.000 OA
BRANCH  11  12
ATOM     12  C   UNL     1       5.082   5.403  18.746  0.00  0.00    +0.000 A 
ATOM     13  C   UNL     1       6.473   5.320  18.931  0.00  0.00    +0.000 A 
ATOM     14  C   UNL     1       7.333   5.127  17.847  0.00  0.00    +0.000 A 
ATOM     15  C   UNL     1       6.784   5.006  16.584  0.00  0.00    +0.000 A 
ATOM     16  C   UNL     1       5.403   5.094  16.388  0.00  0.00    +0.000 A 
ATOM     17  C   UNL     1       4.543   5.301  17.456  0.00  0.00    +0.000 A 
ATOM     18  C   UNL     1       5.068   4.983  14.933  0.00  0.00    +0.000 C 
ATOM     19  C   UNL     1       6.353   4.343  14.383  0.00  0.00    +0.000 C 
ATOM     20  C   UNL     1       7.500   4.822  15.284  0.00  0.00    +0.000 C 
ENDBRANCH  11  12
ENDBRANCH   1  11
TORSDOF 7
ENDMDL
MODEL 4
REMARK VINA RESULT:      -6.5      2.429      3.642
REMARK  Name = 
REMARK  7 active torsions:
REMARK  status: ('A' for Active; 'I' for Inactive)
REMARK    1  A    between atoms: N_4  and  C_5
REMARK    2  A    between atoms: C_5  and  C_6
REMARK    3  A    between atoms: C_6  and  O_7
REMARK    4  A    between atoms: O_7  and  C_8
REMARK    5  A    between atoms: C_8  and  C_9
REMARK    6  A    between atoms: C_9  and  O_10
REMARK    7  A    between atoms: O_10  and  C_11
REMARK                            x       y       z     vdW  Elec       q    Type
REMARK                         _______ _______ _______ _____ _____    ______ ____
ROOT
ATOM      1  C   UNL     1       4.673   6.792  16.832  0.00  0.00    +0.000 C 
ENDROOT
BRANCH   1   2
ATOM      2  C   UNL     1       6.092   7.179  17.240  0.00  0.00    +0.000 C 
BRANCH   2   3
ATOM      3  O   UNL     1       6.527   6.355  18.326  0.00  0.00    +0.000 OA
BRANCH   3   4
ATOM      4  C   UNL     1       6.401   4.966  18.002  0.00  0.00    +0.000 C 
BRANCH   4   5
ATOM      5  C   UNL     1       7.510   4.544  17.050  0.00  0.00    +0.000 C 
BRANCH   5   9
ATOM      6  C   UNL     1       5.869   3.796  14.087  0.00  0.00    +0.000 A 
ATOM      7  N   UNL     1       6.785   4.651  13.540  0.00  0.00    +0.000 NA
ATOM      8  C   UNL     1       7.505   5.011  14.577  0.00  0.00    +0.000 A 
ATOM      9  N   UNL     1       7.035   4.391  15.692  0.00  0.00    +0.000 N 
ATOM     10  N   UNL     1       5.977   3.610  15.405  0.00  0.00    +0.000 NA
ENDBRANCH   5   9
ENDBRANCH   4   5
ENDBRANCH   3   4
ENDBRANCH   2   3
ENDBRANCH   1   2
BRANCH   1  11
ATOM     11  O   UNL     1       3.757   7.322  17.792  0.00  0.00    +0.000 OA
BRANCH  11  12
ATOM     12  C   UNL     1       3.042   6.405  18.520  0.00  0.00    +0.000 A 
ATOM     13  C   UNL     1       2.506   6.626  19.801  0.00  0.00    +0.000 A 
ATOM     14  C   UNL     1       1.787   5.627  20.462  0.00  0.00    +0.000 A 
ATOM     15  C   UNL     1       1.601   4.416  19.822  0.00  0.00    +0.000 A 
ATOM     16  C   UNL     1       2.136   4.184  18.552  0.00  0.00    +0.000 A 
ATOM     17  C   UNL     1       2.865   5.164  17.894  0.00  0.00    +0.000 A 
ATOM     18  C   UNL     1       1.841   2.786  18.102  0.00  0.00    +0.000 C 
ATOM     19  C   UNL     1       0.679   2.416  19.037  0.00  0.00    +0.000 C 
ATOM     20  C   UNL     1       0.895   3.203  20.337  0.00  0.00    +0.000 C 
ENDBRANCH  11  12
ENDBRANCH   1  11
TORSDOF 7
ENDMDL
MODEL 5
REMARK VINA RESULT:      -6.4      4.063      5.717
REMARK  Name = 
REMARK  7 active torsions:
REMARK  status: ('A' for Active; 'I' for Inactive)
REMARK    1  A    between atoms: N_4  and  C_5
REMARK    2  A    between atoms: C_5  and  C_6
REMARK    3  A    between atoms: C_6  and  O_7
REMARK    4  A    between atoms: O_7  and  C_8
REMARK    5  A    between atoms: C_8  and  C_9
REMARK    6  A    between atoms: C_9  and  O_10
REMARK    7  A    between atoms: O_10  and  C_11
REMARK                            x       y       z     vdW  Elec       q    Type
REMARK                         _______ _______ _______ _____ _____    ______ ____
ROOT
ATOM      1  C   UNL     1       2.048   5.167  20.798  0.00  0.00    +0.000 C 
ENDROOT
BRANCH   1   2
ATOM      2  C   UNL     1       1.168   4.112  20.133  0.00  0.00    +0.000 C 
BRANCH   2   3
ATOM      3  O   UNL     1       1.828   2.842  20.160  0.00  0.00    +0.000 OA
BRANCH   3   4
ATOM      4  C   UNL     1       1.924   2.283  18.846  0.00  0.00    +0.000 C 
BRANCH   4   5
ATOM      5  C   UNL     1       3.366   1.908  18.536  0.00  0.00    +0.000 C 
BRANCH   5   9
ATOM      6  C   UNL     1       5.666   4.504  18.513  0.00  0.00    +0.000 A 
ATOM      7  N   UNL     1       5.105   4.790  17.299  0.00  0.00    +0.000 NA
ATOM      8  C   UNL     1       4.178   3.867  17.181  0.00  0.00    +0.000 A 
ATOM      9  N   UNL     1       4.190   3.069  18.283  0.00  0.00    +0.000 N 
ATOM     10  N   UNL     1       5.144   3.453  19.151  0.00  0.00    +0.000 NA
ENDBRANCH   5   9
ENDBRANCH   4   5
ENDBRANCH   3   4
ENDBRANCH   2   3
ENDBRANCH   1   2
BRANCH   1  11
ATOM     11  O   UNL     1       2.788   5.854  19.787  0.00  0.00    +0.000 OA
BRANCH  11  12
ATOM     12  C   UNL     1       2.306   7.081  19.410  0.00  0.00    +0.000 A 
ATOM     13  C   UNL     1       2.438   7.647  18.130  0.00  0.00    +0.000 A 
ATOM     14  C   UNL     1       1.906   8.906  17.842  0.00  0.00    +0.000 A 
ATOM     15  C   UNL     1       1.233   9.582  18.842  0.00  0.00    +0.000 A 
ATOM     16  C   UNL     1       1.101   9.032  20.119  0.00  0.00    +0.000 A 
ATOM     17  C   UNL     1       1.639   7.789  20.420  0.00  0.00    +0.000 A 
ATOM     18  C   UNL     1       0.379   9.976  21.030  0.00  0.00    +0.000 C 
ATOM     19  C   UNL     1      -0.302  10.904  20.010  0.00  0.00    +0.000 C 
ATOM     20  C   UNL     1       0.608  10.939  18.775  0.00  0.00    +0.000 C 
ENDBRANCH  11  12
ENDBRANCH   1  11
TORSDOF 7
ENDMDL
MODEL 6
REMARK VINA RESULT:      -6.4      3.121      3.751
REMARK  Name = 
REMARK  7 active torsions:
REMARK  status: ('A' for Active; 'I' for Inactive)
REMARK    1  A    between atoms: N_4  and  C_5
REMARK    2  A    between atoms: C_5  and  C_6
REMARK    3  A    between atoms: C_6  and  O_7
REMARK    4  A    between atoms: O_7  and  C_8
REMARK    5  A    between atoms: C_8  and  C_9
REMARK    6  A    between atoms: C_9  and  O_10
REMARK    7  A    between atoms: O_10  and  C_11
REMARK                            x       y       z     vdW  Elec       q    Type
REMARK                         _______ _______ _______ _____ _____    ______ ____
ROOT
ATOM      1  C   UNL     1       6.999   5.826  18.627  0.00  0.00    +0.000 C 
ENDROOT
BRANCH   1   2
ATOM      2  C   UNL     1       6.634   6.744  17.464  0.00  0.00    +0.000 C 
BRANCH   2   3
ATOM      3  O   UNL     1       7.773   7.522  17.084  0.00  0.00    +0.000 OA
BRANCH   3   4
ATOM      4  C   UNL     1       8.282   8.268  18.195  0.00  0.00    +0.000 C 
BRANCH   4   5
ATOM      5  C   UNL     1       8.170   9.761  17.924  0.00  0.00    +0.000 C 
BRANCH   5   9
ATOM      6  C   UNL     1      10.854  11.755  18.847  0.00  0.00    +0.000 A 
ATOM      7  N   UNL     1      10.423  11.487  20.116  0.00  0.00    +0.000 NA
ATOM      8  C   UNL     1       9.388  10.703  19.914  0.00  0.00    +0.000 A 
ATOM      9  N   UNL     1       9.216  10.515  18.578  0.00  0.00    +0.000 N 
ATOM     10  N   UNL     1      10.141  11.188  17.869  0.00  0.00    +0.000 NA
ENDBRANCH   5   9
ENDBRANCH   4   5
ENDBRANCH   3   4
ENDBRANCH   2   3
ENDBRANCH   1   2
BRANCH   1  11
ATOM     11  O   UNL     1       6.621   4.489  18.294  0.00  0.00    +0.000 OA
BRANCH  11  12
ATOM     12  C   UNL     1       5.276   4.221  18.288  0.00  0.00    +0.000 A 
ATOM     13  C   UNL     1       4.565   3.660  17.213  0.00  0.00    +0.000 A 
ATOM     14  C   UNL     1       3.191   3.421  17.306  0.00  0.00    +0.000 A 
ATOM     15  C   UNL     1       2.546   3.736  18.487  0.00  0.00    +0.000 A 
ATOM     16  C   UNL     1       3.242   4.300  19.559  0.00  0.00    +0.000 A 
ATOM     17  C   UNL     1       4.603   4.556  19.471  0.00  0.00    +0.000 A 
ATOM     18  C   UNL     1       2.313   4.594  20.695  0.00  0.00    +0.000 C 
ATOM     19  C   UNL     1       1.117   3.698  20.337  0.00  0.00    +0.000 C 
ATOM     20  C   UNL     1       1.092   3.594  18.805  0.00  0.00    +0.000 C 
ENDBRANCH  11  12
ENDBRANCH   1  11
TORSDOF 7
ENDMDL
MODEL 7
REMARK VINA RESULT:      -6.4      3.196      3.881
REMARK  Name = 
REMARK  7 active torsions:
REMARK  status: ('A' for Active; 'I' for Inactive)
REMARK    1  A    between atoms: N_4  and  C_5
REMARK    2  A    between atoms: C_5  and  C_6
REMARK    3  A    between atoms: C_6  and  O_7
REMARK    4  A    between atoms: O_7  and  C_8
REMARK    5  A    between atoms: C_8  and  C_9
REMARK    6  A    between atoms: C_9  and  O_10
REMARK    7  A    between atoms: O_10  and  C_11
REMARK                            x       y       z     vdW  Elec       q    Type
REMARK                         _______ _______ _______ _____ _____    ______ ____
ROOT
ATOM      1  C   UNL     1       7.338   5.356  17.517  0.00  0.00    +0.000 C 
ENDROOT
BRANCH   1   2
ATOM      2  C   UNL     1       6.870   6.802  17.652  0.00  0.00    +0.000 C 
BRANCH   2   3
ATOM      3  O   UNL     1       7.801   7.676  17.005  0.00  0.00    +0.000 OA
BRANCH   3   4
ATOM      4  C   UNL     1       7.807   8.969  17.619  0.00  0.00    +0.000 C 
BRANCH   4   5
ATOM      5  C   UNL     1       8.781   8.993  18.788  0.00  0.00    +0.000 C 
BRANCH   5   9
ATOM      6  C   UNL     1       9.895  12.005  20.101  0.00  0.00    +0.000 A 
ATOM      7  N   UNL     1      10.159  12.304  18.793  0.00  0.00    +0.000 NA
ATOM      8  C   UNL     1       9.759  11.225  18.160  0.00  0.00    +0.000 A 
ATOM      9  N   UNL     1       9.276  10.325  19.058  0.00  0.00    +0.000 N 
ATOM     10  N   UNL     1       9.360  10.799  20.314  0.00  0.00    +0.000 NA
ENDBRANCH   5   9
ENDBRANCH   4   5
ENDBRANCH   3   4
ENDBRANCH   2   3
ENDBRANCH   1   2
BRANCH   1  11
ATOM     11  O   UNL     1       6.721   4.575  18.543  0.00  0.00    +0.000 OA
BRANCH  11  12
ATOM     12  C   UNL     1       5.381   4.325  18.393  0.00  0.00    +0.000 A 
ATOM     13  C   UNL     1       4.777   3.807  17.234  0.00  0.00    +0.000 A 
ATOM     14  C   UNL     1       3.398   3.583  17.181  0.00  0.00    +0.000 A 
ATOM     15  C   UNL     1       2.640   3.869  18.301  0.00  0.00    +0.000 A 
ATOM     16  C   UNL     1       3.230   4.390  19.456  0.00  0.00    +0.000 A 
ATOM     17  C   UNL     1       4.596   4.631  19.513  0.00  0.00    +0.000 A 
ATOM     18  C   UNL     1       2.195   4.660  20.502  0.00  0.00    +0.000 C 
ATOM     19  C   UNL     1       1.032   3.791  19.997  0.00  0.00    +0.000 C 
ATOM     20  C   UNL     1       1.161   3.735  18.468  0.00  0.00    +0.000 C 
ENDBRANCH  11  12
ENDBRANCH   1  11
TORSDOF 7
ENDMDL
MODEL 8
REMARK VINA RESULT:      -6.3      3.662      4.314
REMARK  Name = 
REMARK  7 active torsions:
REMARK  status: ('A' for Active; 'I' for Inactive)
REMARK    1  A    between atoms: N_4  and  C_5
REMARK    2  A    between atoms: C_5  and  C_6
REMARK    3  A    between atoms: C_6  and  O_7
REMARK    4  A    between atoms: O_7  and  C_8
REMARK    5  A    between atoms: C_8  and  C_9
REMARK    6  A    between atoms: C_9  and  O_10
REMARK    7  A    between atoms: O_10  and  C_11
REMARK                            x       y       z     vdW  Elec       q    Type
REMARK                         _______ _______ _______ _____ _____    ______ ____
ROOT
ATOM      1  C   UNL     1       6.143   6.675  17.773  0.00  0.00    +0.000 C 
ENDROOT
BRANCH   1   2
ATOM      2  C   UNL     1       7.550   7.064  17.330  0.00  0.00    +0.000 C 
BRANCH   2   3
ATOM      3  O   UNL     1       8.176   7.860  18.342  0.00  0.00    +0.000 OA
BRANCH   3   4
ATOM      4  C   UNL     1       8.225   9.237  17.957  0.00  0.00    +0.000 C 
BRANCH   4   5
ATOM      5  C   UNL     1       9.089  10.026  18.931  0.00  0.00    +0.000 C 
BRANCH   5   9
ATOM      6  C   UNL     1      10.878  12.575  17.404  0.00  0.00    +0.000 A 
ATOM      7  N   UNL     1       9.707  13.269  17.532  0.00  0.00    +0.000 NA
ATOM      8  C   UNL     1       8.918  12.404  18.127  0.00  0.00    +0.000 A 
ATOM      9  N   UNL     1       9.598  11.246  18.344  0.00  0.00    +0.000 N 
ATOM     10  N   UNL     1      10.858  11.327  17.881  0.00  0.00    +0.000 NA
ENDBRANCH   5   9
ENDBRANCH   4   5
ENDBRANCH   3   4
ENDBRANCH   2   3
ENDBRANCH   1   2
BRANCH   1  11
ATOM     11  O   UNL     1       6.112   5.270  18.030  0.00  0.00    +0.000 OA
BRANCH  11  12
ATOM     12  C   UNL     1       4.870   4.698  18.134  0.00  0.00    +0.000 A 
ATOM     13  C   UNL     1       4.254   3.912  17.145  0.00  0.00    +0.000 A 
ATOM     14  C   UNL     1       2.983   3.368  17.347  0.00  0.00    +0.000 A 
ATOM     15  C   UNL     1       2.347   3.609  18.551  0.00  0.00    +0.000 A 
ATOM     16  C   UNL     1       2.948   4.394  19.538  0.00  0.00    +0.000 A 
ATOM     17  C   UNL     1       4.203   4.952  19.340  0.00  0.00    +0.000 A 
ATOM     18  C   UNL     1       2.040   4.545  20.718  0.00  0.00    +0.000 C 
ATOM     19  C   UNL     1       1.071   3.373  20.496  0.00  0.00    +0.000 C 
ATOM     20  C   UNL     1       0.988   3.156  18.978  0.00  0.00    +0.000 C 
ENDBRANCH  11  12
ENDBRANCH   1  11
TORSDOF 7
ENDMDL
MODEL 9
REMARK VINA RESULT:      -6.3      2.833      6.351
REMARK  Name = 
REMARK  7 active torsions:
REMARK  status: ('A' for Active; 'I' for Inactive)
REMARK    1  A    between atoms: N_4  and  C_5
REMARK    2  A    between atoms: C_5  and  C_6
REMARK    3  A    between atoms: C_6  and  O_7
REMARK    4  A    between atoms: O_7  and  C_8
REMARK    5  A    between atoms: C_8  and  C_9
REMARK    6  A    between atoms: C_9  and  O_10
REMARK    7  A    between atoms: O_10  and  C_11
REMARK                            x       y       z     vdW  Elec       q    Type
REMARK                         _______ _______ _______ _____ _____    ______ ____
ROOT
ATOM      1  C   UNL     1       5.136   4.957  18.588  0.00  0.00    +0.000 C 
ENDROOT
BRANCH   1   2
ATOM      2  C   UNL     1       3.803   5.698  18.557  0.00  0.00    +0.000 C 
BRANCH   2   3
ATOM      3  O   UNL     1       2.949   5.120  17.564  0.00  0.00    +0.000 OA
BRANCH   3   4
ATOM      4  C   UNL     1       1.705   4.702  18.134  0.00  0.00    +0.000 C 
BRANCH   4   5
ATOM      5  C   UNL     1       1.725   3.204  18.402  0.00  0.00    +0.000 C 
BRANCH   5   9
ATOM      6  C   UNL     1       2.956   2.375  21.537  0.00  0.00    +0.000 A 
ATOM      7  N   UNL     1       1.696   2.705  21.953  0.00  0.00    +0.000 NA
ATOM      8  C   UNL     1       1.095   3.034  20.833  0.00  0.00    +0.000 A 
ATOM      9  N   UNL     1       1.965   2.901  19.796  0.00  0.00    +0.000 N 
ATOM     10  N   UNL     1       3.171   2.486  20.223  0.00  0.00    +0.000 NA
ENDBRANCH   5   9
ENDBRANCH   4   5
ENDBRANCH   3   4
ENDBRANCH   2   3
ENDBRANCH   1   2
BRANCH   1  11
ATOM     11  O   UNL     1       5.136   3.964  17.560  0.00  0.00    +0.000 OA
BRANCH  11  12
ATOM     12  C   UNL     1       5.826   4.273  16.416  0.00  0.00    +0.000 A 
ATOM     13  C   UNL     1       6.968   5.090  16.353  0.00  0.00    +0.000 A 
ATOM     14  C   UNL     1       7.605   5.343  15.135  0.00  0.00    +0.000 A 
ATOM     15  C   UNL     1       7.094   4.760  13.990  0.00  0.00    +0.000 A 
ATOM     16  C   UNL     1       5.955   3.952  14.041  0.00  0.00    +0.000 A 
ATOM     17  C   UNL     1       5.306   3.708  15.243  0.00  0.00    +0.000 A 
ATOM     18  C   UNL     1       5.575   3.487  12.670  0.00  0.00    +0.000 C 
ATOM     19  C   UNL     1       6.890   3.718  11.907  0.00  0.00    +0.000 C 
ATOM     20  C   UNL     1       7.586   4.905  12.586  0.00  0.00    +0.000 C 
ENDBRANCH  11  12
ENDBRANCH   1  11
TORSDOF 7
ENDMDL
