MODEL 1
REMARK VINA RESULT:      -7.5      0.000      0.000
REMARK  Name = 
REMARK  4 active torsions:
REMARK  status: ('A' for Active; 'I' for Inactive)
REMARK    1  A    between atoms: C_1  and  C_2
REMARK    2  A    between atoms: C_2  and  C_3
REMARK    3  A    between atoms: C_2  and  N_10
REMARK    4  A    between atoms: C_19  and  C_20
REMARK                            x       y       z     vdW  Elec       q    Type
REMARK                         _______ _______ _______ _____ _____    ______ ____
ROOT
ATOM      1  N   UNL     1      -2.607  13.848  22.681  0.00  0.00    +0.000 N 
ATOM      2  N   UNL     1      -2.614  14.473  23.883  0.00  0.00    +0.000 NA
ATOM      3  N   UNL     1      -3.860  14.551  24.303  0.00  0.00    +0.000 NA
ATOM      4  C   UNL     1      -4.654  13.989  23.353  0.00  0.00    +0.000 A 
ATOM      5  C   UNL     1      -6.036  13.851  23.337  0.00  0.00    +0.000 A 
ATOM      6  N   UNL     1      -6.654  13.265  22.288  0.00  0.00    +0.000 NA
ATOM      7  C   UNL     1      -5.929  12.804  21.262  0.00  0.00    +0.000 A 
ATOM      8  C   UNL     1      -6.630  12.216  20.229  0.00  0.00    +0.000 A 
ATOM      9  C   UNL     1      -5.989  11.691  19.106  0.00  0.00    +0.000 A 
ATOM     10  C   UNL     1      -4.594  11.738  18.967  0.00  0.00    +0.000 A 
ATOM     11  C   UNL     1      -3.865  12.334  20.019  0.00  0.00    +0.000 A 
ATOM     12  C   UNL     1      -4.514  12.875  21.165  0.00  0.00    +0.000 A 
ATOM     13  C   UNL     1      -3.887  13.513  22.282  0.00  0.00    +0.000 A 
ENDROOT
BRANCH  10  14
ATOM     14  C   UNL     1      -3.941  11.172  17.762  0.00  0.00    +0.000 A 
ATOM     15  C   UNL     1      -2.759  10.419  17.856  0.00  0.00    +0.000 A 
ATOM     16  C   UNL     1      -2.146   9.949  16.704  0.00  0.00    +0.000 A 
ATOM     17  N   UNL     1      -2.632  10.152  15.465  0.00  0.00    +0.000 NA
ATOM     18  C   UNL     1      -3.771  10.865  15.378  0.00  0.00    +0.000 A 
ATOM     19  C   UNL     1      -4.449  11.386  16.474  0.00  0.00    +0.000 A 
ENDBRANCH  10  14
BRANCH   1  21
ATOM     20  C   UNL     1      -0.195  14.493  22.681  0.00  0.00    +0.000 C 
ATOM     21  C   UNL     1      -1.314  13.675  22.013  0.00  0.00    +0.000 C 
BRANCH  21  22
ATOM     22  C   UNL     1      -0.911  12.206  21.899  0.00  0.00    +0.000 A 
ATOM     23  C   UNL     1      -0.489  11.634  20.684  0.00  0.00    +0.000 A 
ATOM     24  C   UNL     1      -0.154  10.280  20.604  0.00  0.00    +0.000 A 
ATOM     25  C   UNL     1      -0.260   9.481  21.732  0.00  0.00    +0.000 A 
ATOM     26  F   UNL     1       0.056   8.182  21.655  0.00  0.00    +0.000 F 
ATOM     27  C   UNL     1      -0.701  10.010  22.939  0.00  0.00    +0.000 A 
ATOM     28  C   UNL     1      -1.028  11.366  23.023  0.00  0.00    +0.000 A 
ENDBRANCH  21  22
ENDBRANCH   1  21
TORSDOF 3
ENDMDL
MODEL 2
REMARK VINA RESULT:      -7.4      0.206      1.285
REMARK  Name = 
REMARK  4 active torsions:
REMARK  status: ('A' for Active; 'I' for Inactive)
REMARK    1  A    between atoms: C_1  and  C_2
REMARK    2  A    between atoms: C_2  and  C_3
REMARK    3  A    between atoms: C_2  and  N_10
REMARK    4  A    between atoms: C_19  and  C_20
REMARK                            x       y       z     vdW  Elec       q    Type
REMARK                         _______ _______ _______ _____ _____    ______ ____
ROOT
ATOM      1  N   UNL     1      -2.777  13.980  22.637  0.00  0.00    +0.000 N 
ATOM      2  N   UNL     1      -2.838  14.630  23.825  0.00  0.00    +0.000 NA
ATOM      3  N   UNL     1      -4.102  14.720  24.184  0.00  0.00    +0.000 NA
ATOM      4  C   UNL     1      -4.853  14.140  23.209  0.00  0.00    +0.000 A 
ATOM      5  C   UNL     1      -6.232  14.004  23.131  0.00  0.00    +0.000 A 
ATOM      6  N   UNL     1      -6.802  13.398  22.067  0.00  0.00    +0.000 NA
ATOM      7  C   UNL     1      -6.031  12.913  21.086  0.00  0.00    +0.000 A 
ATOM      8  C   UNL     1      -6.685  12.306  20.034  0.00  0.00    +0.000 A 
ATOM      9  C   UNL     1      -5.993  11.756  18.954  0.00  0.00    +0.000 A 
ATOM     10  C   UNL     1      -4.593  11.797  18.879  0.00  0.00    +0.000 A 
ATOM     11  C   UNL     1      -3.913  12.413  19.951  0.00  0.00    +0.000 A 
ATOM     12  C   UNL     1      -4.613  12.980  21.054  0.00  0.00    +0.000 A 
ATOM     13  C   UNL     1      -4.037  13.640  22.186  0.00  0.00    +0.000 A 
ENDROOT
BRANCH  10  14
ATOM     14  C   UNL     1      -3.886  11.204  17.718  0.00  0.00    +0.000 A 
ATOM     15  C   UNL     1      -4.382  11.344  16.411  0.00  0.00    +0.000 A 
ATOM     16  C   UNL     1      -3.725  10.731  15.355  0.00  0.00    +0.000 A 
ATOM     17  N   UNL     1      -2.599  10.007  15.496  0.00  0.00    +0.000 NA
ATOM     18  C   UNL     1      -2.121   9.882  16.748  0.00  0.00    +0.000 A 
ATOM     19  C   UNL     1      -2.716  10.450  17.869  0.00  0.00    +0.000 A 
ENDBRANCH  10  14
BRANCH   1  21
ATOM     20  C   UNL     1      -0.366  14.621  22.737  0.00  0.00    +0.000 C 
ATOM     21  C   UNL     1      -1.454  13.791  22.035  0.00  0.00    +0.000 C 
BRANCH  21  22
ATOM     22  C   UNL     1      -1.050  12.319  21.973  0.00  0.00    +0.000 A 
ATOM     23  C   UNL     1      -1.183  11.455  23.076  0.00  0.00    +0.000 A 
ATOM     24  C   UNL     1      -0.777  10.120  22.998  0.00  0.00    +0.000 A 
ATOM     25  C   UNL     1      -0.215   9.643  21.823  0.00  0.00    +0.000 A 
ATOM     26  F   UNL     1       0.178   8.366  21.749  0.00  0.00    +0.000 F 
ATOM     27  C   UNL     1      -0.044  10.479  20.727  0.00  0.00    +0.000 A 
ATOM     28  C   UNL     1      -0.457  11.813  20.800  0.00  0.00    +0.000 A 
ENDBRANCH  21  22
ENDBRANCH   1  21
TORSDOF 3
ENDMDL
MODEL 3
REMARK VINA RESULT:      -7.4      0.869      1.325
REMARK  Name = 
REMARK  4 active torsions:
REMARK  status: ('A' for Active; 'I' for Inactive)
REMARK    1  A    between atoms: C_1  and  C_2
REMARK    2  A    between atoms: C_2  and  C_3
REMARK    3  A    between atoms: C_2  and  N_10
REMARK    4  A    between atoms: C_19  and  C_20
REMARK                            x       y       z     vdW  Elec       q    Type
REMARK                         _______ _______ _______ _____ _____    ______ ____
ROOT
ATOM      1  N   UNL     1      -3.801  13.909  22.431  0.00  0.00    +0.000 N 
ATOM      2  N   UNL     1      -4.035  14.552  23.600  0.00  0.00    +0.000 NA
ATOM      3  N   UNL     1      -5.312  14.420  23.898  0.00  0.00    +0.000 NA
ATOM      4  C   UNL     1      -5.898  13.703  22.901  0.00  0.00    +0.000 A 
ATOM      5  C   UNL     1      -7.226  13.323  22.761  0.00  0.00    +0.000 A 
ATOM      6  N   UNL     1      -7.625  12.613  21.683  0.00  0.00    +0.000 NA
ATOM      7  C   UNL     1      -6.733  12.262  20.750  0.00  0.00    +0.000 A 
ATOM      8  C   UNL     1      -7.215  11.536  19.681  0.00  0.00    +0.000 A 
ATOM      9  C   UNL     1      -6.384  11.105  18.646  0.00  0.00    +0.000 A 
ATOM     10  C   UNL     1      -5.011  11.394  18.637  0.00  0.00    +0.000 A 
ATOM     11  C   UNL     1      -4.505  12.134  19.727  0.00  0.00    +0.000 A 
ATOM     12  C   UNL     1      -5.349  12.580  20.784  0.00  0.00    +0.000 A 
ATOM     13  C   UNL     1      -4.957  13.345  21.928  0.00  0.00    +0.000 A 
ENDROOT
BRANCH  10  14
ATOM     14  C   UNL     1      -4.153  10.923  17.522  0.00  0.00    +0.000 A 
ATOM     15  C   UNL     1      -3.007  10.146  17.760  0.00  0.00    +0.000 A 
ATOM     16  C   UNL     1      -2.199   9.766  16.699  0.00  0.00    +0.000 A 
ATOM     17  N   UNL     1      -2.454  10.083  15.416  0.00  0.00    +0.000 NA
ATOM     18  C   UNL     1      -3.558  10.819  15.190  0.00  0.00    +0.000 A 
ATOM     19  C   UNL     1      -4.422  11.255  16.188  0.00  0.00    +0.000 A 
ENDBRANCH  10  14
BRANCH   1  21
ATOM     20  C   UNL     1      -1.562  15.002  22.601  0.00  0.00    +0.000 C 
ATOM     21  C   UNL     1      -2.437  13.951  21.896  0.00  0.00    +0.000 C 
BRANCH  21  22
ATOM     22  C   UNL     1      -1.759  12.582  21.924  0.00  0.00    +0.000 A 
ATOM     23  C   UNL     1      -1.678  11.808  23.096  0.00  0.00    +0.000 A 
ATOM     24  C   UNL     1      -1.026  10.571  23.097  0.00  0.00    +0.000 A 
ATOM     25  C   UNL     1      -0.431  10.110  21.933  0.00  0.00    +0.000 A 
ATOM     26  F   UNL     1       0.197   8.928  21.935  0.00  0.00    +0.000 F 
ATOM     27  C   UNL     1      -0.470  10.865  20.768  0.00  0.00    +0.000 A 
ATOM     28  C   UNL     1      -1.129  12.098  20.762  0.00  0.00    +0.000 A 
ENDBRANCH  21  22
ENDBRANCH   1  21
TORSDOF 3
ENDMDL
MODEL 4
REMARK VINA RESULT:      -6.9      2.657      4.981
REMARK  Name = 
REMARK  4 active torsions:
REMARK  status: ('A' for Active; 'I' for Inactive)
REMARK    1  A    between atoms: C_1  and  C_2
REMARK    2  A    between atoms: C_2  and  C_3
REMARK    3  A    between atoms: C_2  and  N_10
REMARK    4  A    between atoms: C_19  and  C_20
REMARK                            x       y       z     vdW  Elec       q    Type
REMARK                         _______ _______ _______ _____ _____    ______ ____
ROOT
ATOM      1  N   UNL     1      -0.251  13.377  21.092  0.00  0.00    +0.000 N 
ATOM      2  N   UNL     1       1.020  13.387  21.564  0.00  0.00    +0.000 NA
ATOM      3  N   UNL     1       1.662  12.360  21.048  0.00  0.00    +0.000 NA
ATOM      4  C   UNL     1       0.790  11.680  20.256  0.00  0.00    +0.000 A 
ATOM      5  C   UNL     1       0.998  10.524  19.516  0.00  0.00    +0.000 A 
ATOM      6  N   UNL     1      -0.005   9.986  18.789  0.00  0.00    +0.000 NA
ATOM      7  C   UNL     1      -1.206  10.577  18.771  0.00  0.00    +0.000 A 
ATOM      8  C   UNL     1      -2.179   9.970  18.005  0.00  0.00    +0.000 A 
ATOM      9  C   UNL     1      -3.469  10.493  17.900  0.00  0.00    +0.000 A 
ATOM     10  C   UNL     1      -3.845  11.663  18.576  0.00  0.00    +0.000 A 
ATOM     11  C   UNL     1      -2.857  12.295  19.361  0.00  0.00    +0.000 A 
ATOM     12  C   UNL     1      -1.540  11.764  19.475  0.00  0.00    +0.000 A 
ATOM     13  C   UNL     1      -0.464  12.304  20.248  0.00  0.00    +0.000 A 
ENDROOT
BRANCH  10  14
ATOM     14  C   UNL     1      -5.223  12.194  18.444  0.00  0.00    +0.000 A 
ATOM     15  C   UNL     1      -5.798  12.433  17.184  0.00  0.00    +0.000 A 
ATOM     16  C   UNL     1      -7.069  12.980  17.099  0.00  0.00    +0.000 A 
ATOM     17  N   UNL     1      -7.823  13.287  18.171  0.00  0.00    +0.000 NA
ATOM     18  C   UNL     1      -7.274  13.048  19.377  0.00  0.00    +0.000 A 
ATOM     19  C   UNL     1      -6.005  12.514  19.562  0.00  0.00    +0.000 A 
ENDBRANCH  10  14
BRANCH   1  21
ATOM     20  C   UNL     1      -1.628  15.349  20.423  0.00  0.00    +0.000 C 
ATOM     21  C   UNL     1      -1.157  14.428  21.562  0.00  0.00    +0.000 C 
BRANCH  21  22
ATOM     22  C   UNL     1      -2.354  13.864  22.326  0.00  0.00    +0.000 A 
ATOM     23  C   UNL     1      -2.250  12.734  23.158  0.00  0.00    +0.000 A 
ATOM     24  C   UNL     1      -3.369  12.223  23.822  0.00  0.00    +0.000 A 
ATOM     25  C   UNL     1      -4.605  12.824  23.641  0.00  0.00    +0.000 A 
ATOM     26  F   UNL     1      -5.679  12.333  24.273  0.00  0.00    +0.000 F 
ATOM     27  C   UNL     1      -4.745  13.923  22.803  0.00  0.00    +0.000 A 
ATOM     28  C   UNL     1      -3.625  14.441  22.145  0.00  0.00    +0.000 A 
ENDBRANCH  21  22
ENDBRANCH   1  21
TORSDOF 3
ENDMDL
MODEL 5
REMARK VINA RESULT:      -6.8      1.060      1.514
REMARK  Name = 
REMARK  4 active torsions:
REMARK  status: ('A' for Active; 'I' for Inactive)
REMARK    1  A    between atoms: C_1  and  C_2
REMARK    2  A    between atoms: C_2  and  C_3
REMARK    3  A    between atoms: C_2  and  N_10
REMARK    4  A    between atoms: C_19  and  C_20
REMARK                            x       y       z     vdW  Elec       q    Type
REMARK                         _______ _______ _______ _____ _____    ______ ____
ROOT
ATOM      1  N   UNL     1      -1.145  13.533  22.188  0.00  0.00    +0.000 N 
ATOM      2  N   UNL     1      -0.872  14.133  23.373  0.00  0.00    +0.000 NA
ATOM      3  N   UNL     1      -2.012  14.380  23.985  0.00  0.00    +0.000 NA
ATOM      4  C   UNL     1      -3.018  13.951  23.176  0.00  0.00    +0.000 A 
ATOM      5  C   UNL     1      -4.391  14.010  23.380  0.00  0.00    +0.000 A 
ATOM      6  N   UNL     1      -5.243  13.535  22.446  0.00  0.00    +0.000 NA
ATOM      7  C   UNL     1      -4.763  12.993  21.321  0.00  0.00    +0.000 A 
ATOM      8  C   UNL     1      -5.695  12.527  20.416  0.00  0.00    +0.000 A 
ATOM      9  C   UNL     1      -5.320  11.935  19.209  0.00  0.00    +0.000 A 
ATOM     10  C   UNL     1      -3.972  11.788  18.850  0.00  0.00    +0.000 A 
ATOM     11  C   UNL     1      -3.009  12.257  19.769  0.00  0.00    +0.000 A 
ATOM     12  C   UNL     1      -3.386  12.865  21.001  0.00  0.00    +0.000 A 
ATOM     13  C   UNL     1      -2.505  13.390  22.000  0.00  0.00    +0.000 A 
ENDROOT
BRANCH  10  14
ATOM     14  C   UNL     1      -3.605  11.154  17.560  0.00  0.00    +0.000 A 
ATOM     15  C   UNL     1      -4.355  11.384  16.394  0.00  0.00    +0.000 A 
ATOM     16  C   UNL     1      -4.016  10.734  15.217  0.00  0.00    +0.000 A 
ATOM     17  N   UNL     1      -2.974   9.888  15.105  0.00  0.00    +0.000 NA
ATOM     18  C   UNL     1      -2.252   9.678  16.221  0.00  0.00    +0.000 A 
ATOM     19  C   UNL     1      -2.521  10.274  17.447  0.00  0.00    +0.000 A 
ENDBRANCH  10  14
BRANCH   1  21
ATOM     20  C   UNL     1       1.276  13.934  21.724  0.00  0.00    +0.000 C 
ATOM     21  C   UNL     1      -0.011  13.191  21.325  0.00  0.00    +0.000 C 
BRANCH  21  22
ATOM     22  C   UNL     1       0.237  11.684  21.262  0.00  0.00    +0.000 A 
ATOM     23  C   UNL     1       0.720  11.050  20.102  0.00  0.00    +0.000 A 
ATOM     24  C   UNL     1       0.909   9.666  20.065  0.00  0.00    +0.000 A 
ATOM     25  C   UNL     1       0.595   8.902  21.179  0.00  0.00    +0.000 A 
ATOM     26  F   UNL     1       0.772   7.575  21.142  0.00  0.00    +0.000 F 
ATOM     27  C   UNL     1       0.090   9.496  22.328  0.00  0.00    +0.000 A 
ATOM     28  C   UNL     1      -0.092  10.881  22.371  0.00  0.00    +0.000 A 
ENDBRANCH  21  22
ENDBRANCH   1  21
TORSDOF 3
ENDMDL
MODEL 6
REMARK VINA RESULT:      -6.7      7.976     11.389
REMARK  Name = 
REMARK  4 active torsions:
REMARK  status: ('A' for Active; 'I' for Inactive)
REMARK    1  A    between atoms: C_1  and  C_2
REMARK    2  A    between atoms: C_2  and  C_3
REMARK    3  A    between atoms: C_2  and  N_10
REMARK    4  A    between atoms: C_19  and  C_20
REMARK                            x       y       z     vdW  Elec       q    Type
REMARK                         _______ _______ _______ _____ _____    ______ ____
ROOT
ATOM      1  N   UNL     1       4.484   4.330  17.044  0.00  0.00    +0.000 N 
ATOM      2  N   UNL     1       5.009   3.109  16.782  0.00  0.00    +0.000 NA
ATOM      3  N   UNL     1       4.585   2.268  17.704  0.00  0.00    +0.000 NA
ATOM      4  C   UNL     1       3.800   2.964  18.570  0.00  0.00    +0.000 A 
ATOM      5  C   UNL     1       3.143   2.517  19.708  0.00  0.00    +0.000 A 
ATOM      6  N   UNL     1       2.408   3.370  20.455  0.00  0.00    +0.000 NA
ATOM      7  C   UNL     1       2.303   4.653  20.090  0.00  0.00    +0.000 A 
ATOM      8  C   UNL     1       1.535   5.461  20.901  0.00  0.00    +0.000 A 
ATOM      9  C   UNL     1       1.342   6.816  20.624  0.00  0.00    +0.000 A 
ATOM     10  C   UNL     1       1.928   7.428  19.506  0.00  0.00    +0.000 A 
ATOM     11  C   UNL     1       2.714   6.610  18.666  0.00  0.00    +0.000 A 
ATOM     12  C   UNL     1       2.917   5.228  18.946  0.00  0.00    +0.000 A 
ATOM     13  C   UNL     1       3.701   4.306  18.182  0.00  0.00    +0.000 A 
ENDROOT
BRANCH  10  14
ATOM     14  C   UNL     1       1.705   8.869  19.238  0.00  0.00    +0.000 A 
ATOM     15  C   UNL     1       2.205   9.483  18.077  0.00  0.00    +0.000 A 
ATOM     16  C   UNL     1       2.024  10.844  17.884  0.00  0.00    +0.000 A 
ATOM     17  N   UNL     1       1.364  11.639  18.748  0.00  0.00    +0.000 NA
ATOM     18  C   UNL     1       0.878  11.047  19.854  0.00  0.00    +0.000 A 
ATOM     19  C   UNL     1       1.019   9.694  20.139  0.00  0.00    +0.000 A 
ENDBRANCH  10  14
BRANCH   1  21
ATOM     20  C   UNL     1       5.703   6.500  16.851  0.00  0.00    +0.000 C 
ATOM     21  C   UNL     1       4.849   5.431  16.149  0.00  0.00    +0.000 C 
BRANCH  21  22
ATOM     22  C   UNL     1       5.540   4.941  14.877  0.00  0.00    +0.000 A 
ATOM     23  C   UNL     1       4.905   4.085  13.959  0.00  0.00    +0.000 A 
ATOM     24  C   UNL     1       5.573   3.630  12.819  0.00  0.00    +0.000 A 
ATOM     25  C   UNL     1       6.889   4.009  12.599  0.00  0.00    +0.000 A 
ATOM     26  F   UNL     1       7.531   3.570  11.510  0.00  0.00    +0.000 F 
ATOM     27  C   UNL     1       7.552   4.830  13.503  0.00  0.00    +0.000 A 
ATOM     28  C   UNL     1       6.883   5.293  14.639  0.00  0.00    +0.000 A 
ENDBRANCH  21  22
ENDBRANCH   1  21
TORSDOF 3
ENDMDL
MODEL 7
REMARK VINA RESULT:      -6.7      9.922     13.208
REMARK  Name = 
REMARK  4 active torsions:
REMARK  status: ('A' for Active; 'I' for Inactive)
REMARK    1  A    between atoms: C_1  and  C_2
REMARK    2  A    between atoms: C_2  and  C_3
REMARK    3  A    between atoms: C_2  and  N_10
REMARK    4  A    between atoms: C_19  and  C_20
REMARK                            x       y       z     vdW  Elec       q    Type
REMARK                         _______ _______ _______ _____ _____    ______ ____
ROOT
ATOM      1  N   UNL     1       9.790  15.615  18.338  0.00  0.00    +0.000 N 
ATOM      2  N   UNL     1      10.526  16.013  17.272  0.00  0.00    +0.000 NA
ATOM      3  N   UNL     1      11.316  15.020  16.918  0.00  0.00    +0.000 NA
ATOM      4  C   UNL     1      11.095  13.989  17.777  0.00  0.00    +0.000 A 
ATOM      5  C   UNL     1      11.698  12.739  17.817  0.00  0.00    +0.000 A 
ATOM      6  N   UNL     1      11.348  11.839  18.761  0.00  0.00    +0.000 NA
ATOM      7  C   UNL     1      10.405  12.149  19.659  0.00  0.00    +0.000 A 
ATOM      8  C   UNL     1      10.100  11.178  20.590  0.00  0.00    +0.000 A 
ATOM      9  C   UNL     1       9.130  11.377  21.574  0.00  0.00    +0.000 A 
ATOM     10  C   UNL     1       8.417  12.581  21.669  0.00  0.00    +0.000 A 
ATOM     11  C   UNL     1       8.717  13.581  20.719  0.00  0.00    +0.000 A 
ATOM     12  C   UNL     1       9.709  13.385  19.716  0.00  0.00    +0.000 A 
ATOM     13  C   UNL     1      10.110  14.325  18.714  0.00  0.00    +0.000 A 
ENDROOT
BRANCH  10  14
ATOM     14  C   UNL     1       7.392  12.763  22.725  0.00  0.00    +0.000 A 
ATOM     15  C   UNL     1       7.161  11.775  23.697  0.00  0.00    +0.000 A 
ATOM     16  C   UNL     1       6.158  11.955  24.639  0.00  0.00    +0.000 A 
ATOM     17  N   UNL     1       5.381  13.052  24.701  0.00  0.00    +0.000 NA
ATOM     18  C   UNL     1       5.611  14.001  23.774  0.00  0.00    +0.000 A 
ATOM     19  C   UNL     1       6.584  13.906  22.787  0.00  0.00    +0.000 A 
ENDBRANCH  10  14
BRANCH   1  21
ATOM     20  C   UNL     1       8.954  17.966  18.249  0.00  0.00    +0.000 C 
ATOM     21  C   UNL     1       8.854  16.583  18.915  0.00  0.00    +0.000 C 
BRANCH  21  22
ATOM     22  C   UNL     1       7.411  16.079  18.894  0.00  0.00    +0.000 A 
ATOM     23  C   UNL     1       6.497  16.373  19.923  0.00  0.00    +0.000 A 
ATOM     24  C   UNL     1       5.192  15.874  19.890  0.00  0.00    +0.000 A 
ATOM     25  C   UNL     1       4.796  15.060  18.840  0.00  0.00    +0.000 A 
ATOM     26  F   UNL     1       3.548  14.578  18.810  0.00  0.00    +0.000 F 
ATOM     27  C   UNL     1       5.685  14.729  17.824  0.00  0.00    +0.000 A 
ATOM     28  C   UNL     1       6.988  15.234  17.851  0.00  0.00    +0.000 A 
ENDBRANCH  21  22
ENDBRANCH   1  21
TORSDOF 3
ENDMDL
MODEL 8
REMARK VINA RESULT:      -6.7      2.635      5.012
REMARK  Name = 
REMARK  4 active torsions:
REMARK  status: ('A' for Active; 'I' for Inactive)
REMARK    1  A    between atoms: C_1  and  C_2
REMARK    2  A    between atoms: C_2  and  C_3
REMARK    3  A    between atoms: C_2  and  N_10
REMARK    4  A    between atoms: C_19  and  C_20
REMARK                            x       y       z     vdW  Elec       q    Type
REMARK                         _______ _______ _______ _____ _____    ______ ____
ROOT
ATOM      1  N   UNL     1      -0.004  13.307  20.727  0.00  0.00    +0.000 N 
ATOM      2  N   UNL     1       1.303  13.324  21.082  0.00  0.00    +0.000 NA
ATOM      3  N   UNL     1       1.911  12.324  20.479  0.00  0.00    +0.000 NA
ATOM      4  C   UNL     1       0.980  11.653  19.748  0.00  0.00    +0.000 A 
ATOM      5  C   UNL     1       1.136  10.523  18.957  0.00  0.00    +0.000 A 
ATOM      6  N   UNL     1       0.079   9.989  18.307  0.00  0.00    +0.000 NA
ATOM      7  C   UNL     1      -1.126  10.560  18.417  0.00  0.00    +0.000 A 
ATOM      8  C   UNL     1      -2.156   9.960  17.723  0.00  0.00    +0.000 A 
ATOM      9  C   UNL     1      -3.458  10.464  17.751  0.00  0.00    +0.000 A 
ATOM     10  C   UNL     1      -3.788  11.607  18.494  0.00  0.00    +0.000 A 
ATOM     11  C   UNL     1      -2.741  12.232  19.206  0.00  0.00    +0.000 A 
ATOM     12  C   UNL     1      -1.412  11.720  19.184  0.00  0.00    +0.000 A 
ATOM     13  C   UNL     1      -0.278  12.256  19.873  0.00  0.00    +0.000 A 
ENDROOT
BRANCH  10  14
ATOM     14  C   UNL     1      -5.180  12.118  18.504  0.00  0.00    +0.000 A 
ATOM     15  C   UNL     1      -5.887  12.337  17.310  0.00  0.00    +0.000 A 
ATOM     16  C   UNL     1      -7.168  12.866  17.355  0.00  0.00    +0.000 A 
ATOM     17  N   UNL     1      -7.809  13.173  18.498  0.00  0.00    +0.000 NA
ATOM     18  C   UNL     1      -7.133  12.953  19.641  0.00  0.00    +0.000 A 
ATOM     19  C   UNL     1      -5.843  12.438  19.696  0.00  0.00    +0.000 A 
ENDBRANCH  10  14
BRANCH   1  21
ATOM     20  C   UNL     1      -1.455  15.282  20.248  0.00  0.00    +0.000 C 
ATOM     21  C   UNL     1      -0.879  14.328  21.309  0.00  0.00    +0.000 C 
BRANCH  21  22
ATOM     22  C   UNL     1      -2.001  13.721  22.151  0.00  0.00    +0.000 A 
ATOM     23  C   UNL     1      -3.259  14.337  22.283  0.00  0.00    +0.000 A 
ATOM     24  C   UNL     1      -4.256  13.773  23.083  0.00  0.00    +0.000 A 
ATOM     25  C   UNL     1      -3.996  12.600  23.776  0.00  0.00    +0.000 A 
ATOM     26  F   UNL     1      -4.949  12.061  24.546  0.00  0.00    +0.000 F 
ATOM     27  C   UNL     1      -2.754  11.984  23.688  0.00  0.00    +0.000 A 
ATOM     28  C   UNL     1      -1.758  12.542  22.881  0.00  0.00    +0.000 A 
ENDBRANCH  21  22
ENDBRANCH   1  21
TORSDOF 3
ENDMDL
MODEL 9
REMARK VINA RESULT:      -6.7      7.656     10.746
REMARK  Name = 
REMARK  4 active torsions:
REMARK  status: ('A' for Active; 'I' for Inactive)
REMARK    1  A    between atoms: C_1  and  C_2
REMARK    2  A    between atoms: C_2  and  C_3
REMARK    3  A    between atoms: C_2  and  N_10
REMARK    4  A    between atoms: C_19  and  C_20
REMARK                            x       y       z     vdW  Elec       q    Type
REMARK                         _______ _______ _______ _____ _____    ______ ____
ROOT
ATOM      1  N   UNL     1       5.055   4.581  18.822  0.00  0.00    +0.000 N 
ATOM      2  N   UNL     1       5.635   3.359  18.899  0.00  0.00    +0.000 NA
ATOM      3  N   UNL     1       4.882   2.588  19.656  0.00  0.00    +0.000 NA
ATOM      4  C   UNL     1       3.824   3.331  20.080  0.00  0.00    +0.000 A 
ATOM      5  C   UNL     1       2.772   2.963  20.908  0.00  0.00    +0.000 A 
ATOM      6  N   UNL     1       1.807   3.853  21.228  0.00  0.00    +0.000 NA
ATOM      7  C   UNL     1       1.859   5.096  20.734  0.00  0.00    +0.000 A 
ATOM      8  C   UNL     1       0.838   5.947  21.104  0.00  0.00    +0.000 A 
ATOM      9  C   UNL     1       0.775   7.265  20.650  0.00  0.00    +0.000 A 
ATOM     10  C   UNL     1       1.754   7.796  19.797  0.00  0.00    +0.000 A 
ATOM     11  C   UNL     1       2.802   6.934  19.409  0.00  0.00    +0.000 A 
ATOM     12  C   UNL     1       2.873   5.589  19.872  0.00  0.00    +0.000 A 
ATOM     13  C   UNL     1       3.889   4.630  19.561  0.00  0.00    +0.000 A 
ENDROOT
BRANCH  10  14
ATOM     14  C   UNL     1       1.659   9.201  19.332  0.00  0.00    +0.000 A 
ATOM     15  C   UNL     1       2.258   9.616  18.130  0.00  0.00    +0.000 A 
ATOM     16  C   UNL     1       2.196  10.949  17.752  0.00  0.00    +0.000 A 
ATOM     17  N   UNL     1       1.565  11.898  18.468  0.00  0.00    +0.000 NA
ATOM     18  C   UNL     1       0.983  11.497  19.614  0.00  0.00    +0.000 A 
ATOM     19  C   UNL     1       1.003  10.188  20.079  0.00  0.00    +0.000 A 
ENDBRANCH  10  14
BRANCH   1  21
ATOM     20  C   UNL     1       7.082   6.033  18.679  0.00  0.00    +0.000 C 
ATOM     21  C   UNL     1       5.746   5.612  18.042  0.00  0.00    +0.000 C 
BRANCH  21  22
ATOM     22  C   UNL     1       5.951   5.198  16.586  0.00  0.00    +0.000 A 
ATOM     23  C   UNL     1       4.925   4.617  15.818  0.00  0.00    +0.000 A 
ATOM     24  C   UNL     1       5.151   4.222  14.496  0.00  0.00    +0.000 A 
ATOM     25  C   UNL     1       6.411   4.384  13.939  0.00  0.00    +0.000 A 
ATOM     26  F   UNL     1       6.630   4.001  12.675  0.00  0.00    +0.000 F 
ATOM     27  C   UNL     1       7.451   4.928  14.682  0.00  0.00    +0.000 A 
ATOM     28  C   UNL     1       7.225   5.332  16.001  0.00  0.00    +0.000 A 
ENDBRANCH  21  22
ENDBRANCH   1  21
TORSDOF 3
ENDMDL
