MODEL 1
REMARK VINA RESULT:      -8.7      0.000      0.000
REMARK  Name = 
REMARK  5 active torsions:
REMARK  status: ('A' for Active; 'I' for Inactive)
REMARK    1  A    between atoms: O_1  and  C_2
REMARK    2  A    between atoms: C_5  and  C_6
REMARK    3  A    between atoms: C_8  and  C_9
REMARK    4  A    between atoms: C_19  and  C_20
REMARK    5  A    between atoms: C_31  and  O_32
REMARK                            x       y       z     vdW  Elec       q    Type
REMARK                         _______ _______ _______ _____ _____    ______ ____
ROOT
ATOM      1  C   UNL     1       0.740  12.711  18.697  0.00  0.00    +0.000 A 
ATOM      2  C   UNL     1      -0.580  12.672  18.234  0.00  0.00    +0.000 A 
ATOM      3  C   UNL     1      -1.292  11.475  18.255  0.00  0.00    +0.000 A 
ATOM      4  N   UNL     1      -0.764  10.321  18.719  0.00  0.00    +0.000 NA
ATOM      5  C   UNL     1       0.507  10.348  19.174  0.00  0.00    +0.000 A 
ATOM      6  C   UNL     1       1.277  11.509  19.174  0.00  0.00    +0.000 A 
ENDROOT
BRANCH   3   7
ATOM      7  C   UNL     1      -2.666  11.404  17.769  0.00  0.00    +0.000 A 
ATOM      8  C   UNL     1      -3.016  10.946  16.510  0.00  0.00    +0.000 A 
ATOM      9  N   UNL     1      -4.380  11.000  16.394  0.00  0.00    +0.000 N 
ATOM     10  C   UNL     1      -4.937  11.498  17.547  0.00  0.00    +0.000 A 
ATOM     11  C   UNL     1      -6.279  11.732  17.868  0.00  0.00    +0.000 A 
ATOM     12  C   UNL     1      -6.562  12.257  19.132  0.00  0.00    +0.000 A 
ATOM     13  C   UNL     1      -5.541  12.531  20.039  0.00  0.00    +0.000 A 
ATOM     14  C   UNL     1      -4.205  12.284  19.703  0.00  0.00    +0.000 A 
ATOM     15  C   UNL     1      -3.888  11.757  18.432  0.00  0.00    +0.000 A 
ATOM     16  H   UNL     1      -4.909  10.718  15.581  0.00  0.00    +0.000 HD
ENDBRANCH   3   7
BRANCH   5  17
ATOM     17  C   UNL     1       1.053   9.083  19.659  0.00  0.00    +0.000 A 
ATOM     18  C   UNL     1       0.746   8.537  20.894  0.00  0.00    +0.000 A 
ATOM     19  N   UNL     1       1.435   7.362  21.032  0.00  0.00    +0.000 N 
ATOM     20  C   UNL     1       2.200   7.126  19.916  0.00  0.00    +0.000 A 
ATOM     21  C   UNL     1       3.069   6.065  19.631  0.00  0.00    +0.000 A 
ATOM     22  C   UNL     1       3.729   6.080  18.399  0.00  0.00    +0.000 A 
ATOM     23  C   UNL     1       3.521   7.112  17.487  0.00  0.00    +0.000 A 
ATOM     24  C   UNL     1       2.646   8.163  17.788  0.00  0.00    +0.000 A 
ATOM     25  C   UNL     1       1.971   8.180  19.027  0.00  0.00    +0.000 A 
ATOM     26  H   UNL     1       1.394   6.753  21.836  0.00  0.00    +0.000 HD
ENDBRANCH   5  17
BRANCH   1  30
ATOM     27  C   UNL     1       3.054  16.342  18.668  0.00  0.00    +0.000 A 
ATOM     28  C   UNL     1       1.763  16.349  19.184  0.00  0.00    +0.000 A 
ATOM     29  C   UNL     1       1.017  15.165  19.197  0.00  0.00    +0.000 A 
ATOM     30  C   UNL     1       1.535  13.961  18.683  0.00  0.00    +0.000 A 
ATOM     31  C   UNL     1       2.842  13.988  18.159  0.00  0.00    +0.000 A 
ATOM     32  C   UNL     1       3.596  15.163  18.162  0.00  0.00    +0.000 A 
BRANCH  27  33
ATOM     33  O   UNL     1       3.801  17.485  18.654  0.00  0.00    +0.000 OA
ATOM     34  H   UNL     1       4.469  17.436  19.354  0.00  0.00    +0.000 HD
ENDBRANCH  27  33
BRANCH  32  35
ATOM     35  O   UNL     1       4.870  15.167  17.670  0.00  0.00    +0.000 OA
ATOM     36  H   UNL     1       4.851  15.412  16.732  0.00  0.00    +0.000 HD
ENDBRANCH  32  35
ENDBRANCH   1  30
TORSDOF 5
ENDMDL
MODEL 2
REMARK VINA RESULT:      -8.6      0.061      6.700
REMARK  Name = 
REMARK  5 active torsions:
REMARK  status: ('A' for Active; 'I' for Inactive)
REMARK    1  A    between atoms: O_1  and  C_2
REMARK    2  A    between atoms: C_5  and  C_6
REMARK    3  A    between atoms: C_8  and  C_9
REMARK    4  A    between atoms: C_19  and  C_20
REMARK    5  A    between atoms: C_31  and  O_32
REMARK                            x       y       z     vdW  Elec       q    Type
REMARK                         _______ _______ _______ _____ _____    ______ ____
ROOT
ATOM      1  C   UNL     1       0.757  12.694  18.652  0.00  0.00    +0.000 A 
ATOM      2  C   UNL     1       1.306  11.500  19.132  0.00  0.00    +0.000 A 
ATOM      3  C   UNL     1       0.540  10.335  19.145  0.00  0.00    +0.000 A 
ATOM      4  N   UNL     1      -0.734  10.297  18.698  0.00  0.00    +0.000 NA
ATOM      5  C   UNL     1      -1.271  11.442  18.228  0.00  0.00    +0.000 A 
ATOM      6  C   UNL     1      -0.565  12.642  18.194  0.00  0.00    +0.000 A 
ENDROOT
BRANCH   3   7
ATOM      7  C   UNL     1       1.084   9.078  19.650  0.00  0.00    +0.000 A 
ATOM      8  C   UNL     1       0.765   8.541  20.886  0.00  0.00    +0.000 A 
ATOM      9  N   UNL     1       1.437   7.356  21.028  0.00  0.00    +0.000 N 
ATOM     10  C   UNL     1       2.205   7.107  19.916  0.00  0.00    +0.000 A 
ATOM     11  C   UNL     1       3.052   6.029  19.633  0.00  0.00    +0.000 A 
ATOM     12  C   UNL     1       3.723   6.037  18.407  0.00  0.00    +0.000 A 
ATOM     13  C   UNL     1       3.548   7.079  17.500  0.00  0.00    +0.000 A 
ATOM     14  C   UNL     1       2.691   8.146  17.798  0.00  0.00    +0.000 A 
ATOM     15  C   UNL     1       2.001   8.167  19.030  0.00  0.00    +0.000 A 
ATOM     16  H   UNL     1       1.383   6.747  21.832  0.00  0.00    +0.000 HD
ENDBRANCH   3   7
BRANCH   5  17
ATOM     17  C   UNL     1      -2.654  11.371  17.761  0.00  0.00    +0.000 A 
ATOM     18  C   UNL     1      -3.021  10.901  16.511  0.00  0.00    +0.000 A 
ATOM     19  N   UNL     1      -4.382  10.983  16.400  0.00  0.00    +0.000 N 
ATOM     20  C   UNL     1      -4.923  11.507  17.549  0.00  0.00    +0.000 A 
ATOM     21  C   UNL     1      -6.259  11.782  17.868  0.00  0.00    +0.000 A 
ATOM     22  C   UNL     1      -6.526  12.322  19.129  0.00  0.00    +0.000 A 
ATOM     23  C   UNL     1      -5.498  12.569  20.035  0.00  0.00    +0.000 A 
ATOM     24  C   UNL     1      -4.169  12.285  19.700  0.00  0.00    +0.000 A 
ATOM     25  C   UNL     1      -3.866  11.746  18.431  0.00  0.00    +0.000 A 
ATOM     26  H   UNL     1      -4.919  10.703  15.591  0.00  0.00    +0.000 HD
ENDBRANCH   5  17
BRANCH   1  30
ATOM     27  C   UNL     1       3.018  16.359  18.601  0.00  0.00    +0.000 A 
ATOM     28  C   UNL     1       1.699  16.366  19.038  0.00  0.00    +0.000 A 
ATOM     29  C   UNL     1       0.970  15.171  19.059  0.00  0.00    +0.000 A 
ATOM     30  C   UNL     1       1.534  13.955  18.630  0.00  0.00    +0.000 A 
ATOM     31  C   UNL     1       2.870  13.982  18.184  0.00  0.00    +0.000 A 
ATOM     32  C   UNL     1       3.606  15.168  18.180  0.00  0.00    +0.000 A 
BRANCH  27  33
ATOM     33  O   UNL     1       3.748  17.512  18.581  0.00  0.00    +0.000 OA
ATOM     34  H   UNL     1       3.229  18.208  18.151  0.00  0.00    +0.000 HD
ENDBRANCH  27  33
BRANCH  32  35
ATOM     35  O   UNL     1       4.907  15.172  17.765  0.00  0.00    +0.000 OA
ATOM     36  H   UNL     1       5.360  15.944  18.137  0.00  0.00    +0.000 HD
ENDBRANCH  32  35
ENDBRANCH   1  30
TORSDOF 5
ENDMDL
MODEL 3
REMARK VINA RESULT:      -8.6      2.973      6.138
REMARK  Name = 
REMARK  5 active torsions:
REMARK  status: ('A' for Active; 'I' for Inactive)
REMARK    1  A    between atoms: O_1  and  C_2
REMARK    2  A    between atoms: C_5  and  C_6
REMARK    3  A    between atoms: C_8  and  C_9
REMARK    4  A    between atoms: C_19  and  C_20
REMARK    5  A    between atoms: C_31  and  O_32
REMARK                            x       y       z     vdW  Elec       q    Type
REMARK                         _______ _______ _______ _____ _____    ______ ____
ROOT
ATOM      1  C   UNL     1       0.415  10.426  18.606  0.00  0.00    +0.000 A 
ATOM      2  C   UNL     1      -0.916  10.347  18.184  0.00  0.00    +0.000 A 
ATOM      3  C   UNL     1      -1.686  11.504  18.083  0.00  0.00    +0.000 A 
ATOM      4  N   UNL     1      -1.199  12.730  18.373  0.00  0.00    +0.000 NA
ATOM      5  C   UNL     1       0.086  12.818  18.777  0.00  0.00    +0.000 A 
ATOM      6  C   UNL     1       0.908  11.702  18.905  0.00  0.00    +0.000 A 
ENDROOT
BRANCH   3   7
ATOM      7  C   UNL     1      -3.081  11.449  17.656  0.00  0.00    +0.000 A 
ATOM      8  C   UNL     1      -3.486  11.049  16.394  0.00  0.00    +0.000 A 
ATOM      9  N   UNL     1      -4.853  11.102  16.341  0.00  0.00    +0.000 N 
ATOM     10  C   UNL     1      -5.359  11.543  17.541  0.00  0.00    +0.000 A 
ATOM     11  C   UNL     1      -6.686  11.755  17.932  0.00  0.00    +0.000 A 
ATOM     12  C   UNL     1      -6.913  12.219  19.231  0.00  0.00    +0.000 A 
ATOM     13  C   UNL     1      -5.854  12.455  20.102  0.00  0.00    +0.000 A 
ATOM     14  C   UNL     1      -4.533  12.231  19.696  0.00  0.00    +0.000 A 
ATOM     15  C   UNL     1      -4.272  11.765  18.389  0.00  0.00    +0.000 A 
ATOM     16  H   UNL     1      -5.418  10.856  15.541  0.00  0.00    +0.000 HD
ENDBRANCH   3   7
BRANCH   5  17
ATOM     17  C   UNL     1       0.580  14.157  19.091  0.00  0.00    +0.000 A 
ATOM     18  C   UNL     1      -0.132  15.084  19.833  0.00  0.00    +0.000 A 
ATOM     19  N   UNL     1       0.614  16.228  19.926  0.00  0.00    +0.000 N 
ATOM     20  C   UNL     1       1.802  16.079  19.253  0.00  0.00    +0.000 A 
ATOM     21  C   UNL     1       2.852  16.987  19.071  0.00  0.00    +0.000 A 
ATOM     22  C   UNL     1       3.957  16.562  18.329  0.00  0.00    +0.000 A 
ATOM     23  C   UNL     1       4.011  15.276  17.798  0.00  0.00    +0.000 A 
ATOM     24  C   UNL     1       2.953  14.380  17.992  0.00  0.00    +0.000 A 
ATOM     25  C   UNL     1       1.820  14.783  18.730  0.00  0.00    +0.000 A 
ATOM     26  H   UNL     1       0.337  17.067  20.416  0.00  0.00    +0.000 HD
ENDBRANCH   5  17
BRANCH   1  30
ATOM     27  C   UNL     1       2.895   6.925  18.985  0.00  0.00    +0.000 A 
ATOM     28  C   UNL     1       2.946   7.687  17.823  0.00  0.00    +0.000 A 
ATOM     29  C   UNL     1       2.143   8.827  17.707  0.00  0.00    +0.000 A 
ATOM     30  C   UNL     1       1.265   9.219  18.735  0.00  0.00    +0.000 A 
ATOM     31  C   UNL     1       1.229   8.422  19.897  0.00  0.00    +0.000 A 
ATOM     32  C   UNL     1       2.043   7.294  20.023  0.00  0.00    +0.000 A 
BRANCH  27  33
ATOM     33  O   UNL     1       3.676   5.814  19.121  0.00  0.00    +0.000 OA
ATOM     34  H   UNL     1       4.493   5.938  18.616  0.00  0.00    +0.000 HD
ENDBRANCH  27  33
BRANCH  32  35
ATOM     35  O   UNL     1       2.011   6.545  21.165  0.00  0.00    +0.000 OA
ATOM     36  H   UNL     1       1.129   6.605  21.562  0.00  0.00    +0.000 HD
ENDBRANCH  32  35
ENDBRANCH   1  30
TORSDOF 5
ENDMDL
MODEL 4
REMARK VINA RESULT:      -8.6      2.971      7.905
REMARK  Name = 
REMARK  5 active torsions:
REMARK  status: ('A' for Active; 'I' for Inactive)
REMARK    1  A    between atoms: O_1  and  C_2
REMARK    2  A    between atoms: C_5  and  C_6
REMARK    3  A    between atoms: C_8  and  C_9
REMARK    4  A    between atoms: C_19  and  C_20
REMARK    5  A    between atoms: C_31  and  O_32
REMARK                            x       y       z     vdW  Elec       q    Type
REMARK                         _______ _______ _______ _____ _____    ______ ____
ROOT
ATOM      1  C   UNL     1       0.399  10.469  18.628  0.00  0.00    +0.000 A 
ATOM      2  C   UNL     1       0.895  11.750  18.895  0.00  0.00    +0.000 A 
ATOM      3  C   UNL     1       0.067  12.862  18.760  0.00  0.00    +0.000 A 
ATOM      4  N   UNL     1      -1.226  12.764  18.381  0.00  0.00    +0.000 NA
ATOM      5  C   UNL     1      -1.717  11.533  18.125  0.00  0.00    +0.000 A 
ATOM      6  C   UNL     1      -0.942  10.381  18.234  0.00  0.00    +0.000 A 
ENDROOT
BRANCH   3   7
ATOM      7  C   UNL     1       0.561  14.210  19.022  0.00  0.00    +0.000 A 
ATOM      8  C   UNL     1      -0.168  15.184  19.682  0.00  0.00    +0.000 A 
ATOM      9  N   UNL     1       0.600  16.315  19.767  0.00  0.00    +0.000 N 
ATOM     10  C   UNL     1       1.818  16.110  19.165  0.00  0.00    +0.000 A 
ATOM     11  C   UNL     1       2.902  16.983  19.012  0.00  0.00    +0.000 A 
ATOM     12  C   UNL     1       4.031  16.502  18.343  0.00  0.00    +0.000 A 
ATOM     13  C   UNL     1       4.074  15.200  17.853  0.00  0.00    +0.000 A 
ATOM     14  C   UNL     1       2.983  14.339  18.022  0.00  0.00    +0.000 A 
ATOM     15  C   UNL     1       1.827  14.796  18.692  0.00  0.00    +0.000 A 
ATOM     16  H   UNL     1       0.320  17.180  20.207  0.00  0.00    +0.000 HD
ENDBRANCH   3   7
BRANCH   5  17
ATOM     17  C   UNL     1      -3.115  11.462  17.708  0.00  0.00    +0.000 A 
ATOM     18  C   UNL     1      -3.522  11.060  16.447  0.00  0.00    +0.000 A 
ATOM     19  N   UNL     1      -4.888  11.122  16.392  0.00  0.00    +0.000 N 
ATOM     20  C   UNL     1      -5.393  11.566  17.590  0.00  0.00    +0.000 A 
ATOM     21  C   UNL     1      -6.719  11.795  17.976  0.00  0.00    +0.000 A 
ATOM     22  C   UNL     1      -6.947  12.254  19.277  0.00  0.00    +0.000 A 
ATOM     23  C   UNL     1      -5.889  12.467  20.156  0.00  0.00    +0.000 A 
ATOM     24  C   UNL     1      -4.569  12.229  19.754  0.00  0.00    +0.000 A 
ATOM     25  C   UNL     1      -4.307  11.773  18.445  0.00  0.00    +0.000 A 
ATOM     26  H   UNL     1      -5.452  10.880  15.590  0.00  0.00    +0.000 HD
ENDBRANCH   5  17
BRANCH   1  30
ATOM     27  C   UNL     1       2.880   6.968  18.990  0.00  0.00    +0.000 A 
ATOM     28  C   UNL     1       2.930   7.734  17.831  0.00  0.00    +0.000 A 
ATOM     29  C   UNL     1       2.127   8.875  17.721  0.00  0.00    +0.000 A 
ATOM     30  C   UNL     1       1.249   9.262  18.751  0.00  0.00    +0.000 A 
ATOM     31  C   UNL     1       1.215   8.460  19.909  0.00  0.00    +0.000 A 
ATOM     32  C   UNL     1       2.029   7.333  20.031  0.00  0.00    +0.000 A 
BRANCH  27  33
ATOM     33  O   UNL     1       3.662   5.857  19.121  0.00  0.00    +0.000 OA
ATOM     34  H   UNL     1       3.927   5.762  20.048  0.00  0.00    +0.000 HD
ENDBRANCH  27  33
BRANCH  32  35
ATOM     35  O   UNL     1       1.999   6.579  21.169  0.00  0.00    +0.000 OA
ATOM     36  H   UNL     1       1.100   6.247  21.309  0.00  0.00    +0.000 HD
ENDBRANCH  32  35
ENDBRANCH   1  30
TORSDOF 5
ENDMDL
MODEL 5
REMARK VINA RESULT:      -8.5      0.479      1.182
REMARK  Name = 
REMARK  5 active torsions:
REMARK  status: ('A' for Active; 'I' for Inactive)
REMARK    1  A    between atoms: O_1  and  C_2
REMARK    2  A    between atoms: C_5  and  C_6
REMARK    3  A    between atoms: C_8  and  C_9
REMARK    4  A    between atoms: C_19  and  C_20
REMARK    5  A    between atoms: C_31  and  O_32
REMARK                            x       y       z     vdW  Elec       q    Type
REMARK                         _______ _______ _______ _____ _____    ______ ____
ROOT
ATOM      1  C   UNL     1       0.841  12.670  18.715  0.00  0.00    +0.000 A 
ATOM      2  C   UNL     1      -0.487  12.650  18.274  0.00  0.00    +0.000 A 
ATOM      3  C   UNL     1      -1.217  11.464  18.309  0.00  0.00    +0.000 A 
ATOM      4  N   UNL     1      -0.697  10.303  18.764  0.00  0.00    +0.000 NA
ATOM      5  C   UNL     1       0.581  10.311  19.197  0.00  0.00    +0.000 A 
ATOM      6  C   UNL     1       1.368  11.460  19.183  0.00  0.00    +0.000 A 
ENDROOT
BRANCH   3   7
ATOM      7  C   UNL     1      -2.600  11.413  17.845  0.00  0.00    +0.000 A 
ATOM      8  C   UNL     1      -2.980  10.941  16.600  0.00  0.00    +0.000 A 
ATOM      9  N   UNL     1      -4.344  11.022  16.505  0.00  0.00    +0.000 N 
ATOM     10  C   UNL     1      -4.871  11.550  17.659  0.00  0.00    +0.000 A 
ATOM     11  C   UNL     1      -6.203  11.817  17.998  0.00  0.00    +0.000 A 
ATOM     12  C   UNL     1      -6.454  12.368  19.258  0.00  0.00    +0.000 A 
ATOM     13  C   UNL     1      -5.413  12.636  20.143  0.00  0.00    +0.000 A 
ATOM     14  C   UNL     1      -4.088  12.356  19.789  0.00  0.00    +0.000 A 
ATOM     15  C   UNL     1      -3.803  11.802  18.522  0.00  0.00    +0.000 A 
ATOM     16  H   UNL     1      -4.892  10.737  15.706  0.00  0.00    +0.000 HD
ENDBRANCH   3   7
BRANCH   5  17
ATOM     17  C   UNL     1       1.117   9.038  19.674  0.00  0.00    +0.000 A 
ATOM     18  C   UNL     1       0.809   8.489  20.907  0.00  0.00    +0.000 A 
ATOM     19  N   UNL     1       1.487   7.307  21.036  0.00  0.00    +0.000 N 
ATOM     20  C   UNL     1       2.246   7.069  19.916  0.00  0.00    +0.000 A 
ATOM     21  C   UNL     1       3.103   6.001  19.622  0.00  0.00    +0.000 A 
ATOM     22  C   UNL     1       3.758   6.015  18.388  0.00  0.00    +0.000 A 
ATOM     23  C   UNL     1       3.557   7.054  17.482  0.00  0.00    +0.000 A 
ATOM     24  C   UNL     1       2.693   8.112  17.792  0.00  0.00    +0.000 A 
ATOM     25  C   UNL     1       2.023   8.129  19.033  0.00  0.00    +0.000 A 
ATOM     26  H   UNL     1       1.444   6.694  21.838  0.00  0.00    +0.000 HD
ENDBRANCH   5  17
BRANCH   1  30
ATOM     27  C   UNL     1       3.201  16.270  18.619  0.00  0.00    +0.000 A 
ATOM     28  C   UNL     1       3.768  15.061  18.233  0.00  0.00    +0.000 A 
ATOM     29  C   UNL     1       2.995  13.895  18.259  0.00  0.00    +0.000 A 
ATOM     30  C   UNL     1       1.654  13.908  18.686  0.00  0.00    +0.000 A 
ATOM     31  C   UNL     1       1.111  15.147  19.081  0.00  0.00    +0.000 A 
ATOM     32  C   UNL     1       1.873  16.316  19.037  0.00  0.00    +0.000 A 
BRANCH  27  33
ATOM     33  O   UNL     1       3.936  17.420  18.593  0.00  0.00    +0.000 OA
ATOM     34  H   UNL     1       4.270  17.562  17.695  0.00  0.00    +0.000 HD
ENDBRANCH  27  33
BRANCH  32  35
ATOM     35  O   UNL     1       1.324  17.512  19.402  0.00  0.00    +0.000 OA
ATOM     36  H   UNL     1       0.753  17.380  20.173  0.00  0.00    +0.000 HD
ENDBRANCH  32  35
ENDBRANCH   1  30
TORSDOF 5
ENDMDL
MODEL 6
REMARK VINA RESULT:      -8.5      4.260      6.441
REMARK  Name = 
REMARK  5 active torsions:
REMARK  status: ('A' for Active; 'I' for Inactive)
REMARK    1  A    between atoms: O_1  and  C_2
REMARK    2  A    between atoms: C_5  and  C_6
REMARK    3  A    between atoms: C_8  and  C_9
REMARK    4  A    between atoms: C_19  and  C_20
REMARK    5  A    between atoms: C_31  and  O_32
REMARK                            x       y       z     vdW  Elec       q    Type
REMARK                         _______ _______ _______ _____ _____    ______ ____
ROOT
ATOM      1  C   UNL     1      -1.455  12.905  21.691  0.00  0.00    +0.000 A 
ATOM      2  C   UNL     1      -0.725  13.890  21.018  0.00  0.00    +0.000 A 
ATOM      3  C   UNL     1       0.464  13.559  20.370  0.00  0.00    +0.000 A 
ATOM      4  N   UNL     1       0.956  12.301  20.352  0.00  0.00    +0.000 NA
ATOM      5  C   UNL     1       0.257  11.341  20.993  0.00  0.00    +0.000 A 
ATOM      6  C   UNL     1      -0.933  11.605  21.666  0.00  0.00    +0.000 A 
ENDROOT
BRANCH   3   7
ATOM      7  C   UNL     1       1.250  14.570  19.670  0.00  0.00    +0.000 A 
ATOM      8  C   UNL     1       2.634  14.582  19.634  0.00  0.00    +0.000 A 
ATOM      9  N   UNL     1       3.037  15.653  18.881  0.00  0.00    +0.000 N 
ATOM     10  C   UNL     1       1.946  16.356  18.430  0.00  0.00    +0.000 A 
ATOM     11  C   UNL     1       1.885  17.512  17.643  0.00  0.00    +0.000 A 
ATOM     12  C   UNL     1       0.621  18.021  17.335  0.00  0.00    +0.000 A 
ATOM     13  C   UNL     1      -0.535  17.395  17.794  0.00  0.00    +0.000 A 
ATOM     14  C   UNL     1      -0.455  16.236  18.575  0.00  0.00    +0.000 A 
ATOM     15  C   UNL     1       0.809  15.699  18.905  0.00  0.00    +0.000 A 
ATOM     16  H   UNL     1       3.996  15.899  18.681  0.00  0.00    +0.000 HD
ENDBRANCH   3   7
BRANCH   5  17
ATOM     17  C   UNL     1       0.821   9.994  20.963  0.00  0.00    +0.000 A 
ATOM     18  C   UNL     1       0.976   9.200  22.087  0.00  0.00    +0.000 A 
ATOM     19  N   UNL     1       1.542   8.013  21.704  0.00  0.00    +0.000 N 
ATOM     20  C   UNL     1       1.773   8.011  20.350  0.00  0.00    +0.000 A 
ATOM     21  C   UNL     1       2.346   7.024  19.538  0.00  0.00    +0.000 A 
ATOM     22  C   UNL     1       2.461   7.294  18.172  0.00  0.00    +0.000 A 
ATOM     23  C   UNL     1       2.013   8.500  17.640  0.00  0.00    +0.000 A 
ATOM     24  C   UNL     1       1.439   9.474  18.466  0.00  0.00    +0.000 A 
ATOM     25  C   UNL     1       1.317   9.234  19.851  0.00  0.00    +0.000 A 
ATOM     26  H   UNL     1       1.763   7.246  22.323  0.00  0.00    +0.000 HD
ENDBRANCH   5  17
BRANCH   1  30
ATOM     27  C   UNL     1      -5.132  13.807  23.741  0.00  0.00    +0.000 A 
ATOM     28  C   UNL     1      -4.660  14.668  22.759  0.00  0.00    +0.000 A 
ATOM     29  C   UNL     1      -3.467  14.367  22.090  0.00  0.00    +0.000 A 
ATOM     30  C   UNL     1      -2.718  13.217  22.400  0.00  0.00    +0.000 A 
ATOM     31  C   UNL     1      -3.218  12.368  23.407  0.00  0.00    +0.000 A 
ATOM     32  C   UNL     1      -4.417  12.655  24.062  0.00  0.00    +0.000 A 
BRANCH  27  33
ATOM     33  O   UNL     1      -6.297  14.078  24.399  0.00  0.00    +0.000 OA
ATOM     34  H   UNL     1      -6.947  13.390  24.191  0.00  0.00    +0.000 HD
ENDBRANCH  27  33
BRANCH  32  35
ATOM     35  O   UNL     1      -4.899  11.810  25.021  0.00  0.00    +0.000 OA
ATOM     36  H   UNL     1      -4.172  11.532  25.597  0.00  0.00    +0.000 HD
ENDBRANCH  32  35
ENDBRANCH   1  30
TORSDOF 5
ENDMDL
MODEL 7
REMARK VINA RESULT:      -8.5      3.232      7.713
REMARK  Name = 
REMARK  5 active torsions:
REMARK  status: ('A' for Active; 'I' for Inactive)
REMARK    1  A    between atoms: O_1  and  C_2
REMARK    2  A    between atoms: C_5  and  C_6
REMARK    3  A    between atoms: C_8  and  C_9
REMARK    4  A    between atoms: C_19  and  C_20
REMARK    5  A    between atoms: C_31  and  O_32
REMARK                            x       y       z     vdW  Elec       q    Type
REMARK                         _______ _______ _______ _____ _____    ______ ____
ROOT
ATOM      1  C   UNL     1      -1.411  11.530  19.094  0.00  0.00    +0.000 A 
ATOM      2  C   UNL     1      -0.805  10.289  19.314  0.00  0.00    +0.000 A 
ATOM      3  C   UNL     1       0.494  10.225  19.816  0.00  0.00    +0.000 A 
ATOM      4  N   UNL     1       1.213  11.329  20.116  0.00  0.00    +0.000 NA
ATOM      5  C   UNL     1       0.636  12.532  19.912  0.00  0.00    +0.000 A 
ATOM      6  C   UNL     1      -0.655  12.666  19.406  0.00  0.00    +0.000 A 
ENDROOT
BRANCH   3   7
ATOM      7  C   UNL     1       1.154   8.944  20.045  0.00  0.00    +0.000 A 
ATOM      8  C   UNL     1       1.025   8.207  21.211  0.00  0.00    +0.000 A 
ATOM      9  N   UNL     1       1.761   7.060  21.080  0.00  0.00    +0.000 N 
ATOM     10  C   UNL     1       2.384   7.030  19.855  0.00  0.00    +0.000 A 
ATOM     11  C   UNL     1       3.232   6.063  19.302  0.00  0.00    +0.000 A 
ATOM     12  C   UNL     1       3.732   6.297  18.018  0.00  0.00    +0.000 A 
ATOM     13  C   UNL     1       3.393   7.451  17.317  0.00  0.00    +0.000 A 
ATOM     14  C   UNL     1       2.539   8.404  17.883  0.00  0.00    +0.000 A 
ATOM     15  C   UNL     1       2.019   8.196  19.180  0.00  0.00    +0.000 A 
ATOM     16  H   UNL     1       1.841   6.334  21.778  0.00  0.00    +0.000 HD
ENDBRANCH   3   7
BRANCH   5  17
ATOM     17  C   UNL     1       1.443  13.705  20.237  0.00  0.00    +0.000 A 
ATOM     18  C   UNL     1       1.470  14.298  21.488  0.00  0.00    +0.000 A 
ATOM     19  N   UNL     1       2.314  15.374  21.440  0.00  0.00    +0.000 N 
ATOM     20  C   UNL     1       2.839  15.511  20.178  0.00  0.00    +0.000 A 
ATOM     21  C   UNL     1       3.724  16.471  19.673  0.00  0.00    +0.000 A 
ATOM     22  C   UNL     1       4.097  16.368  18.330  0.00  0.00    +0.000 A 
ATOM     23  C   UNL     1       3.607  15.340  17.528  0.00  0.00    +0.000 A 
ATOM     24  C   UNL     1       2.725  14.387  18.051  0.00  0.00    +0.000 A 
ATOM     25  C   UNL     1       2.325  14.469  19.401  0.00  0.00    +0.000 A 
ATOM     26  H   UNL     1       2.524  15.986  22.215  0.00  0.00    +0.000 HD
ENDBRANCH   5  17
BRANCH   1  30
ATOM     27  C   UNL     1      -5.404  11.866  17.517  0.00  0.00    +0.000 A 
ATOM     28  C   UNL     1      -5.127  12.322  18.801  0.00  0.00    +0.000 A 
ATOM     29  C   UNL     1      -3.826  12.217  19.306  0.00  0.00    +0.000 A 
ATOM     30  C   UNL     1      -2.786  11.642  18.553  0.00  0.00    +0.000 A 
ATOM     31  C   UNL     1      -3.100  11.180  17.259  0.00  0.00    +0.000 A 
ATOM     32  C   UNL     1      -4.393  11.301  16.744  0.00  0.00    +0.000 A 
BRANCH  27  33
ATOM     33  O   UNL     1      -6.665  11.967  17.003  0.00  0.00    +0.000 OA
ATOM     34  H   UNL     1      -6.780  11.297  16.312  0.00  0.00    +0.000 HD
ENDBRANCH  27  33
BRANCH  32  35
ATOM     35  O   UNL     1      -4.675  10.868  15.480  0.00  0.00    +0.000 OA
ATOM     36  H   UNL     1      -5.491  11.291  15.172  0.00  0.00    +0.000 HD
ENDBRANCH  32  35
ENDBRANCH   1  30
TORSDOF 5
ENDMDL
MODEL 8
REMARK VINA RESULT:      -8.5      2.817      6.029
REMARK  Name = 
REMARK  5 active torsions:
REMARK  status: ('A' for Active; 'I' for Inactive)
REMARK    1  A    between atoms: O_1  and  C_2
REMARK    2  A    between atoms: C_5  and  C_6
REMARK    3  A    between atoms: C_8  and  C_9
REMARK    4  A    between atoms: C_19  and  C_20
REMARK    5  A    between atoms: C_31  and  O_32
REMARK                            x       y       z     vdW  Elec       q    Type
REMARK                         _______ _______ _______ _____ _____    ______ ____
ROOT
ATOM      1  C   UNL     1       0.305  10.421  18.825  0.00  0.00    +0.000 A 
ATOM      2  C   UNL     1      -1.024  10.348  18.393  0.00  0.00    +0.000 A 
ATOM      3  C   UNL     1      -1.727  11.515  18.100  0.00  0.00    +0.000 A 
ATOM      4  N   UNL     1      -1.176  12.743  18.206  0.00  0.00    +0.000 NA
ATOM      5  C   UNL     1       0.107  12.825  18.616  0.00  0.00    +0.000 A 
ATOM      6  C   UNL     1       0.864  11.700  18.933  0.00  0.00    +0.000 A 
ENDROOT
BRANCH   3   7
ATOM      7  C   UNL     1      -3.118  11.468  17.657  0.00  0.00    +0.000 A 
ATOM      8  C   UNL     1      -3.512  11.071  16.391  0.00  0.00    +0.000 A 
ATOM      9  N   UNL     1      -4.878  11.132  16.325  0.00  0.00    +0.000 N 
ATOM     10  C   UNL     1      -5.394  11.574  17.519  0.00  0.00    +0.000 A 
ATOM     11  C   UNL     1      -6.724  11.793  17.897  0.00  0.00    +0.000 A 
ATOM     12  C   UNL     1      -6.962  12.257  19.194  0.00  0.00    +0.000 A 
ATOM     13  C   UNL     1      -5.910  12.487  20.077  0.00  0.00    +0.000 A 
ATOM     14  C   UNL     1      -4.586  12.256  19.684  0.00  0.00    +0.000 A 
ATOM     15  C   UNL     1      -4.315  11.790  18.379  0.00  0.00    +0.000 A 
ATOM     16  H   UNL     1      -5.436  10.889  15.518  0.00  0.00    +0.000 HD
ENDBRANCH   3   7
BRANCH   5  17
ATOM     17  C   UNL     1       0.671  14.168  18.730  0.00  0.00    +0.000 A 
ATOM     18  C   UNL     1      -0.074  15.290  19.055  0.00  0.00    +0.000 A 
ATOM     19  N   UNL     1       0.760  16.375  19.062  0.00  0.00    +0.000 N 
ATOM     20  C   UNL     1       2.040  15.995  18.739  0.00  0.00    +0.000 A 
ATOM     21  C   UNL     1       3.201  16.768  18.612  0.00  0.00    +0.000 A 
ATOM     22  C   UNL     1       4.384  16.109  18.267  0.00  0.00    +0.000 A 
ATOM     23  C   UNL     1       4.404  14.731  18.066  0.00  0.00    +0.000 A 
ATOM     24  C   UNL     1       3.234  13.974  18.201  0.00  0.00    +0.000 A 
ATOM     25  C   UNL     1       2.022  14.612  18.541  0.00  0.00    +0.000 A 
ATOM     26  H   UNL     1       0.481  17.323  19.271  0.00  0.00    +0.000 HD
ENDBRANCH   5  17
BRANCH   1  30
ATOM     27  C   UNL     1       2.562   6.882  19.786  0.00  0.00    +0.000 A 
ATOM     28  C   UNL     1       1.792   7.497  20.765  0.00  0.00    +0.000 A 
ATOM     29  C   UNL     1       1.055   8.644  20.446  0.00  0.00    +0.000 A 
ATOM     30  C   UNL     1       1.085   9.206  19.156  0.00  0.00    +0.000 A 
ATOM     31  C   UNL     1       1.883   8.564  18.188  0.00  0.00    +0.000 A 
ATOM     32  C   UNL     1       2.604   7.409  18.497  0.00  0.00    +0.000 A 
BRANCH  27  33
ATOM     33  O   UNL     1       3.281   5.758  20.074  0.00  0.00    +0.000 OA
ATOM     34  H   UNL     1       4.209   6.002  20.211  0.00  0.00    +0.000 HD
ENDBRANCH  27  33
BRANCH  32  35
ATOM     35  O   UNL     1       3.354   6.787  17.540  0.00  0.00    +0.000 OA
ATOM     36  H   UNL     1       3.000   5.899  17.383  0.00  0.00    +0.000 HD
ENDBRANCH  32  35
ENDBRANCH   1  30
TORSDOF 5
ENDMDL
MODEL 9
REMARK VINA RESULT:      -8.5      0.530      6.814
REMARK  Name = 
REMARK  5 active torsions:
REMARK  status: ('A' for Active; 'I' for Inactive)
REMARK    1  A    between atoms: O_1  and  C_2
REMARK    2  A    between atoms: C_5  and  C_6
REMARK    3  A    between atoms: C_8  and  C_9
REMARK    4  A    between atoms: C_19  and  C_20
REMARK    5  A    between atoms: C_31  and  O_32
REMARK                            x       y       z     vdW  Elec       q    Type
REMARK                         _______ _______ _______ _____ _____    ______ ____
ROOT
ATOM      1  C   UNL     1       0.700  12.683  18.694  0.00  0.00    +0.000 A 
ATOM      2  C   UNL     1       1.264  11.492  19.165  0.00  0.00    +0.000 A 
ATOM      3  C   UNL     1       0.517  10.316  19.160  0.00  0.00    +0.000 A 
ATOM      4  N   UNL     1      -0.754  10.263  18.705  0.00  0.00    +0.000 NA
ATOM      5  C   UNL     1      -1.306  11.405  18.243  0.00  0.00    +0.000 A 
ATOM      6  C   UNL     1      -0.618  12.615  18.226  0.00  0.00    +0.000 A 
ENDROOT
BRANCH   3   7
ATOM      7  C   UNL     1       1.077   9.063  19.656  0.00  0.00    +0.000 A 
ATOM      8  C   UNL     1       0.772   8.516  20.891  0.00  0.00    +0.000 A 
ATOM      9  N   UNL     1       1.457   7.338  21.023  0.00  0.00    +0.000 N 
ATOM     10  C   UNL     1       2.220   7.102  19.904  0.00  0.00    +0.000 A 
ATOM     11  C   UNL     1       3.076   6.034  19.610  0.00  0.00    +0.000 A 
ATOM     12  C   UNL     1       3.738   6.054  18.379  0.00  0.00    +0.000 A 
ATOM     13  C   UNL     1       3.546   7.099  17.479  0.00  0.00    +0.000 A 
ATOM     14  C   UNL     1       2.681   8.156  17.788  0.00  0.00    +0.000 A 
ATOM     15  C   UNL     1       2.000   8.164  19.025  0.00  0.00    +0.000 A 
ATOM     16  H   UNL     1       1.415   6.724  21.824  0.00  0.00    +0.000 HD
ENDBRANCH   3   7
BRANCH   5  17
ATOM     17  C   UNL     1      -2.684  11.316  17.767  0.00  0.00    +0.000 A 
ATOM     18  C   UNL     1      -3.039  10.809  16.528  0.00  0.00    +0.000 A 
ATOM     19  N   UNL     1      -4.400  10.885  16.402  0.00  0.00    +0.000 N 
ATOM     20  C   UNL     1      -4.952  11.442  17.530  0.00  0.00    +0.000 A 
ATOM     21  C   UNL     1      -6.290  11.724  17.829  0.00  0.00    +0.000 A 
ATOM     22  C   UNL     1      -6.570  12.301  19.071  0.00  0.00    +0.000 A 
ATOM     23  C   UNL     1      -5.550  12.578  19.978  0.00  0.00    +0.000 A 
ATOM     24  C   UNL     1      -4.218  12.286  19.663  0.00  0.00    +0.000 A 
ATOM     25  C   UNL     1      -3.903  11.710  18.414  0.00  0.00    +0.000 A 
ATOM     26  H   UNL     1      -4.929  10.580  15.598  0.00  0.00    +0.000 HD
ENDBRANCH   5  17
BRANCH   1  30
ATOM     27  C   UNL     1       2.898  16.386  18.672  0.00  0.00    +0.000 A 
ATOM     28  C   UNL     1       3.510  15.217  18.238  0.00  0.00    +0.000 A 
ATOM     29  C   UNL     1       2.790  14.017  18.240  0.00  0.00    +0.000 A 
ATOM     30  C   UNL     1       1.457  13.956  18.691  0.00  0.00    +0.000 A 
ATOM     31  C   UNL     1       0.867  15.157  19.133  0.00  0.00    +0.000 A 
ATOM     32  C   UNL     1       1.577  16.360  19.114  0.00  0.00    +0.000 A 
BRANCH  27  33
ATOM     33  O   UNL     1       3.580  17.568  18.670  0.00  0.00    +0.000 OA
ATOM     34  H   UNL     1       3.096  18.213  18.133  0.00  0.00    +0.000 HD
ENDBRANCH  27  33
BRANCH  32  35
ATOM     35  O   UNL     1       0.982  17.518  19.526  0.00  0.00    +0.000 OA
ATOM     36  H   UNL     1       1.428  18.272  19.111  0.00  0.00    +0.000 HD
ENDBRANCH  32  35
ENDBRANCH   1  30
TORSDOF 5
ENDMDL
