MODEL 1
REMARK VINA RESULT:      -7.9      0.000      0.000
REMARK  Name = 
REMARK  7 active torsions:
REMARK  status: ('A' for Active; 'I' for Inactive)
REMARK    1  A    between atoms: C_1  and  O_2
REMARK    2  A    between atoms: O_2  and  C_3
REMARK    3  A    between atoms: C_5  and  C_6
REMARK    4  A    between atoms: C_7  and  C_8
REMARK    5  A    between atoms: C_8  and  O_10
REMARK    6  A    between atoms: O_10  and  N_11
REMARK    7  A    between atoms: C_12  and  C_13
REMARK                            x       y       z     vdW  Elec       q    Type
REMARK                         _______ _______ _______ _____ _____    ______ ____
ROOT
ATOM      1  C   UNL     1       8.856   9.523  18.942  0.00  0.00    +0.000 C 
ATOM      2  C   UNL     1       8.271   8.973  17.864  0.00  0.00    +0.000 C 
ENDROOT
BRANCH   1   5
ATOM      3  C   UNL     1      10.133  12.835  20.286  0.00  0.00    +0.000 A 
ATOM      4  C   UNL     1       9.528  11.570  20.185  0.00  0.00    +0.000 A 
ATOM      5  C   UNL     1       9.474  10.860  18.963  0.00  0.00    +0.000 A 
ATOM      6  C   UNL     1      10.077  11.422  17.830  0.00  0.00    +0.000 A 
ATOM      7  C   UNL     1      10.674  12.663  17.951  0.00  0.00    +0.000 A 
ATOM      8  C   UNL     1      10.704  13.359  19.140  0.00  0.00    +0.000 A 
ATOM      9  O   UNL     1      11.353  14.549  19.001  0.00  0.00    +0.000 OA
ATOM     10  C   UNL     1      11.770  14.494  17.626  0.00  0.00    +0.000 C 
ATOM     11  O   UNL     1      11.300  13.322  16.937  0.00  0.00    +0.000 OA
BRANCH   3  13
ATOM     12  C   UNL     1       9.021  13.000  22.381  0.00  0.00    +0.000 C 
ATOM     13  O   UNL     1      10.091  13.394  21.532  0.00  0.00    +0.000 OA
ENDBRANCH   3  13
ENDBRANCH   1   5
BRANCH   2  14
ATOM     14  C   UNL     1       7.768   7.577  17.912  0.00  0.00    +0.000 C 
ATOM     15  O   UNL     1       8.122   6.734  18.719  0.00  0.00    +0.000 OA
BRANCH  14  16
ATOM     16  O   UNL     1       6.930   7.408  16.840  0.00  0.00    +0.000 OA
BRANCH  16  17
ATOM     17  N   UNL     1       5.669   7.005  17.314  0.00  0.00    +0.000 NA
ATOM     18  C   UNL     1       5.311   5.899  16.745  0.00  0.00    +0.000 C 
BRANCH  18  19
ATOM     19  C   UNL     1       4.120   5.154  17.204  0.00  0.00    +0.000 A 
ATOM     20  C   UNL     1       3.984   3.802  16.912  0.00  0.00    +0.000 A 
ATOM     21  C   UNL     1       2.797   3.169  17.265  0.00  0.00    +0.000 A 
ATOM     22  C   UNL     1       1.799   3.902  17.899  0.00  0.00    +0.000 A 
ATOM     23  C   UNL     1       2.031   5.245  18.156  0.00  0.00    +0.000 A 
ATOM     24  N   UNL     1       3.166   5.896  17.820  0.00  0.00    +0.000 NA
ENDBRANCH  18  19
ENDBRANCH  16  17
ENDBRANCH  14  16
ENDBRANCH   2  14
TORSDOF 6
ENDMDL
MODEL 2
REMARK VINA RESULT:      -7.7      1.498      2.812
REMARK  Name = 
REMARK  7 active torsions:
REMARK  status: ('A' for Active; 'I' for Inactive)
REMARK    1  A    between atoms: C_1  and  O_2
REMARK    2  A    between atoms: O_2  and  C_3
REMARK    3  A    between atoms: C_5  and  C_6
REMARK    4  A    between atoms: C_7  and  C_8
REMARK    5  A    between atoms: C_8  and  O_10
REMARK    6  A    between atoms: O_10  and  N_11
REMARK    7  A    between atoms: C_12  and  C_13
REMARK                            x       y       z     vdW  Elec       q    Type
REMARK                         _______ _______ _______ _____ _____    ______ ____
ROOT
ATOM      1  C   UNL     1       8.723   9.086  18.889  0.00  0.00    +0.000 C 
ATOM      2  C   UNL     1       8.139   8.786  17.716  0.00  0.00    +0.000 C 
ENDROOT
BRANCH   1   5
ATOM      3  C   UNL     1      10.911  12.153  18.424  0.00  0.00    +0.000 A 
ATOM      4  C   UNL     1      10.267  10.920  18.223  0.00  0.00    +0.000 A 
ATOM      5  C   UNL     1       9.390  10.366  19.184  0.00  0.00    +0.000 A 
ATOM      6  C   UNL     1       9.129  11.091  20.355  0.00  0.00    +0.000 A 
ATOM      7  C   UNL     1       9.765  12.306  20.531  0.00  0.00    +0.000 A 
ATOM      8  C   UNL     1      10.635  12.829  19.599  0.00  0.00    +0.000 A 
ATOM      9  O   UNL     1      11.124  14.036  20.002  0.00  0.00    +0.000 OA
ATOM     10  C   UNL     1      10.428  14.233  21.245  0.00  0.00    +0.000 C 
ATOM     11  O   UNL     1       9.600  13.116  21.613  0.00  0.00    +0.000 OA
BRANCH   3  13
ATOM     12  C   UNL     1      11.296  13.628  16.598  0.00  0.00    +0.000 C 
ATOM     13  O   UNL     1      11.736  12.544  17.407  0.00  0.00    +0.000 OA
ENDBRANCH   3  13
ENDBRANCH   1   5
BRANCH   2  14
ATOM     14  C   UNL     1       7.584   7.431  17.478  0.00  0.00    +0.000 C 
ATOM     15  O   UNL     1       6.927   7.105  16.504  0.00  0.00    +0.000 OA
BRANCH  14  16
ATOM     16  O   UNL     1       7.867   6.674  18.587  0.00  0.00    +0.000 OA
BRANCH  16  17
ATOM     17  N   UNL     1       7.279   5.406  18.429  0.00  0.00    +0.000 NA
ATOM     18  C   UNL     1       6.089   5.401  18.937  0.00  0.00    +0.000 C 
BRANCH  18  19
ATOM     19  C   UNL     1       5.177   4.256  18.734  0.00  0.00    +0.000 A 
ATOM     20  C   UNL     1       4.365   4.197  17.606  0.00  0.00    +0.000 A 
ATOM     21  C   UNL     1       3.443   3.161  17.512  0.00  0.00    +0.000 A 
ATOM     22  C   UNL     1       3.370   2.222  18.536  0.00  0.00    +0.000 A 
ATOM     23  C   UNL     1       4.227   2.359  19.619  0.00  0.00    +0.000 A 
ATOM     24  N   UNL     1       5.129   3.357  19.749  0.00  0.00    +0.000 NA
ENDBRANCH  18  19
ENDBRANCH  16  17
ENDBRANCH  14  16
ENDBRANCH   2  14
TORSDOF 6
ENDMDL
MODEL 3
REMARK VINA RESULT:      -7.7      1.212      1.337
REMARK  Name = 
REMARK  7 active torsions:
REMARK  status: ('A' for Active; 'I' for Inactive)
REMARK    1  A    between atoms: C_1  and  O_2
REMARK    2  A    between atoms: O_2  and  C_3
REMARK    3  A    between atoms: C_5  and  C_6
REMARK    4  A    between atoms: C_7  and  C_8
REMARK    5  A    between atoms: C_8  and  O_10
REMARK    6  A    between atoms: O_10  and  N_11
REMARK    7  A    between atoms: C_12  and  C_13
REMARK                            x       y       z     vdW  Elec       q    Type
REMARK                         _______ _______ _______ _____ _____    ______ ____
ROOT
ATOM      1  C   UNL     1       8.765   8.867  18.540  0.00  0.00    +0.000 C 
ATOM      2  C   UNL     1       7.758   8.535  17.714  0.00  0.00    +0.000 C 
ENDROOT
BRANCH   1   5
ATOM      3  C   UNL     1       9.560  11.963  20.588  0.00  0.00    +0.000 A 
ATOM      4  C   UNL     1       9.162  10.669  20.208  0.00  0.00    +0.000 A 
ATOM      5  C   UNL     1       9.161  10.251  18.858  0.00  0.00    +0.000 A 
ATOM      6  C   UNL     1       9.605  11.145  17.876  0.00  0.00    +0.000 A 
ATOM      7  C   UNL     1      10.001  12.410  18.268  0.00  0.00    +0.000 A 
ATOM      8  C   UNL     1       9.979  12.818  19.585  0.00  0.00    +0.000 A 
ATOM      9  O   UNL     1      10.420  14.101  19.713  0.00  0.00    +0.000 OA
ATOM     10  C   UNL     1      10.769  14.426  18.356  0.00  0.00    +0.000 C 
ATOM     11  O   UNL     1      10.459  13.375  17.424  0.00  0.00    +0.000 OA
BRANCH   3  13
ATOM     12  C   UNL     1       8.331  11.764  22.614  0.00  0.00    +0.000 C 
ATOM     13  O   UNL     1       9.493  12.215  21.929  0.00  0.00    +0.000 OA
ENDBRANCH   3  13
ENDBRANCH   1   5
BRANCH   2  14
ATOM     14  C   UNL     1       7.503   7.114  17.374  0.00  0.00    +0.000 C 
ATOM     15  O   UNL     1       7.731   6.601  16.291  0.00  0.00    +0.000 OA
BRANCH  14  16
ATOM     16  O   UNL     1       6.889   6.539  18.458  0.00  0.00    +0.000 OA
BRANCH  16  17
ATOM     17  N   UNL     1       5.659   5.997  18.044  0.00  0.00    +0.000 NA
ATOM     18  C   UNL     1       5.318   5.020  18.820  0.00  0.00    +0.000 C 
BRANCH  18  19
ATOM     19  C   UNL     1       3.979   4.403  18.729  0.00  0.00    +0.000 A 
ATOM     20  C   UNL     1       3.640   3.621  17.630  0.00  0.00    +0.000 A 
ATOM     21  C   UNL     1       2.334   3.154  17.532  0.00  0.00    +0.000 A 
ATOM     22  C   UNL     1       1.421   3.475  18.531  0.00  0.00    +0.000 A 
ATOM     23  C   UNL     1       1.855   4.255  19.594  0.00  0.00    +0.000 A 
ATOM     24  N   UNL     1       3.112   4.734  19.719  0.00  0.00    +0.000 NA
ENDBRANCH  18  19
ENDBRANCH  16  17
ENDBRANCH  14  16
ENDBRANCH   2  14
TORSDOF 6
ENDMDL
MODEL 4
REMARK VINA RESULT:      -7.7      1.437      1.701
REMARK  Name = 
REMARK  7 active torsions:
REMARK  status: ('A' for Active; 'I' for Inactive)
REMARK    1  A    between atoms: C_1  and  O_2
REMARK    2  A    between atoms: O_2  and  C_3
REMARK    3  A    between atoms: C_5  and  C_6
REMARK    4  A    between atoms: C_7  and  C_8
REMARK    5  A    between atoms: C_8  and  O_10
REMARK    6  A    between atoms: O_10  and  N_11
REMARK    7  A    between atoms: C_12  and  C_13
REMARK                            x       y       z     vdW  Elec       q    Type
REMARK                         _______ _______ _______ _____ _____    ______ ____
ROOT
ATOM      1  C   UNL     1       8.692   9.877  17.964  0.00  0.00    +0.000 C 
ATOM      2  C   UNL     1       8.572   8.668  18.539  0.00  0.00    +0.000 C 
ENDROOT
BRANCH   1   5
ATOM      3  C   UNL     1       9.883  12.272  20.658  0.00  0.00    +0.000 A 
ATOM      4  C   UNL     1       9.250  11.209  19.989  0.00  0.00    +0.000 A 
ATOM      5  C   UNL     1       9.352  11.036  18.590  0.00  0.00    +0.000 A 
ATOM      6  C   UNL     1      10.140  11.933  17.856  0.00  0.00    +0.000 A 
ATOM      7  C   UNL     1      10.761  12.967  18.531  0.00  0.00    +0.000 A 
ATOM      8  C   UNL     1      10.639  13.141  19.894  0.00  0.00    +0.000 A 
ATOM      9  O   UNL     1      11.349  14.225  20.318  0.00  0.00    +0.000 OA
ATOM     10  C   UNL     1      11.965  14.667  19.097  0.00  0.00    +0.000 C 
ATOM     11  O   UNL     1      11.558  13.904  17.948  0.00  0.00    +0.000 OA
BRANCH   3  13
ATOM     12  C   UNL     1       8.404  11.880  22.478  0.00  0.00    +0.000 C 
ATOM     13  O   UNL     1       9.677  12.306  22.008  0.00  0.00    +0.000 OA
ENDBRANCH   3  13
ENDBRANCH   1   5
BRANCH   2  14
ATOM     14  C   UNL     1       7.797   7.593  17.871  0.00  0.00    +0.000 C 
ATOM     15  O   UNL     1       7.131   7.736  16.859  0.00  0.00    +0.000 OA
BRANCH  14  16
ATOM     16  O   UNL     1       7.900   6.470  18.652  0.00  0.00    +0.000 OA
BRANCH  16  17
ATOM     17  N   UNL     1       7.088   5.463  18.101  0.00  0.00    +0.000 NA
ATOM     18  C   UNL     1       6.236   5.046  18.982  0.00  0.00    +0.000 C 
BRANCH  18  19
ATOM     19  C   UNL     1       5.137   4.131  18.609  0.00  0.00    +0.000 A 
ATOM     20  C   UNL     1       4.386   4.368  17.463  0.00  0.00    +0.000 A 
ATOM     21  C   UNL     1       3.292   3.547  17.212  0.00  0.00    +0.000 A 
ATOM     22  C   UNL     1       2.995   2.521  18.103  0.00  0.00    +0.000 A 
ATOM     23  C   UNL     1       3.808   2.357  19.215  0.00  0.00    +0.000 A 
ATOM     24  N   UNL     1       4.873   3.140  19.497  0.00  0.00    +0.000 NA
ENDBRANCH  18  19
ENDBRANCH  16  17
ENDBRANCH  14  16
ENDBRANCH   2  14
TORSDOF 6
ENDMDL
MODEL 5
REMARK VINA RESULT:      -7.7      3.260      9.859
REMARK  Name = 
REMARK  7 active torsions:
REMARK  status: ('A' for Active; 'I' for Inactive)
REMARK    1  A    between atoms: C_1  and  O_2
REMARK    2  A    between atoms: O_2  and  C_3
REMARK    3  A    between atoms: C_5  and  C_6
REMARK    4  A    between atoms: C_7  and  C_8
REMARK    5  A    between atoms: C_8  and  O_10
REMARK    6  A    between atoms: O_10  and  N_11
REMARK    7  A    between atoms: C_12  and  C_13
REMARK                            x       y       z     vdW  Elec       q    Type
REMARK                         _______ _______ _______ _____ _____    ______ ____
ROOT
ATOM      1  C   UNL     1       5.059   6.254  17.806  0.00  0.00    +0.000 C 
ATOM      2  C   UNL     1       6.350   5.993  18.076  0.00  0.00    +0.000 C 
ENDROOT
BRANCH   1   5
ATOM      3  C   UNL     1       2.025   5.465  19.947  0.00  0.00    +0.000 A 
ATOM      4  C   UNL     1       3.144   6.106  19.387  0.00  0.00    +0.000 A 
ATOM      5  C   UNL     1       3.922   5.506  18.370  0.00  0.00    +0.000 A 
ATOM      6  C   UNL     1       3.539   4.249  17.883  0.00  0.00    +0.000 A 
ATOM      7  C   UNL     1       2.432   3.637  18.440  0.00  0.00    +0.000 A 
ATOM      8  C   UNL     1       1.691   4.220  19.446  0.00  0.00    +0.000 A 
ATOM      9  O   UNL     1       0.650   3.423  19.818  0.00  0.00    +0.000 OA
ATOM     10  C   UNL     1       0.787   2.319  18.906  0.00  0.00    +0.000 C 
ATOM     11  O   UNL     1       1.945   2.423  18.060  0.00  0.00    +0.000 OA
BRANCH   3  13
ATOM     12  C   UNL     1       1.421   7.590  20.826  0.00  0.00    +0.000 C 
ATOM     13  O   UNL     1       1.388   6.172  20.927  0.00  0.00    +0.000 OA
ENDBRANCH   3  13
ENDBRANCH   1   5
BRANCH   2  14
ATOM     14  C   UNL     1       7.428   6.735  17.376  0.00  0.00    +0.000 C 
ATOM     15  O   UNL     1       7.743   6.576  16.209  0.00  0.00    +0.000 OA
BRANCH  14  16
ATOM     16  O   UNL     1       8.040   7.537  18.306  0.00  0.00    +0.000 OA
BRANCH  16  17
ATOM     17  N   UNL     1       8.197   8.823  17.758  0.00  0.00    +0.000 NA
ATOM     18  C   UNL     1       8.850   9.580  18.578  0.00  0.00    +0.000 C 
BRANCH  18  19
ATOM     19  C   UNL     1       9.322  10.920  18.170  0.00  0.00    +0.000 A 
ATOM     20  C   UNL     1      10.683  11.205  18.143  0.00  0.00    +0.000 A 
ATOM     21  C   UNL     1      11.076  12.509  17.862  0.00  0.00    +0.000 A 
ATOM     22  C   UNL     1      10.104  13.473  17.613  0.00  0.00    +0.000 A 
ATOM     23  C   UNL     1       8.771  13.091  17.656  0.00  0.00    +0.000 A 
ATOM     24  N   UNL     1       8.351  11.837  17.933  0.00  0.00    +0.000 NA
ENDBRANCH  18  19
ENDBRANCH  16  17
ENDBRANCH  14  16
ENDBRANCH   2  14
TORSDOF 6
ENDMDL
MODEL 6
REMARK VINA RESULT:      -7.6      1.886      2.850
REMARK  Name = 
REMARK  7 active torsions:
REMARK  status: ('A' for Active; 'I' for Inactive)
REMARK    1  A    between atoms: C_1  and  O_2
REMARK    2  A    between atoms: O_2  and  C_3
REMARK    3  A    between atoms: C_5  and  C_6
REMARK    4  A    between atoms: C_7  and  C_8
REMARK    5  A    between atoms: C_8  and  O_10
REMARK    6  A    between atoms: O_10  and  N_11
REMARK    7  A    between atoms: C_12  and  C_13
REMARK                            x       y       z     vdW  Elec       q    Type
REMARK                         _______ _______ _______ _____ _____    ______ ____
ROOT
ATOM      1  C   UNL     1       8.000   8.446  17.885  0.00  0.00    +0.000 C 
ATOM      2  C   UNL     1       8.259   7.309  18.554  0.00  0.00    +0.000 C 
ENDROOT
BRANCH   1   5
ATOM      3  C   UNL     1       8.506  12.208  17.875  0.00  0.00    +0.000 A 
ATOM      4  C   UNL     1       8.082  10.908  17.545  0.00  0.00    +0.000 A 
ATOM      5  C   UNL     1       8.516   9.772  18.266  0.00  0.00    +0.000 A 
ATOM      6  C   UNL     1       9.365   9.956  19.365  0.00  0.00    +0.000 A 
ATOM      7  C   UNL     1       9.765  11.241  19.680  0.00  0.00    +0.000 A 
ATOM      8  C   UNL     1       9.355  12.342  18.959  0.00  0.00    +0.000 A 
ATOM      9  O   UNL     1       9.880  13.491  19.470  0.00  0.00    +0.000 OA
ATOM     10  C   UNL     1      10.607  12.999  20.609  0.00  0.00    +0.000 C 
ATOM     11  O   UNL     1      10.580  11.565  20.721  0.00  0.00    +0.000 OA
BRANCH   3  13
ATOM     12  C   UNL     1       7.077  14.096  17.663  0.00  0.00    +0.000 C 
ATOM     13  O   UNL     1       8.007  13.196  17.075  0.00  0.00    +0.000 OA
ENDBRANCH   3  13
ENDBRANCH   1   5
BRANCH   2  14
ATOM     14  C   UNL     1       7.608   6.037  18.152  0.00  0.00    +0.000 C 
ATOM     15  O   UNL     1       7.445   5.668  17.001  0.00  0.00    +0.000 OA
BRANCH  14  16
ATOM     16  O   UNL     1       7.154   5.431  19.297  0.00  0.00    +0.000 OA
BRANCH  16  17
ATOM     17  N   UNL     1       6.088   4.578  18.962  0.00  0.00    +0.000 NA
ATOM     18  C   UNL     1       4.972   5.068  19.397  0.00  0.00    +0.000 C 
BRANCH  18  19
ATOM     19  C   UNL     1       3.675   4.472  19.013  0.00  0.00    +0.000 A 
ATOM     20  C   UNL     1       2.528   4.760  19.744  0.00  0.00    +0.000 A 
ATOM     21  C   UNL     1       1.354   4.091  19.416  0.00  0.00    +0.000 A 
ATOM     22  C   UNL     1       1.365   3.170  18.374  0.00  0.00    +0.000 A 
ATOM     23  C   UNL     1       2.557   2.956  17.697  0.00  0.00    +0.000 A 
ATOM     24  N   UNL     1       3.719   3.580  17.992  0.00  0.00    +0.000 NA
ENDBRANCH  18  19
ENDBRANCH  16  17
ENDBRANCH  14  16
ENDBRANCH   2  14
TORSDOF 6
ENDMDL
MODEL 7
REMARK VINA RESULT:      -7.6      1.547      2.147
REMARK  Name = 
REMARK  7 active torsions:
REMARK  status: ('A' for Active; 'I' for Inactive)
REMARK    1  A    between atoms: C_1  and  O_2
REMARK    2  A    between atoms: O_2  and  C_3
REMARK    3  A    between atoms: C_5  and  C_6
REMARK    4  A    between atoms: C_7  and  C_8
REMARK    5  A    between atoms: C_8  and  O_10
REMARK    6  A    between atoms: O_10  and  N_11
REMARK    7  A    between atoms: C_12  and  C_13
REMARK                            x       y       z     vdW  Elec       q    Type
REMARK                         _______ _______ _______ _____ _____    ______ ____
ROOT
ATOM      1  C   UNL     1       8.662   9.178  18.614  0.00  0.00    +0.000 C 
ATOM      2  C   UNL     1       7.870   8.609  17.689  0.00  0.00    +0.000 C 
ENDROOT
BRANCH   1   5
ATOM      3  C   UNL     1       8.759  12.889  17.820  0.00  0.00    +0.000 A 
ATOM      4  C   UNL     1       8.370  11.539  17.889  0.00  0.00    +0.000 A 
ATOM      5  C   UNL     1       9.153  10.566  18.551  0.00  0.00    +0.000 A 
ATOM      6  C   UNL     1      10.333  10.971  19.189  0.00  0.00    +0.000 A 
ATOM      7  C   UNL     1      10.695  12.303  19.118  0.00  0.00    +0.000 A 
ATOM      8  C   UNL     1       9.938  13.242  18.451  0.00  0.00    +0.000 A 
ATOM      9  O   UNL     1      10.503  14.480  18.531  0.00  0.00    +0.000 OA
ATOM     10  C   UNL     1      11.651  14.223  19.358  0.00  0.00    +0.000 C 
ATOM     11  O   UNL     1      11.809  12.834  19.694  0.00  0.00    +0.000 OA
BRANCH   3  13
ATOM     12  C   UNL     1       6.948  14.427  17.900  0.00  0.00    +0.000 C 
ATOM     13  O   UNL     1       7.901  13.701  17.134  0.00  0.00    +0.000 OA
ENDBRANCH   3  13
ENDBRANCH   1   5
BRANCH   2  14
ATOM     14  C   UNL     1       7.514   7.172  17.787  0.00  0.00    +0.000 C 
ATOM     15  O   UNL     1       8.035   6.372  18.548  0.00  0.00    +0.000 OA
BRANCH  14  16
ATOM     16  O   UNL     1       6.583   6.914  16.814  0.00  0.00    +0.000 OA
BRANCH  16  17
ATOM     17  N   UNL     1       5.408   6.445  17.428  0.00  0.00    +0.000 NA
ATOM     18  C   UNL     1       4.902   5.474  16.737  0.00  0.00    +0.000 C 
BRANCH  18  19
ATOM     19  C   UNL     1       3.776   4.672  17.259  0.00  0.00    +0.000 A 
ATOM     20  C   UNL     1       2.700   5.294  17.881  0.00  0.00    +0.000 A 
ATOM     21  C   UNL     1       1.718   4.494  18.456  0.00  0.00    +0.000 A 
ATOM     22  C   UNL     1       1.843   3.110  18.384  0.00  0.00    +0.000 A 
ATOM     23  C   UNL     1       2.949   2.581  17.735  0.00  0.00    +0.000 A 
ATOM     24  N   UNL     1       3.926   3.326  17.173  0.00  0.00    +0.000 NA
ENDBRANCH  18  19
ENDBRANCH  16  17
ENDBRANCH  14  16
ENDBRANCH   2  14
TORSDOF 6
ENDMDL
MODEL 8
REMARK VINA RESULT:      -7.5      1.866      2.063
REMARK  Name = 
REMARK  7 active torsions:
REMARK  status: ('A' for Active; 'I' for Inactive)
REMARK    1  A    between atoms: C_1  and  O_2
REMARK    2  A    between atoms: O_2  and  C_3
REMARK    3  A    between atoms: C_5  and  C_6
REMARK    4  A    between atoms: C_7  and  C_8
REMARK    5  A    between atoms: C_8  and  O_10
REMARK    6  A    between atoms: O_10  and  N_11
REMARK    7  A    between atoms: C_12  and  C_13
REMARK                            x       y       z     vdW  Elec       q    Type
REMARK                         _______ _______ _______ _____ _____    ______ ____
ROOT
ATOM      1  C   UNL     1       8.708   9.614  18.469  0.00  0.00    +0.000 C 
ATOM      2  C   UNL     1       8.046   8.814  17.616  0.00  0.00    +0.000 C 
ENDROOT
BRANCH   1   5
ATOM      3  C   UNL     1       8.661  13.356  17.826  0.00  0.00    +0.000 A 
ATOM      4  C   UNL     1       8.265  12.034  18.101  0.00  0.00    +0.000 A 
ATOM      5  C   UNL     1       9.191  10.967  18.138  0.00  0.00    +0.000 A 
ATOM      6  C   UNL     1      10.548  11.244  17.930  0.00  0.00    +0.000 A 
ATOM      7  C   UNL     1      10.920  12.550  17.670  0.00  0.00    +0.000 A 
ATOM      8  C   UNL     1      10.009  13.583  17.614  0.00  0.00    +0.000 A 
ATOM      9  O   UNL     1      10.623  14.770  17.348  0.00  0.00    +0.000 OA
ATOM     10  C   UNL     1      12.006  14.379  17.302  0.00  0.00    +0.000 C 
ATOM     11  O   UNL     1      12.200  12.962  17.456  0.00  0.00    +0.000 OA
BRANCH   3  13
ATOM     12  C   UNL     1       7.625  15.226  18.867  0.00  0.00    +0.000 C 
ATOM     13  O   UNL     1       7.646  14.269  17.815  0.00  0.00    +0.000 OA
ENDBRANCH   3  13
ENDBRANCH   1   5
BRANCH   2  14
ATOM     14  C   UNL     1       7.692   7.428  18.010  0.00  0.00    +0.000 C 
ATOM     15  O   UNL     1       8.307   6.750  18.817  0.00  0.00    +0.000 OA
BRANCH  14  16
ATOM     16  O   UNL     1       6.627   7.042  17.235  0.00  0.00    +0.000 OA
BRANCH  16  17
ATOM     17  N   UNL     1       6.307   5.708  17.541  0.00  0.00    +0.000 NA
ATOM     18  C   UNL     1       5.102   5.634  18.005  0.00  0.00    +0.000 C 
BRANCH  18  19
ATOM     19  C   UNL     1       4.445   4.328  18.221  0.00  0.00    +0.000 A 
ATOM     20  C   UNL     1       3.360   3.950  17.437  0.00  0.00    +0.000 A 
ATOM     21  C   UNL     1       2.704   2.764  17.750  0.00  0.00    +0.000 A 
ATOM     22  C   UNL     1       3.155   2.000  18.821  0.00  0.00    +0.000 A 
ATOM     23  C   UNL     1       4.251   2.456  19.540  0.00  0.00    +0.000 A 
ATOM     24  N   UNL     1       4.909   3.606  19.272  0.00  0.00    +0.000 NA
ENDBRANCH  18  19
ENDBRANCH  16  17
ENDBRANCH  14  16
ENDBRANCH   2  14
TORSDOF 6
ENDMDL
MODEL 9
REMARK VINA RESULT:      -7.5      6.474      7.846
REMARK  Name = 
REMARK  7 active torsions:
REMARK  status: ('A' for Active; 'I' for Inactive)
REMARK    1  A    between atoms: C_1  and  O_2
REMARK    2  A    between atoms: O_2  and  C_3
REMARK    3  A    between atoms: C_5  and  C_6
REMARK    4  A    between atoms: C_7  and  C_8
REMARK    5  A    between atoms: C_8  and  O_10
REMARK    6  A    between atoms: O_10  and  N_11
REMARK    7  A    between atoms: C_12  and  C_13
REMARK                            x       y       z     vdW  Elec       q    Type
REMARK                         _______ _______ _______ _____ _____    ______ ____
ROOT
ATOM      1  C   UNL     1       3.011   7.788  17.310  0.00  0.00    +0.000 C 
ATOM      2  C   UNL     1       4.072   7.005  17.574  0.00  0.00    +0.000 C 
ENDROOT
BRANCH   1   5
ATOM      3  C   UNL     1       0.470  10.120  18.895  0.00  0.00    +0.000 A 
ATOM      4  C   UNL     1       1.332   9.499  17.975  0.00  0.00    +0.000 A 
ATOM      5  C   UNL     1       2.160   8.412  18.339  0.00  0.00    +0.000 A 
ATOM      6  C   UNL     1       2.088   7.919  19.648  0.00  0.00    +0.000 A 
ATOM      7  C   UNL     1       1.228   8.537  20.537  0.00  0.00    +0.000 A 
ATOM      8  C   UNL     1       0.440   9.611  20.180  0.00  0.00    +0.000 A 
ATOM      9  O   UNL     1      -0.320  10.035  21.229  0.00  0.00    +0.000 OA
ATOM     10  C   UNL     1       0.033   9.085  22.249  0.00  0.00    +0.000 C 
ATOM     11  O   UNL     1       1.053   8.160  21.833  0.00  0.00    +0.000 OA
BRANCH   3  13
ATOM     12  C   UNL     1       0.183  12.475  18.727  0.00  0.00    +0.000 C 
ATOM     13  O   UNL     1      -0.254  11.163  18.391  0.00  0.00    +0.000 OA
ENDBRANCH   3  13
ENDBRANCH   1   5
BRANCH   2  14
ATOM     14  C   UNL     1       4.805   6.337  16.470  0.00  0.00    +0.000 C 
ATOM     15  O   UNL     1       5.131   6.871  15.423  0.00  0.00    +0.000 OA
BRANCH  14  16
ATOM     16  O   UNL     1       4.947   5.017  16.815  0.00  0.00    +0.000 OA
BRANCH  16  17
ATOM     17  N   UNL     1       3.786   4.600  17.490  0.00  0.00    +0.000 NA
ATOM     18  C   UNL     1       4.101   3.852  18.498  0.00  0.00    +0.000 C 
BRANCH  18  19
ATOM     19  C   UNL     1       3.086   3.440  19.490  0.00  0.00    +0.000 A 
ATOM     20  C   UNL     1       1.768   3.864  19.362  0.00  0.00    +0.000 A 
ATOM     21  C   UNL     1       0.873   3.546  20.378  0.00  0.00    +0.000 A 
ATOM     22  C   UNL     1       1.321   2.816  21.474  0.00  0.00    +0.000 A 
ATOM     23  C   UNL     1       2.654   2.430  21.508  0.00  0.00    +0.000 A 
ATOM     24  N   UNL     1       3.554   2.728  20.545  0.00  0.00    +0.000 NA
ENDBRANCH  18  19
ENDBRANCH  16  17
ENDBRANCH  14  16
ENDBRANCH   2  14
TORSDOF 6
ENDMDL
