MODEL 1
REMARK VINA RESULT:      -6.5      0.000      0.000
REMARK  Name = 
REMARK  9 active torsions:
REMARK  status: ('A' for Active; 'I' for Inactive)
REMARK    1  A    between atoms: C_1  and  N_2
REMARK    2  A    between atoms: N_2  and  C_3
REMARK    3  A    between atoms: N_2  and  C_4
REMARK    4  A    between atoms: C_4  and  C_5
REMARK    5  A    between atoms: N_7  and  C_8
REMARK    6  A    between atoms: C_11  and  N_12
REMARK    7  A    between atoms: C_16  and  C_17
REMARK    8  A    between atoms: C_17  and  O_19
REMARK    9  A    between atoms: N_21  and  C_22
REMARK                            x       y       z     vdW  Elec       q    Type
REMARK                         _______ _______ _______ _____ _____    ______ ____
ROOT
ATOM      1  C   UNL     1      -1.481  12.443  20.100  0.00  0.00    +0.000 A 
ATOM      2  C   UNL     1      -1.120  12.789  21.412  0.00  0.00    +0.000 A 
ATOM      3  F   UNL     1       0.178  12.974  21.721  0.00  0.00    +0.000 F 
ATOM      4  C   UNL     1      -2.054  13.010  22.442  0.00  0.00    +0.000 A 
ATOM      5  C   UNL     1      -3.427  12.908  22.132  0.00  0.00    +0.000 A 
ATOM      6  C   UNL     1      -4.452  13.130  23.189  0.00  0.00    +0.000 A 
ATOM      7  O   UNL     1      -4.149  13.377  24.358  0.00  0.00    +0.000 OA
ATOM      8  C   UNL     1      -5.880  13.006  22.835  0.00  0.00    +0.000 A 
ATOM      9  C   UNL     1      -6.171  12.650  21.576  0.00  0.00    +0.000 A 
ATOM     10  N   UNL     1      -5.259  12.430  20.564  0.00  0.00    +0.000 N 
ATOM     11  C   UNL     1      -3.858  12.548  20.839  0.00  0.00    +0.000 A 
ATOM     12  C   UNL     1      -2.867  12.325  19.862  0.00  0.00    +0.000 A 
ATOM     13  F   UNL     1      -3.255  11.946  18.629  0.00  0.00    +0.000 F 
ENDROOT
BRANCH   1  16
ATOM     14  C   UNL     1       1.315  10.717  18.567  0.00  0.00    +0.000 C 
ATOM     15  C   UNL     1      -0.217  10.950  18.501  0.00  0.00    +0.000 C 
ATOM     16  N   UNL     1      -0.555  12.261  19.085  0.00  0.00    +0.000 N 
ATOM     17  C   UNL     1       0.214  13.395  18.537  0.00  0.00    +0.000 C 
ATOM     18  C   UNL     1       1.727  13.090  18.588  0.00  0.00    +0.000 C 
ATOM     19  N   UNL     1       2.066  11.827  17.920  0.00  0.00    +0.000 NA
ATOM     20  H   UNL     1       3.064  11.621  18.008  0.00  0.00    +0.000 HD
BRANCH  14  21
ATOM     21  C   UNL     1       1.697   9.352  17.930  0.00  0.00    +0.000 C 
BRANCH  21  23
ATOM     22  C   UNL     1       1.545   8.335  20.142  0.00  0.00    +0.000 C 
ATOM     23  N   UNL     1       2.288   8.378  18.883  0.00  0.00    +0.000 NA
ATOM     24  C   UNL     1       2.323   7.042  18.283  0.00  0.00    +0.000 C 
ENDBRANCH  21  23
ENDBRANCH  14  21
ENDBRANCH   1  16
BRANCH   4  25
ATOM     25  N   UNL     1      -1.592  13.562  23.657  0.00  0.00    +0.000 N 
ATOM     26  H   UNL     1      -1.973  14.480  23.870  0.00  0.00    +0.000 HD
ATOM     27  H   UNL     1      -0.578  13.494  23.787  0.00  0.00    +0.000 HD
ENDBRANCH   4  25
BRANCH  10  28
ATOM     28  C   UNL     1      -5.745  11.921  19.259  0.00  0.00    +0.000 C 
ATOM     29  C   UNL     1      -7.160  11.510  18.939  0.00  0.00    +0.000 C 
ATOM     30  C   UNL     1      -6.626  12.794  18.395  0.00  0.00    +0.000 C 
ENDBRANCH  10  28
BRANCH   8  31
ATOM     31  C   UNL     1      -6.984  13.225  23.791  0.00  0.00    +0.000 C 
ATOM     32  O   UNL     1      -7.916  12.451  23.928  0.00  0.00    +0.000 OA
BRANCH  31  33
ATOM     33  O   UNL     1      -6.890  14.370  24.509  0.00  0.00    +0.000 OA
ATOM     34  H   UNL     1      -6.749  14.225  25.480  0.00  0.00    +0.000 HD
ENDBRANCH  31  33
ENDBRANCH   8  31
TORSDOF 7
ENDMDL
MODEL 2
REMARK VINA RESULT:      -6.1      6.114     10.013
REMARK  Name = 
REMARK  9 active torsions:
REMARK  status: ('A' for Active; 'I' for Inactive)
REMARK    1  A    between atoms: C_1  and  N_2
REMARK    2  A    between atoms: N_2  and  C_3
REMARK    3  A    between atoms: N_2  and  C_4
REMARK    4  A    between atoms: C_4  and  C_5
REMARK    5  A    between atoms: N_7  and  C_8
REMARK    6  A    between atoms: C_11  and  N_12
REMARK    7  A    between atoms: C_16  and  C_17
REMARK    8  A    between atoms: C_17  and  O_19
REMARK    9  A    between atoms: N_21  and  C_22
REMARK                            x       y       z     vdW  Elec       q    Type
REMARK                         _______ _______ _______ _____ _____    ______ ____
ROOT
ATOM      1  C   UNL     1       1.995   8.492  18.624  0.00  0.00    +0.000 A 
ATOM      2  C   UNL     1       1.531   7.976  19.845  0.00  0.00    +0.000 A 
ATOM      3  F   UNL     1       0.657   8.687  20.583  0.00  0.00    +0.000 F 
ATOM      4  C   UNL     1       1.890   6.706  20.337  0.00  0.00    +0.000 A 
ATOM      5  C   UNL     1       2.737   5.899  19.549  0.00  0.00    +0.000 A 
ATOM      6  C   UNL     1       3.146   4.550  20.030  0.00  0.00    +0.000 A 
ATOM      7  O   UNL     1       2.794   4.107  21.124  0.00  0.00    +0.000 OA
ATOM      8  C   UNL     1       4.042   3.734  19.186  0.00  0.00    +0.000 A 
ATOM      9  C   UNL     1       4.477   4.283  18.043  0.00  0.00    +0.000 A 
ATOM     10  N   UNL     1       4.130   5.527  17.557  0.00  0.00    +0.000 N 
ATOM     11  C   UNL     1       3.253   6.363  18.322  0.00  0.00    +0.000 A 
ATOM     12  C   UNL     1       2.865   7.650  17.899  0.00  0.00    +0.000 A 
ATOM     13  F   UNL     1       3.373   8.128  16.747  0.00  0.00    +0.000 F 
ENDROOT
BRANCH   1  16
ATOM     14  C   UNL     1       2.029  12.119  18.648  0.00  0.00    +0.000 C 
ATOM     15  C   UNL     1       2.536  10.854  17.906  0.00  0.00    +0.000 C 
ATOM     16  N   UNL     1       1.610   9.729  18.133  0.00  0.00    +0.000 N 
ATOM     17  C   UNL     1       0.194  10.029  17.839  0.00  0.00    +0.000 C 
ATOM     18  C   UNL     1      -0.242  11.319  18.568  0.00  0.00    +0.000 C 
ATOM     19  N   UNL     1       0.633  12.458  18.261  0.00  0.00    +0.000 NA
ATOM     20  H   UNL     1       0.355  13.288  18.791  0.00  0.00    +0.000 HD
BRANCH  14  21
ATOM     21  C   UNL     1       2.976  13.325  18.399  0.00  0.00    +0.000 C 
BRANCH  21  23
ATOM     22  C   UNL     1       2.289  15.471  19.335  0.00  0.00    +0.000 C 
ATOM     23  N   UNL     1       3.087  14.262  19.547  0.00  0.00    +0.000 NA
ATOM     24  C   UNL     1       2.664  13.599  20.782  0.00  0.00    +0.000 C 
ENDBRANCH  21  23
ENDBRANCH  14  21
ENDBRANCH   1  16
BRANCH   4  25
ATOM     25  N   UNL     1       1.196   6.204  21.460  0.00  0.00    +0.000 N 
ATOM     26  H   UNL     1       1.767   6.111  22.296  0.00  0.00    +0.000 HD
ATOM     27  H   UNL     1       0.618   5.383  21.259  0.00  0.00    +0.000 HD
ENDBRANCH   4  25
BRANCH  10  28
ATOM     28  C   UNL     1       4.799   6.032  16.335  0.00  0.00    +0.000 C 
ATOM     29  C   UNL     1       6.276   5.958  16.038  0.00  0.00    +0.000 C 
ATOM     30  C   UNL     1       5.333   5.053  15.314  0.00  0.00    +0.000 C 
ENDBRANCH  10  28
BRANCH   8  31
ATOM     31  C   UNL     1       4.496   2.376  19.547  0.00  0.00    +0.000 C 
ATOM     32  O   UNL     1       5.185   2.137  20.525  0.00  0.00    +0.000 OA
BRANCH  31  33
ATOM     33  O   UNL     1       4.095   1.402  18.696  0.00  0.00    +0.000 OA
ATOM     34  H   UNL     1       4.600   1.379  17.843  0.00  0.00    +0.000 HD
ENDBRANCH  31  33
ENDBRANCH   8  31
TORSDOF 7
ENDMDL
MODEL 3
REMARK VINA RESULT:      -6.0      3.708      7.675
REMARK  Name = 
REMARK  9 active torsions:
REMARK  status: ('A' for Active; 'I' for Inactive)
REMARK    1  A    between atoms: C_1  and  N_2
REMARK    2  A    between atoms: N_2  and  C_3
REMARK    3  A    between atoms: N_2  and  C_4
REMARK    4  A    between atoms: C_4  and  C_5
REMARK    5  A    between atoms: N_7  and  C_8
REMARK    6  A    between atoms: C_11  and  N_12
REMARK    7  A    between atoms: C_16  and  C_17
REMARK    8  A    between atoms: C_17  and  O_19
REMARK    9  A    between atoms: N_21  and  C_22
REMARK                            x       y       z     vdW  Elec       q    Type
REMARK                         _______ _______ _______ _____ _____    ______ ____
ROOT
ATOM      1  C   UNL     1      -3.894  12.794  20.828  0.00  0.00    +0.000 A 
ATOM      2  C   UNL     1      -2.889  12.722  21.806  0.00  0.00    +0.000 A 
ATOM      3  F   UNL     1      -3.128  13.193  23.046  0.00  0.00    +0.000 F 
ATOM      4  C   UNL     1      -1.631  12.128  21.585  0.00  0.00    +0.000 A 
ATOM      5  C   UNL     1      -1.379  11.549  20.324  0.00  0.00    +0.000 A 
ATOM      6  C   UNL     1      -0.062  10.912  20.043  0.00  0.00    +0.000 A 
ATOM      7  O   UNL     1       0.850  10.892  20.871  0.00  0.00    +0.000 OA
ATOM      8  C   UNL     1       0.175  10.324  18.709  0.00  0.00    +0.000 A 
ATOM      9  C   UNL     1      -0.806  10.441  17.804  0.00  0.00    +0.000 A 
ATOM     10  N   UNL     1      -2.040  11.023  18.015  0.00  0.00    +0.000 N 
ATOM     11  C   UNL     1      -2.337  11.601  19.292  0.00  0.00    +0.000 A 
ATOM     12  C   UNL     1      -3.568  12.225  19.578  0.00  0.00    +0.000 A 
ATOM     13  F   UNL     1      -4.485  12.317  18.596  0.00  0.00    +0.000 F 
ENDROOT
BRANCH   1  16
ATOM     14  C   UNL     1      -6.107  15.147  22.476  0.00  0.00    +0.000 C 
ATOM     15  C   UNL     1      -5.398  14.801  21.141  0.00  0.00    +0.000 C 
ATOM     16  N   UNL     1      -5.140  13.350  21.066  0.00  0.00    +0.000 N 
ATOM     17  C   UNL     1      -6.323  12.503  21.316  0.00  0.00    +0.000 C 
ATOM     18  C   UNL     1      -7.012  12.921  22.633  0.00  0.00    +0.000 C 
ATOM     19  N   UNL     1      -7.349  14.350  22.660  0.00  0.00    +0.000 NA
ATOM     20  H   UNL     1      -7.760  14.614  23.558  0.00  0.00    +0.000 HD
BRANCH  14  21
ATOM     21  C   UNL     1      -6.413  16.668  22.564  0.00  0.00    +0.000 C 
BRANCH  21  23
ATOM     22  C   UNL     1      -4.950  16.503  24.509  0.00  0.00    +0.000 C 
ATOM     23  N   UNL     1      -5.567  17.406  23.536  0.00  0.00    +0.000 NA
ATOM     24  C   UNL     1      -4.528  18.160  22.832  0.00  0.00    +0.000 C 
ENDBRANCH  21  23
ENDBRANCH  14  21
ENDBRANCH   1  16
BRANCH   4  25
ATOM     25  N   UNL     1      -0.786  11.919  22.697  0.00  0.00    +0.000 N 
ATOM     26  H   UNL     1       0.134  11.558  22.460  0.00  0.00    +0.000 HD
ATOM     27  H   UNL     1      -1.236  11.428  23.476  0.00  0.00    +0.000 HD
ENDBRANCH   4  25
BRANCH  10  28
ATOM     28  C   UNL     1      -2.965  11.179  16.867  0.00  0.00    +0.000 C 
ATOM     29  C   UNL     1      -2.725  10.686  15.463  0.00  0.00    +0.000 C 
ATOM     30  C   UNL     1      -3.708   9.975  16.335  0.00  0.00    +0.000 C 
ENDBRANCH  10  28
BRANCH   8  31
ATOM     31  C   UNL     1       1.429   9.647  18.323  0.00  0.00    +0.000 C 
ATOM     32  O   UNL     1       1.794   8.586  18.802  0.00  0.00    +0.000 OA
BRANCH  31  33
ATOM     33  O   UNL     1       2.162  10.304  17.393  0.00  0.00    +0.000 OA
ATOM     34  H   UNL     1       2.566  11.148  17.721  0.00  0.00    +0.000 HD
ENDBRANCH  31  33
ENDBRANCH   8  31
TORSDOF 7
ENDMDL
MODEL 4
REMARK VINA RESULT:      -5.9      1.255      3.338
REMARK  Name = 
REMARK  9 active torsions:
REMARK  status: ('A' for Active; 'I' for Inactive)
REMARK    1  A    between atoms: C_1  and  N_2
REMARK    2  A    between atoms: N_2  and  C_3
REMARK    3  A    between atoms: N_2  and  C_4
REMARK    4  A    between atoms: C_4  and  C_5
REMARK    5  A    between atoms: N_7  and  C_8
REMARK    6  A    between atoms: C_11  and  N_12
REMARK    7  A    between atoms: C_16  and  C_17
REMARK    8  A    between atoms: C_17  and  O_19
REMARK    9  A    between atoms: N_21  and  C_22
REMARK                            x       y       z     vdW  Elec       q    Type
REMARK                         _______ _______ _______ _____ _____    ______ ____
ROOT
ATOM      1  C   UNL     1      -2.491  12.147  19.272  0.00  0.00    +0.000 A 
ATOM      2  C   UNL     1      -3.765  11.924  18.726  0.00  0.00    +0.000 A 
ATOM      3  F   UNL     1      -3.881  11.476  17.461  0.00  0.00    +0.000 F 
ATOM      4  C   UNL     1      -4.962  12.094  19.450  0.00  0.00    +0.000 A 
ATOM      5  C   UNL     1      -4.873  12.479  20.804  0.00  0.00    +0.000 A 
ATOM      6  C   UNL     1      -6.111  12.674  21.609  0.00  0.00    +0.000 A 
ATOM      7  O   UNL     1      -7.237  12.538  21.129  0.00  0.00    +0.000 OA
ATOM      8  C   UNL     1      -5.985  13.088  23.021  0.00  0.00    +0.000 A 
ATOM      9  C   UNL     1      -4.748  13.313  23.487  0.00  0.00    +0.000 A 
ATOM     10  N   UNL     1      -3.574  13.150  22.781  0.00  0.00    +0.000 N 
ATOM     11  C   UNL     1      -3.627  12.737  21.410  0.00  0.00    +0.000 A 
ATOM     12  C   UNL     1      -2.472  12.563  20.621  0.00  0.00    +0.000 A 
ATOM     13  F   UNL     1      -1.273  12.836  21.169  0.00  0.00    +0.000 F 
ENDROOT
BRANCH   1  16
ATOM     14  C   UNL     1       0.645  10.433  18.655  0.00  0.00    +0.000 C 
ATOM     15  C   UNL     1      -0.814  10.619  18.160  0.00  0.00    +0.000 C 
ATOM     16  N   UNL     1      -1.319  11.945  18.561  0.00  0.00    +0.000 N 
ATOM     17  C   UNL     1      -0.446  13.075  18.186  0.00  0.00    +0.000 C 
ATOM     18  C   UNL     1       0.999  12.816  18.666  0.00  0.00    +0.000 C 
ATOM     19  N   UNL     1       1.528  11.533  18.183  0.00  0.00    +0.000 NA
ATOM     20  H   UNL     1       2.466  11.361  18.551  0.00  0.00    +0.000 HD
BRANCH  14  21
ATOM     21  C   UNL     1       1.207   9.052  18.220  0.00  0.00    +0.000 C 
BRANCH  21  23
ATOM     22  C   UNL     1       1.414   8.326  20.539  0.00  0.00    +0.000 C 
ATOM     23  N   UNL     1       2.072   8.397  19.234  0.00  0.00    +0.000 NA
ATOM     24  C   UNL     1       2.441   7.051  18.791  0.00  0.00    +0.000 C 
ENDBRANCH  21  23
ENDBRANCH  14  21
ENDBRANCH   1  16
BRANCH   4  25
ATOM     25  N   UNL     1      -6.164  11.633  18.871  0.00  0.00    +0.000 N 
ATOM     26  H   UNL     1      -6.784  12.372  18.552  0.00  0.00    +0.000 HD
ATOM     27  H   UNL     1      -6.635  10.902  19.414  0.00  0.00    +0.000 HD
ENDBRANCH   4  25
BRANCH  10  28
ATOM     28  C   UNL     1      -2.296  13.561  23.410  0.00  0.00    +0.000 C 
ATOM     29  C   UNL     1      -1.660  14.925  23.314  0.00  0.00    +0.000 C 
ATOM     30  C   UNL     1      -2.312  14.505  24.591  0.00  0.00    +0.000 C 
ENDBRANCH  10  28
BRANCH   8  31
ATOM     31  C   UNL     1      -7.138  13.290  23.922  0.00  0.00    +0.000 C 
ATOM     32  O   UNL     1      -7.916  12.401  24.224  0.00  0.00    +0.000 OA
BRANCH  31  33
ATOM     33  O   UNL     1      -7.276  14.553  24.389  0.00  0.00    +0.000 OA
ATOM     34  H   UNL     1      -6.566  14.827  25.025  0.00  0.00    +0.000 HD
ENDBRANCH  31  33
ENDBRANCH   8  31
TORSDOF 7
ENDMDL
MODEL 5
REMARK VINA RESULT:      -5.9      5.835     10.440
REMARK  Name = 
REMARK  9 active torsions:
REMARK  status: ('A' for Active; 'I' for Inactive)
REMARK    1  A    between atoms: C_1  and  N_2
REMARK    2  A    between atoms: N_2  and  C_3
REMARK    3  A    between atoms: N_2  and  C_4
REMARK    4  A    between atoms: C_4  and  C_5
REMARK    5  A    between atoms: N_7  and  C_8
REMARK    6  A    between atoms: C_11  and  N_12
REMARK    7  A    between atoms: C_16  and  C_17
REMARK    8  A    between atoms: C_17  and  O_19
REMARK    9  A    between atoms: N_21  and  C_22
REMARK                            x       y       z     vdW  Elec       q    Type
REMARK                         _______ _______ _______ _____ _____    ______ ____
ROOT
ATOM      1  C   UNL     1       1.904   7.603  19.554  0.00  0.00    +0.000 A 
ATOM      2  C   UNL     1       1.200   6.730  20.399  0.00  0.00    +0.000 A 
ATOM      3  F   UNL     1       0.102   7.166  21.046  0.00  0.00    +0.000 F 
ATOM      4  C   UNL     1       1.546   5.376  20.580  0.00  0.00    +0.000 A 
ATOM      5  C   UNL     1       2.640   4.864  19.851  0.00  0.00    +0.000 A 
ATOM      6  C   UNL     1       3.045   3.439  20.011  0.00  0.00    +0.000 A 
ATOM      7  O   UNL     1       2.473   2.677  20.792  0.00  0.00    +0.000 OA
ATOM      8  C   UNL     1       4.201   2.936  19.242  0.00  0.00    +0.000 A 
ATOM      9  C   UNL     1       4.854   3.816  18.470  0.00  0.00    +0.000 A 
ATOM     10  N   UNL     1       4.520   5.143  18.291  0.00  0.00    +0.000 N 
ATOM     11  C   UNL     1       3.401   5.689  18.998  0.00  0.00    +0.000 A 
ATOM     12  C   UNL     1       3.007   7.037  18.878  0.00  0.00    +0.000 A 
ATOM     13  F   UNL     1       3.740   7.853  18.097  0.00  0.00    +0.000 F 
ENDROOT
BRANCH   1  16
ATOM     14  C   UNL     1       0.146  10.629  20.503  0.00  0.00    +0.000 C 
ATOM     15  C   UNL     1       1.538   9.950  20.417  0.00  0.00    +0.000 C 
ATOM     16  N   UNL     1       1.535   8.924  19.357  0.00  0.00    +0.000 N 
ATOM     17  C   UNL     1       1.054   9.397  18.044  0.00  0.00    +0.000 C 
ATOM     18  C   UNL     1      -0.312  10.102  18.198  0.00  0.00    +0.000 C 
ATOM     19  N   UNL     1      -0.274  11.186  19.189  0.00  0.00    +0.000 NA
ATOM     20  H   UNL     1      -1.198  11.606  19.309  0.00  0.00    +0.000 HD
BRANCH  14  21
ATOM     21  C   UNL     1       0.135  11.734  21.596  0.00  0.00    +0.000 C 
BRANCH  21  23
ATOM     22  C   UNL     1      -1.893  11.791  22.950  0.00  0.00    +0.000 C 
ATOM     23  N   UNL     1      -0.507  11.325  22.871  0.00  0.00    +0.000 NA
ATOM     24  C   UNL     1      -0.466   9.868  23.014  0.00  0.00    +0.000 C 
ENDBRANCH  21  23
ENDBRANCH  14  21
ENDBRANCH   1  16
BRANCH   4  25
ATOM     25  N   UNL     1       0.644   4.543  21.277  0.00  0.00    +0.000 N 
ATOM     26  H   UNL     1       0.090   5.024  21.980  0.00  0.00    +0.000 HD
ATOM     27  H   UNL     1       1.056   3.664  21.604  0.00  0.00    +0.000 HD
ENDBRANCH   4  25
BRANCH  10  28
ATOM     28  C   UNL     1       5.423   6.008  17.496  0.00  0.00    +0.000 C 
ATOM     29  C   UNL     1       6.621   5.549  16.704  0.00  0.00    +0.000 C 
ATOM     30  C   UNL     1       5.376   5.955  15.986  0.00  0.00    +0.000 C 
ENDBRANCH  10  28
BRANCH   8  31
ATOM     31  C   UNL     1       4.680   1.541  19.302  0.00  0.00    +0.000 C 
ATOM     32  O   UNL     1       5.363   1.105  20.213  0.00  0.00    +0.000 OA
BRANCH  31  33
ATOM     33  O   UNL     1       4.308   0.770  18.252  0.00  0.00    +0.000 OA
ATOM     34  H   UNL     1       4.987   0.098  17.986  0.00  0.00    +0.000 HD
ENDBRANCH  31  33
ENDBRANCH   8  31
TORSDOF 7
ENDMDL
MODEL 6
REMARK VINA RESULT:      -5.9      2.867      3.927
REMARK  Name = 
REMARK  9 active torsions:
REMARK  status: ('A' for Active; 'I' for Inactive)
REMARK    1  A    between atoms: C_1  and  N_2
REMARK    2  A    between atoms: N_2  and  C_3
REMARK    3  A    between atoms: N_2  and  C_4
REMARK    4  A    between atoms: C_4  and  C_5
REMARK    5  A    between atoms: N_7  and  C_8
REMARK    6  A    between atoms: C_11  and  N_12
REMARK    7  A    between atoms: C_16  and  C_17
REMARK    8  A    between atoms: C_17  and  O_19
REMARK    9  A    between atoms: N_21  and  C_22
REMARK                            x       y       z     vdW  Elec       q    Type
REMARK                         _______ _______ _______ _____ _____    ______ ____
ROOT
ATOM      1  C   UNL     1      -1.061  10.974  19.922  0.00  0.00    +0.000 A 
ATOM      2  C   UNL     1      -1.622  11.870  20.846  0.00  0.00    +0.000 A 
ATOM      3  F   UNL     1      -0.943  12.191  21.964  0.00  0.00    +0.000 F 
ATOM      4  C   UNL     1      -2.861  12.512  20.651  0.00  0.00    +0.000 A 
ATOM      5  C   UNL     1      -3.560  12.264  19.451  0.00  0.00    +0.000 A 
ATOM      6  C   UNL     1      -4.875  12.917  19.201  0.00  0.00    +0.000 A 
ATOM      7  O   UNL     1      -5.407  13.661  20.027  0.00  0.00    +0.000 OA
ATOM      8  C   UNL     1      -5.586  12.629  17.940  0.00  0.00    +0.000 A 
ATOM      9  C   UNL     1      -5.020  11.748  17.103  0.00  0.00    +0.000 A 
ATOM     10  N   UNL     1      -3.808  11.115  17.291  0.00  0.00    +0.000 N 
ATOM     11  C   UNL     1      -3.062  11.362  18.489  0.00  0.00    +0.000 A 
ATOM     12  C   UNL     1      -1.824  10.743  18.757  0.00  0.00    +0.000 A 
ATOM     13  F   UNL     1      -1.346   9.852  17.869  0.00  0.00    +0.000 F 
ENDROOT
BRANCH   1  16
ATOM     14  C   UNL     1       1.502   8.553  19.072  0.00  0.00    +0.000 C 
ATOM     15  C   UNL     1       1.111  10.052  19.015  0.00  0.00    +0.000 C 
ATOM     16  N   UNL     1       0.174  10.373  20.108  0.00  0.00    +0.000 N 
ATOM     17  C   UNL     1       0.629   9.958  21.449  0.00  0.00    +0.000 C 
ATOM     18  C   UNL     1       1.047   8.470  21.436  0.00  0.00    +0.000 C 
ATOM     19  N   UNL     1       2.050   8.180  20.404  0.00  0.00    +0.000 NA
ATOM     20  H   UNL     1       2.276   7.183  20.381  0.00  0.00    +0.000 HD
BRANCH  14  21
ATOM     21  C   UNL     1       2.511   8.199  17.945  0.00  0.00    +0.000 C 
BRANCH  21  23
ATOM     22  C   UNL     1       2.442   5.761  18.014  0.00  0.00    +0.000 C 
ATOM     23  N   UNL     1       3.279   6.950  18.182  0.00  0.00    +0.000 NA
ATOM     24  C   UNL     1       4.425   6.880  17.273  0.00  0.00    +0.000 C 
ENDBRANCH  21  23
ENDBRANCH  14  21
ENDBRANCH   1  16
BRANCH   4  25
ATOM     25  N   UNL     1      -3.221  13.551  21.536  0.00  0.00    +0.000 N 
ATOM     26  H   UNL     1      -3.266  13.272  22.512  0.00  0.00    +0.000 HD
ATOM     27  H   UNL     1      -4.027  14.103  21.225  0.00  0.00    +0.000 HD
ENDBRANCH   4  25
BRANCH  10  28
ATOM     28  C   UNL     1      -3.385  10.074  16.324  0.00  0.00    +0.000 C 
ATOM     29  C   UNL     1      -3.985   9.834  14.962  0.00  0.00    +0.000 C 
ATOM     30  C   UNL     1      -2.639  10.473  15.071  0.00  0.00    +0.000 C 
ENDBRANCH  10  28
BRANCH   8  31
ATOM     31  C   UNL     1      -6.882  13.234  17.573  0.00  0.00    +0.000 C 
ATOM     32  O   UNL     1      -7.047  13.912  16.572  0.00  0.00    +0.000 OA
BRANCH  31  33
ATOM     33  O   UNL     1      -7.888  12.987  18.446  0.00  0.00    +0.000 OA
ATOM     34  H   UNL     1      -7.655  13.174  19.392  0.00  0.00    +0.000 HD
ENDBRANCH  31  33
ENDBRANCH   8  31
TORSDOF 7
ENDMDL
MODEL 7
REMARK VINA RESULT:      -5.9      2.772      4.646
REMARK  Name = 
REMARK  9 active torsions:
REMARK  status: ('A' for Active; 'I' for Inactive)
REMARK    1  A    between atoms: C_1  and  N_2
REMARK    2  A    between atoms: N_2  and  C_3
REMARK    3  A    between atoms: N_2  and  C_4
REMARK    4  A    between atoms: C_4  and  C_5
REMARK    5  A    between atoms: N_7  and  C_8
REMARK    6  A    between atoms: C_11  and  N_12
REMARK    7  A    between atoms: C_16  and  C_17
REMARK    8  A    between atoms: C_17  and  O_19
REMARK    9  A    between atoms: N_21  and  C_22
REMARK                            x       y       z     vdW  Elec       q    Type
REMARK                         _______ _______ _______ _____ _____    ______ ____
ROOT
ATOM      1  C   UNL     1      -0.564  10.234  19.061  0.00  0.00    +0.000 A 
ATOM      2  C   UNL     1      -1.193   9.969  17.833  0.00  0.00    +0.000 A 
ATOM      3  F   UNL     1      -0.632   9.102  16.968  0.00  0.00    +0.000 F 
ATOM      4  C   UNL     1      -2.431  10.526  17.458  0.00  0.00    +0.000 A 
ATOM      5  C   UNL     1      -3.088  11.372  18.377  0.00  0.00    +0.000 A 
ATOM      6  C   UNL     1      -4.398  11.987  18.024  0.00  0.00    +0.000 A 
ATOM      7  O   UNL     1      -4.934  11.810  16.929  0.00  0.00    +0.000 OA
ATOM      8  C   UNL     1      -5.054  12.876  19.003  0.00  0.00    +0.000 A 
ATOM      9  C   UNL     1      -4.401  13.116  20.149  0.00  0.00    +0.000 A 
ATOM     10  N   UNL     1      -3.187  12.574  20.519  0.00  0.00    +0.000 N 
ATOM     11  C   UNL     1      -2.505  11.693  19.619  0.00  0.00    +0.000 A 
ATOM     12  C   UNL     1      -1.256  11.113  19.921  0.00  0.00    +0.000 A 
ATOM     13  F   UNL     1      -0.665  11.433  21.087  0.00  0.00    +0.000 F 
ENDROOT
BRANCH   1  16
ATOM     14  C   UNL     1       2.153   7.877  18.598  0.00  0.00    +0.000 C 
ATOM     15  C   UNL     1       1.744   9.370  18.500  0.00  0.00    +0.000 C 
ATOM     16  N   UNL     1       0.638   9.654  19.434  0.00  0.00    +0.000 N 
ATOM     17  C   UNL     1       0.882   9.223  20.824  0.00  0.00    +0.000 C 
ATOM     18  C   UNL     1       1.327   7.745  20.856  0.00  0.00    +0.000 C 
ATOM     19  N   UNL     1       2.489   7.492  19.995  0.00  0.00    +0.000 NA
ATOM     20  H   UNL     1       2.737   6.500  19.994  0.00  0.00    +0.000 HD
BRANCH  14  21
ATOM     21  C   UNL     1       3.337   7.563  17.642  0.00  0.00    +0.000 C 
BRANCH  21  23
ATOM     22  C   UNL     1       3.497   5.130  17.559  0.00  0.00    +0.000 C 
ATOM     23  N   UNL     1       4.129   6.366  18.024  0.00  0.00    +0.000 NA
ATOM     24  C   UNL     1       5.486   6.462  17.481  0.00  0.00    +0.000 C 
ENDBRANCH  21  23
ENDBRANCH  14  21
ENDBRANCH   1  16
BRANCH   4  25
ATOM     25  N   UNL     1      -3.069  10.022  16.304  0.00  0.00    +0.000 N 
ATOM     26  H   UNL     1      -4.066  10.213  16.261  0.00  0.00    +0.000 HD
ATOM     27  H   UNL     1      -2.822   9.053  16.081  0.00  0.00    +0.000 HD
ENDBRANCH   4  25
BRANCH  10  28
ATOM     28  C   UNL     1      -2.545  13.043  21.770  0.00  0.00    +0.000 C 
ATOM     29  C   UNL     1      -3.189  13.902  22.829  0.00  0.00    +0.000 C 
ATOM     30  C   UNL     1      -2.965  12.450  23.096  0.00  0.00    +0.000 C 
ENDBRANCH  10  28
BRANCH   8  31
ATOM     31  C   UNL     1      -6.362  13.523  18.774  0.00  0.00    +0.000 C 
ATOM     32  O   UNL     1      -7.342  13.321  19.472  0.00  0.00    +0.000 OA
BRANCH  31  33
ATOM     33  O   UNL     1      -6.398  14.362  17.712  0.00  0.00    +0.000 OA
ATOM     34  H   UNL     1      -6.211  15.309  17.940  0.00  0.00    +0.000 HD
ENDBRANCH  31  33
ENDBRANCH   8  31
TORSDOF 7
ENDMDL
MODEL 8
REMARK VINA RESULT:      -5.9      3.327      5.446
REMARK  Name = 
REMARK  9 active torsions:
REMARK  status: ('A' for Active; 'I' for Inactive)
REMARK    1  A    between atoms: C_1  and  N_2
REMARK    2  A    between atoms: N_2  and  C_3
REMARK    3  A    between atoms: N_2  and  C_4
REMARK    4  A    between atoms: C_4  and  C_5
REMARK    5  A    between atoms: N_7  and  C_8
REMARK    6  A    between atoms: C_11  and  N_12
REMARK    7  A    between atoms: C_16  and  C_17
REMARK    8  A    between atoms: C_17  and  O_19
REMARK    9  A    between atoms: N_21  and  C_22
REMARK                            x       y       z     vdW  Elec       q    Type
REMARK                         _______ _______ _______ _____ _____    ______ ____
ROOT
ATOM      1  C   UNL     1       1.592   8.143  19.074  0.00  0.00    +0.000 A 
ATOM      2  C   UNL     1       1.846   8.046  20.452  0.00  0.00    +0.000 A 
ATOM      3  F   UNL     1       2.766   7.172  20.902  0.00  0.00    +0.000 F 
ATOM      4  C   UNL     1       1.221   8.861  21.416  0.00  0.00    +0.000 A 
ATOM      5  C   UNL     1       0.315   9.846  20.970  0.00  0.00    +0.000 A 
ATOM      6  C   UNL     1      -0.373  10.730  21.953  0.00  0.00    +0.000 A 
ATOM      7  O   UNL     1      -0.204  10.619  23.168  0.00  0.00    +0.000 OA
ATOM      8  C   UNL     1      -1.324  11.744  21.456  0.00  0.00    +0.000 A 
ATOM      9  C   UNL     1      -1.550  11.778  20.135  0.00  0.00    +0.000 A 
ATOM     10  N   UNL     1      -0.942  10.981  19.187  0.00  0.00    +0.000 N 
ATOM     11  C   UNL     1       0.001   9.986  19.604  0.00  0.00    +0.000 A 
ATOM     12  C   UNL     1       0.651   9.125  18.696  0.00  0.00    +0.000 A 
ATOM     13  F   UNL     1       0.341   9.217  17.389  0.00  0.00    +0.000 F 
ENDROOT
BRANCH   1  16
ATOM     14  C   UNL     1       3.032   5.018  17.927  0.00  0.00    +0.000 C 
ATOM     15  C   UNL     1       1.829   5.986  17.778  0.00  0.00    +0.000 C 
ATOM     16  N   UNL     1       2.237   7.359  18.131  0.00  0.00    +0.000 N 
ATOM     17  C   UNL     1       3.442   7.841  17.429  0.00  0.00    +0.000 C 
ATOM     18  C   UNL     1       4.591   6.819  17.574  0.00  0.00    +0.000 C 
ATOM     19  N   UNL     1       4.203   5.474  17.131  0.00  0.00    +0.000 NA
ATOM     20  H   UNL     1       4.962   4.805  17.281  0.00  0.00    +0.000 HD
BRANCH  14  21
ATOM     21  C   UNL     1       2.631   3.570  17.533  0.00  0.00    +0.000 C 
BRANCH  21  23
ATOM     22  C   UNL     1       3.008   3.212  19.917  0.00  0.00    +0.000 C 
ATOM     23  N   UNL     1       2.447   2.652  18.686  0.00  0.00    +0.000 NA
ATOM     24  C   UNL     1       1.024   2.361  18.878  0.00  0.00    +0.000 C 
ENDBRANCH  21  23
ENDBRANCH  14  21
ENDBRANCH   1  16
BRANCH   4  25
ATOM     25  N   UNL     1       1.711   8.827  22.739  0.00  0.00    +0.000 N 
ATOM     26  H   UNL     1       1.287   9.511  23.360  0.00  0.00    +0.000 HD
ATOM     27  H   UNL     1       2.733   8.785  22.805  0.00  0.00    +0.000 HD
ENDBRANCH   4  25
BRANCH  10  28
ATOM     28  C   UNL     1      -1.399  11.065  17.780  0.00  0.00    +0.000 C 
ATOM     29  C   UNL     1      -2.419  10.168  17.124  0.00  0.00    +0.000 C 
ATOM     30  C   UNL     1      -2.789  11.573  17.472  0.00  0.00    +0.000 C 
ENDBRANCH  10  28
BRANCH   8  31
ATOM     31  C   UNL     1      -2.046  12.689  22.331  0.00  0.00    +0.000 C 
ATOM     32  O   UNL     1      -1.963  13.901  22.223  0.00  0.00    +0.000 OA
BRANCH  31  33
ATOM     33  O   UNL     1      -2.811  12.104  23.284  0.00  0.00    +0.000 OA
ATOM     34  H   UNL     1      -2.842  11.115  23.224  0.00  0.00    +0.000 HD
ENDBRANCH  31  33
ENDBRANCH   8  31
TORSDOF 7
ENDMDL
MODEL 9
REMARK VINA RESULT:      -5.8      4.037      8.084
REMARK  Name = 
REMARK  9 active torsions:
REMARK  status: ('A' for Active; 'I' for Inactive)
REMARK    1  A    between atoms: C_1  and  N_2
REMARK    2  A    between atoms: N_2  and  C_3
REMARK    3  A    between atoms: N_2  and  C_4
REMARK    4  A    between atoms: C_4  and  C_5
REMARK    5  A    between atoms: N_7  and  C_8
REMARK    6  A    between atoms: C_11  and  N_12
REMARK    7  A    between atoms: C_16  and  C_17
REMARK    8  A    between atoms: C_17  and  O_19
REMARK    9  A    between atoms: N_21  and  C_22
REMARK                            x       y       z     vdW  Elec       q    Type
REMARK                         _______ _______ _______ _____ _____    ______ ____
ROOT
ATOM      1  C   UNL     1      -1.961  14.194  22.424  0.00  0.00    +0.000 A 
ATOM      2  C   UNL     1      -1.550  15.106  21.439  0.00  0.00    +0.000 A 
ATOM      3  F   UNL     1      -1.918  16.399  21.528  0.00  0.00    +0.000 F 
ATOM      4  C   UNL     1      -0.712  14.759  20.361  0.00  0.00    +0.000 A 
ATOM      5  C   UNL     1      -0.238  13.433  20.284  0.00  0.00    +0.000 A 
ATOM      6  C   UNL     1       0.648  13.019  19.160  0.00  0.00    +0.000 A 
ATOM      7  O   UNL     1       0.971  13.792  18.257  0.00  0.00    +0.000 OA
ATOM      8  C   UNL     1       1.119  11.620  19.103  0.00  0.00    +0.000 A 
ATOM      9  C   UNL     1       0.677  10.784  20.052  0.00  0.00    +0.000 A 
ATOM     10  N   UNL     1      -0.145  11.118  21.109  0.00  0.00    +0.000 N 
ATOM     11  C   UNL     1      -0.626  12.463  21.230  0.00  0.00    +0.000 A 
ATOM     12  C   UNL     1      -1.479  12.876  22.272  0.00  0.00    +0.000 A 
ATOM     13  F   UNL     1      -1.891  11.959  23.168  0.00  0.00    +0.000 F 
ENDROOT
BRANCH   1  16
ATOM     14  C   UNL     1      -4.919  15.713  23.872  0.00  0.00    +0.000 C 
ATOM     15  C   UNL     1      -4.221  14.368  23.543  0.00  0.00    +0.000 C 
ATOM     16  N   UNL     1      -2.758  14.554  23.499  0.00  0.00    +0.000 N 
ATOM     17  C   UNL     1      -2.186  15.211  24.691  0.00  0.00    +0.000 C 
ATOM     18  C   UNL     1      -2.947  16.520  24.997  0.00  0.00    +0.000 C 
ATOM     19  N   UNL     1      -4.394  16.308  25.131  0.00  0.00    +0.000 NA
ATOM     20  H   UNL     1      -4.881  17.194  25.285  0.00  0.00    +0.000 HD
BRANCH  14  21
ATOM     21  C   UNL     1      -6.460  15.535  23.951  0.00  0.00    +0.000 C 
BRANCH  21  23
ATOM     22  C   UNL     1      -7.853  13.537  24.094  0.00  0.00    +0.000 C 
ATOM     23  N   UNL     1      -6.973  14.336  23.240  0.00  0.00    +0.000 NA
ATOM     24  C   UNL     1      -7.690  14.735  22.027  0.00  0.00    +0.000 C 
ENDBRANCH  21  23
ENDBRANCH  14  21
ENDBRANCH   1  16
BRANCH   4  25
ATOM     25  N   UNL     1      -0.189  15.798  19.560  0.00  0.00    +0.000 N 
ATOM     26  H   UNL     1      -0.482  15.763  18.587  0.00  0.00    +0.000 HD
ATOM     27  H   UNL     1       0.816  15.955  19.685  0.00  0.00    +0.000 HD
ENDBRANCH   4  25
BRANCH  10  28
ATOM     28  C   UNL     1      -0.639  10.043  22.001  0.00  0.00    +0.000 C 
ATOM     29  C   UNL     1      -0.234   8.592  21.949  0.00  0.00    +0.000 C 
ATOM     30  C   UNL     1       0.279   9.459  23.051  0.00  0.00    +0.000 C 
ENDBRANCH  10  28
BRANCH   8  31
ATOM     31  C   UNL     1       2.017  11.101  18.051  0.00  0.00    +0.000 C 
ATOM     32  O   UNL     1       2.020   9.937  17.687  0.00  0.00    +0.000 OA
BRANCH  31  33
ATOM     33  O   UNL     1       2.856  12.021  17.520  0.00  0.00    +0.000 OA
ATOM     34  H   UNL     1       3.816  11.826  17.673  0.00  0.00    +0.000 HD
ENDBRANCH  31  33
ENDBRANCH   8  31
TORSDOF 7
ENDMDL
