MODEL 1
REMARK VINA RESULT:      -6.4      0.000      0.000
REMARK  Name = 
REMARK  2 active torsions:
REMARK  status: ('A' for Active; 'I' for Inactive)
REMARK    1  A    between atoms: C_7  and  N_8
REMARK    2  A    between atoms: C_12  and  C_13
REMARK                            x       y       z     vdW  Elec       q    Type
REMARK                         _______ _______ _______ _____ _____    ______ ____
ROOT
ATOM      1  N   UNL     1       5.179   3.713  18.954  0.00  0.00    +0.000 N 
ATOM      2  C   UNL     1       5.660   4.410  17.890  0.00  0.00    +0.000 C 
ATOM      3  N   UNL     1       5.011   4.834  16.860  0.00  0.00    +0.000 NA
ATOM      4  C   UNL     1       5.948   5.432  15.890  0.00  0.00    +0.000 C 
ATOM      5  C   UNL     1       7.117   6.059  16.639  0.00  0.00    +0.000 C 
ATOM      6  S   UNL     1       7.365   4.814  17.948  0.00  0.00    +0.000 S 
ATOM      7  H   UNL     1       5.812   3.053  19.390  0.00  0.00    +0.000 HD
ENDROOT
BRANCH   1  14
ATOM      8 CL   UNL     1       1.091   6.068  21.006  0.00  0.00    +0.000 Cl
ATOM      9  C   UNL     1       1.848   4.687  20.313  0.00  0.00    +0.000 A 
ATOM     10  C   UNL     1       1.133   3.501  20.178  0.00  0.00    +0.000 A 
ATOM     11  C   UNL     1       1.759   2.379  19.634  0.00  0.00    +0.000 A 
ATOM     12  C   UNL     1       3.099   2.450  19.237  0.00  0.00    +0.000 A 
ATOM     13 CL   UNL     1       3.830   1.031  18.570  0.00  0.00    +0.000 Cl
ATOM     14  C   UNL     1       3.836   3.642  19.370  0.00  0.00    +0.000 A 
ATOM     15  C   UNL     1       3.180   4.763  19.905  0.00  0.00    +0.000 A 
ENDBRANCH   1  14
BRANCH   5  16
ATOM     16  C   UNL     1       6.727   7.440  17.161  0.00  0.00    +0.000 C 
ATOM     17 BR   UNL     1       8.246   8.349  17.975  0.00  0.00    +0.000 Br
ENDBRANCH   5  16
TORSDOF 2
ENDMDL
MODEL 2
REMARK VINA RESULT:      -6.3      3.628      5.981
REMARK  Name = 
REMARK  2 active torsions:
REMARK  status: ('A' for Active; 'I' for Inactive)
REMARK    1  A    between atoms: C_7  and  N_8
REMARK    2  A    between atoms: C_12  and  C_13
REMARK                            x       y       z     vdW  Elec       q    Type
REMARK                         _______ _______ _______ _____ _____    ______ ____
ROOT
ATOM      1  N   UNL     1       5.171   3.567  19.023  0.00  0.00    +0.000 N 
ATOM      2  C   UNL     1       4.090   3.981  19.737  0.00  0.00    +0.000 C 
ATOM      3  N   UNL     1       3.573   5.162  19.783  0.00  0.00    +0.000 NA
ATOM      4  C   UNL     1       2.488   5.195  20.781  0.00  0.00    +0.000 C 
ATOM      5  C   UNL     1       1.818   3.828  20.842  0.00  0.00    +0.000 C 
ATOM      6  S   UNL     1       3.278   2.747  20.679  0.00  0.00    +0.000 S 
ATOM      7  H   UNL     1       5.734   2.833  19.434  0.00  0.00    +0.000 HD
ENDROOT
BRANCH   1  14
ATOM      8 CL   UNL     1       5.286   4.079  13.905  0.00  0.00    +0.000 Cl
ATOM      9  C   UNL     1       5.821   4.521  15.479  0.00  0.00    +0.000 A 
ATOM     10  C   UNL     1       6.804   5.495  15.628  0.00  0.00    +0.000 A 
ATOM     11  C   UNL     1       7.248   5.834  16.906  0.00  0.00    +0.000 A 
ATOM     12  C   UNL     1       6.712   5.191  18.026  0.00  0.00    +0.000 A 
ATOM     13 CL   UNL     1       7.297   5.645  19.589  0.00  0.00    +0.000 Cl
ATOM     14  C   UNL     1       5.719   4.201  17.892  0.00  0.00    +0.000 A 
ATOM     15  C   UNL     1       5.276   3.888  16.596  0.00  0.00    +0.000 A 
ENDBRANCH   1  14
BRANCH   5  16
ATOM     16  C   UNL     1       0.810   3.685  19.706  0.00  0.00    +0.000 C 
ATOM     17 BR   UNL     1       1.194   2.125  18.603  0.00  0.00    +0.000 Br
ENDBRANCH   5  16
TORSDOF 2
ENDMDL
MODEL 3
REMARK VINA RESULT:      -6.2      3.765      6.032
REMARK  Name = 
REMARK  2 active torsions:
REMARK  status: ('A' for Active; 'I' for Inactive)
REMARK    1  A    between atoms: C_7  and  N_8
REMARK    2  A    between atoms: C_12  and  C_13
REMARK                            x       y       z     vdW  Elec       q    Type
REMARK                         _______ _______ _______ _____ _____    ______ ____
ROOT
ATOM      1  N   UNL     1       4.148   6.184  17.801  0.00  0.00    +0.000 N 
ATOM      2  C   UNL     1       3.093   5.615  18.444  0.00  0.00    +0.000 C 
ATOM      3  N   UNL     1       2.598   4.437  18.269  0.00  0.00    +0.000 NA
ATOM      4  C   UNL     1       1.381   4.280  19.088  0.00  0.00    +0.000 C 
ATOM      5  C   UNL     1       1.519   5.107  20.359  0.00  0.00    +0.000 C 
ATOM      6  S   UNL     1       2.341   6.591  19.690  0.00  0.00    +0.000 S 
ATOM      7  H   UNL     1       4.111   7.187  17.665  0.00  0.00    +0.000 HD
ENDROOT
BRANCH   1  14
ATOM      8 CL   UNL     1       5.793   4.021  13.432  0.00  0.00    +0.000 Cl
ATOM      9  C   UNL     1       6.032   4.481  15.073  0.00  0.00    +0.000 A 
ATOM     10  C   UNL     1       7.229   4.171  15.711  0.00  0.00    +0.000 A 
ATOM     11  C   UNL     1       7.409   4.529  17.047  0.00  0.00    +0.000 A 
ATOM     12  C   UNL     1       6.386   5.189  17.738  0.00  0.00    +0.000 A 
ATOM     13 CL   UNL     1       6.657   5.610  19.394  0.00  0.00    +0.000 Cl
ATOM     14  C   UNL     1       5.168   5.507  17.106  0.00  0.00    +0.000 A 
ATOM     15  C   UNL     1       5.017   5.150  15.756  0.00  0.00    +0.000 A 
ENDBRANCH   1  14
BRANCH   5  16
ATOM     16  C   UNL     1       2.349   4.350  21.392  0.00  0.00    +0.000 C 
ATOM     17 BR   UNL     1       1.708   2.524  21.622  0.00  0.00    +0.000 Br
ENDBRANCH   5  16
TORSDOF 2
ENDMDL
MODEL 4
REMARK VINA RESULT:      -6.2      4.120      5.718
REMARK  Name = 
REMARK  2 active torsions:
REMARK  status: ('A' for Active; 'I' for Inactive)
REMARK    1  A    between atoms: C_7  and  N_8
REMARK    2  A    between atoms: C_12  and  C_13
REMARK                            x       y       z     vdW  Elec       q    Type
REMARK                         _______ _______ _______ _____ _____    ______ ____
ROOT
ATOM      1  N   UNL     1       2.921   6.196  20.186  0.00  0.00    +0.000 N 
ATOM      2  C   UNL     1       2.398   4.950  20.338  0.00  0.00    +0.000 C 
ATOM      3  N   UNL     1       1.180   4.629  20.615  0.00  0.00    +0.000 NA
ATOM      4  C   UNL     1       1.080   3.170  20.811  0.00  0.00    +0.000 C 
ATOM      5  C   UNL     1       2.101   2.471  19.923  0.00  0.00    +0.000 C 
ATOM      6  S   UNL     1       3.509   3.618  20.087  0.00  0.00    +0.000 S 
ATOM      7  H   UNL     1       3.887   6.321  20.464  0.00  0.00    +0.000 HD
ENDROOT
BRANCH   1  14
ATOM      8 CL   UNL     1      -0.338   9.842  21.784  0.00  0.00    +0.000 Cl
ATOM      9  C   UNL     1       0.686   9.152  20.586  0.00  0.00    +0.000 A 
ATOM     10  C   UNL     1       0.794   9.754  19.337  0.00  0.00    +0.000 A 
ATOM     11  C   UNL     1       1.610   9.179  18.363  0.00  0.00    +0.000 A 
ATOM     12  C   UNL     1       2.307   7.998  18.644  0.00  0.00    +0.000 A 
ATOM     13 CL   UNL     1       3.305   7.322  17.403  0.00  0.00    +0.000 Cl
ATOM     14  C   UNL     1       2.206   7.375  19.903  0.00  0.00    +0.000 A 
ATOM     15  C   UNL     1       1.391   7.982  20.872  0.00  0.00    +0.000 A 
ENDBRANCH   1  14
BRANCH   5  16
ATOM     16  C   UNL     1       1.563   2.347  18.500  0.00  0.00    +0.000 C 
ATOM     17 BR   UNL     1       2.732   3.233  17.216  0.00  0.00    +0.000 Br
ENDBRANCH   5  16
TORSDOF 2
ENDMDL
MODEL 5
REMARK VINA RESULT:      -6.1      2.207      3.388
REMARK  Name = 
REMARK  2 active torsions:
REMARK  status: ('A' for Active; 'I' for Inactive)
REMARK    1  A    between atoms: C_7  and  N_8
REMARK    2  A    between atoms: C_12  and  C_13
REMARK                            x       y       z     vdW  Elec       q    Type
REMARK                         _______ _______ _______ _____ _____    ______ ____
ROOT
ATOM      1  N   UNL     1       3.448   6.084  17.909  0.00  0.00    +0.000 N 
ATOM      2  C   UNL     1       4.805   6.043  17.826  0.00  0.00    +0.000 C 
ATOM      3  N   UNL     1       5.639   5.562  18.685  0.00  0.00    +0.000 NA
ATOM      4  C   UNL     1       7.021   5.839  18.250  0.00  0.00    +0.000 C 
ATOM      5  C   UNL     1       7.077   5.848  16.727  0.00  0.00    +0.000 C 
ATOM      6  S   UNL     1       5.501   6.686  16.352  0.00  0.00    +0.000 S 
ATOM      7  H   UNL     1       2.989   6.872  17.468  0.00  0.00    +0.000 HD
ENDROOT
BRANCH   1  14
ATOM      8 CL   UNL     1       1.442   1.453  18.911  0.00  0.00    +0.000 Cl
ATOM      9  C   UNL     1       1.662   3.118  19.288  0.00  0.00    +0.000 A 
ATOM     10  C   UNL     1       1.024   3.666  20.396  0.00  0.00    +0.000 A 
ATOM     11  C   UNL     1       1.189   5.021  20.685  0.00  0.00    +0.000 A 
ATOM     12  C   UNL     1       1.986   5.819  19.857  0.00  0.00    +0.000 A 
ATOM     13 CL   UNL     1       2.158   7.494  20.256  0.00  0.00    +0.000 Cl
ATOM     14  C   UNL     1       2.635   5.280  18.730  0.00  0.00    +0.000 A 
ATOM     15  C   UNL     1       2.467   3.910  18.469  0.00  0.00    +0.000 A 
ENDBRANCH   1  14
BRANCH   5  16
ATOM     16  C   UNL     1       7.162   4.420  16.196  0.00  0.00    +0.000 C 
ATOM     17 BR   UNL     1       6.062   4.184  14.605  0.00  0.00    +0.000 Br
ENDBRANCH   5  16
TORSDOF 2
ENDMDL
MODEL 6
REMARK VINA RESULT:      -6.0      3.766      6.123
REMARK  Name = 
REMARK  2 active torsions:
REMARK  status: ('A' for Active; 'I' for Inactive)
REMARK    1  A    between atoms: C_7  and  N_8
REMARK    2  A    between atoms: C_12  and  C_13
REMARK                            x       y       z     vdW  Elec       q    Type
REMARK                         _______ _______ _______ _____ _____    ______ ____
ROOT
ATOM      1  N   UNL     1       5.544   3.589  18.155  0.00  0.00    +0.000 N 
ATOM      2  C   UNL     1       4.562   4.134  18.921  0.00  0.00    +0.000 C 
ATOM      3  N   UNL     1       4.136   5.352  18.919  0.00  0.00    +0.000 NA
ATOM      4  C   UNL     1       3.148   5.538  19.998  0.00  0.00    +0.000 C 
ATOM      5  C   UNL     1       2.390   4.234  20.218  0.00  0.00    +0.000 C 
ATOM      6  S   UNL     1       3.750   3.035  20.019  0.00  0.00    +0.000 S 
ATOM      7  H   UNL     1       6.087   2.844  18.573  0.00  0.00    +0.000 HD
ENDROOT
BRANCH   1  14
ATOM      8 CL   UNL     1       5.433   3.532  13.011  0.00  0.00    +0.000 Cl
ATOM      9  C   UNL     1       6.029   4.150  14.502  0.00  0.00    +0.000 A 
ATOM     10  C   UNL     1       7.005   5.142  14.499  0.00  0.00    +0.000 A 
ATOM     11  C   UNL     1       7.500   5.624  15.711  0.00  0.00    +0.000 A 
ATOM     12  C   UNL     1       7.020   5.104  16.918  0.00  0.00    +0.000 A 
ATOM     13 CL   UNL     1       7.667   5.734  18.394  0.00  0.00    +0.000 Cl
ATOM     14  C   UNL     1       6.035   4.098  16.938  0.00  0.00    +0.000 A 
ATOM     15  C   UNL     1       5.541   3.640  15.705  0.00  0.00    +0.000 A 
ENDBRANCH   1  14
BRANCH   5  16
ATOM     16  C   UNL     1       1.279   4.090  19.181  0.00  0.00    +0.000 C 
ATOM     17 BR   UNL     1       0.820   2.220  18.882  0.00  0.00    +0.000 Br
ENDBRANCH   5  16
TORSDOF 2
ENDMDL
MODEL 7
REMARK VINA RESULT:      -5.8      3.597      5.763
REMARK  Name = 
REMARK  2 active torsions:
REMARK  status: ('A' for Active; 'I' for Inactive)
REMARK    1  A    between atoms: C_7  and  N_8
REMARK    2  A    between atoms: C_12  and  C_13
REMARK                            x       y       z     vdW  Elec       q    Type
REMARK                         _______ _______ _______ _____ _____    ______ ____
ROOT
ATOM      1  N   UNL     1       5.110   3.911  19.573  0.00  0.00    +0.000 N 
ATOM      2  C   UNL     1       3.880   4.134  20.109  0.00  0.00    +0.000 C 
ATOM      3  N   UNL     1       3.211   5.237  20.129  0.00  0.00    +0.000 NA
ATOM      4  C   UNL     1       1.980   5.061  20.922  0.00  0.00    +0.000 C 
ATOM      5  C   UNL     1       1.496   3.623  20.788  0.00  0.00    +0.000 C 
ATOM      6  S   UNL     1       3.092   2.742  20.824  0.00  0.00    +0.000 S 
ATOM      7  H   UNL     1       5.688   3.220  20.036  0.00  0.00    +0.000 HD
ENDROOT
BRANCH   1  14
ATOM      8 CL   UNL     1       8.372   7.726  18.445  0.00  0.00    +0.000 Cl
ATOM      9  C   UNL     1       7.296   6.470  17.972  0.00  0.00    +0.000 A 
ATOM     10  C   UNL     1       7.053   6.240  16.621  0.00  0.00    +0.000 A 
ATOM     11  C   UNL     1       6.163   5.233  16.245  0.00  0.00    +0.000 A 
ATOM     12  C   UNL     1       5.517   4.469  17.223  0.00  0.00    +0.000 A 
ATOM     13 CL   UNL     1       4.422   3.234  16.705  0.00  0.00    +0.000 Cl
ATOM     14  C   UNL     1       5.751   4.692  18.594  0.00  0.00    +0.000 A 
ATOM     15  C   UNL     1       6.663   5.700  18.948  0.00  0.00    +0.000 A 
ENDBRANCH   1  14
BRANCH   5  16
ATOM     16  C   UNL     1       0.719   3.448  19.485  0.00  0.00    +0.000 C 
ATOM     17 BR   UNL     1       1.414   1.961  18.435  0.00  0.00    +0.000 Br
ENDBRANCH   5  16
TORSDOF 2
ENDMDL
MODEL 8
REMARK VINA RESULT:      -5.8      3.473      6.100
REMARK  Name = 
REMARK  2 active torsions:
REMARK  status: ('A' for Active; 'I' for Inactive)
REMARK    1  A    between atoms: C_7  and  N_8
REMARK    2  A    between atoms: C_12  and  C_13
REMARK                            x       y       z     vdW  Elec       q    Type
REMARK                         _______ _______ _______ _____ _____    ______ ____
ROOT
ATOM      1  N   UNL     1       3.485   4.299  16.803  0.00  0.00    +0.000 N 
ATOM      2  C   UNL     1       3.030   3.313  17.622  0.00  0.00    +0.000 C 
ATOM      3  N   UNL     1       3.625   2.217  17.951  0.00  0.00    +0.000 NA
ATOM      4  C   UNL     1       2.719   1.379  18.759  0.00  0.00    +0.000 C 
ATOM      5  C   UNL     1       1.795   2.277  19.572  0.00  0.00    +0.000 C 
ATOM      6  S   UNL     1       1.459   3.586  18.349  0.00  0.00    +0.000 S 
ATOM      7  H   UNL     1       2.789   4.799  16.263  0.00  0.00    +0.000 HD
ENDROOT
BRANCH   1  14
ATOM      8 CL   UNL     1       7.124   4.413  13.168  0.00  0.00    +0.000 Cl
ATOM      9  C   UNL     1       6.603   4.647  14.791  0.00  0.00    +0.000 A 
ATOM     10  C   UNL     1       7.514   5.065  15.756  0.00  0.00    +0.000 A 
ATOM     11  C   UNL     1       7.090   5.233  17.075  0.00  0.00    +0.000 A 
ATOM     12  C   UNL     1       5.759   4.972  17.419  0.00  0.00    +0.000 A 
ATOM     13 CL   UNL     1       5.283   5.193  19.068  0.00  0.00    +0.000 Cl
ATOM     14  C   UNL     1       4.826   4.545  16.454  0.00  0.00    +0.000 A 
ATOM     15  C   UNL     1       5.273   4.399  15.130  0.00  0.00    +0.000 A 
ENDBRANCH   1  14
BRANCH   5  16
ATOM     16  C   UNL     1       2.510   2.768  20.828  0.00  0.00    +0.000 C 
ATOM     17 BR   UNL     1       2.208   4.670  21.122  0.00  0.00    +0.000 Br
ENDBRANCH   5  16
TORSDOF 2
ENDMDL
MODEL 9
REMARK VINA RESULT:      -5.8      3.600      5.694
REMARK  Name = 
REMARK  2 active torsions:
REMARK  status: ('A' for Active; 'I' for Inactive)
REMARK    1  A    between atoms: C_7  and  N_8
REMARK    2  A    between atoms: C_12  and  C_13
REMARK                            x       y       z     vdW  Elec       q    Type
REMARK                         _______ _______ _______ _____ _____    ______ ____
ROOT
ATOM      1  N   UNL     1       3.671   4.573  17.111  0.00  0.00    +0.000 N 
ATOM      2  C   UNL     1       2.901   3.629  17.715  0.00  0.00    +0.000 C 
ATOM      3  N   UNL     1       3.266   2.479  18.170  0.00  0.00    +0.000 NA
ATOM      4  C   UNL     1       2.084   1.725  18.630  0.00  0.00    +0.000 C 
ATOM      5  C   UNL     1       1.036   2.700  19.153  0.00  0.00    +0.000 C 
ATOM      6  S   UNL     1       1.212   4.045  17.935  0.00  0.00    +0.000 S 
ATOM      7  H   UNL     1       3.223   5.141  16.403  0.00  0.00    +0.000 HD
ENDROOT
BRANCH   1  14
ATOM      8 CL   UNL     1       7.813   5.608  19.982  0.00  0.00    +0.000 Cl
ATOM      9  C   UNL     1       7.084   5.146  18.494  0.00  0.00    +0.000 A 
ATOM     10  C   UNL     1       7.882   4.906  17.379  0.00  0.00    +0.000 A 
ATOM     11  C   UNL     1       7.284   4.552  16.169  0.00  0.00    +0.000 A 
ATOM     12  C   UNL     1       5.891   4.449  16.082  0.00  0.00    +0.000 A 
ATOM     13 CL   UNL     1       5.198   4.009  14.559  0.00  0.00    +0.000 Cl
ATOM     14  C   UNL     1       5.071   4.693  17.200  0.00  0.00    +0.000 A 
ATOM     15  C   UNL     1       5.697   5.032  18.411  0.00  0.00    +0.000 A 
ENDBRANCH   1  14
BRANCH   5  16
ATOM     16  C   UNL     1       1.369   3.111  20.585  0.00  0.00    +0.000 C 
ATOM     17 BR   UNL     1       1.738   5.020  20.711  0.00  0.00    +0.000 Br
ENDBRANCH   5  16
TORSDOF 2
ENDMDL
