MODEL 1
REMARK VINA RESULT:      -6.9      0.000      0.000
REMARK  Name = 
REMARK  2 active torsions:
REMARK  status: ('A' for Active; 'I' for Inactive)
REMARK    1  A    between atoms: C_1  and  N_2
REMARK    2  A    between atoms: C_7  and  C_8
REMARK                            x       y       z     vdW  Elec       q    Type
REMARK                         _______ _______ _______ _____ _____    ______ ____
ROOT
ATOM      1  C   UNL     1       2.005   7.429  19.627  0.00  0.00    +0.000 C 
ATOM      2  N   UNL     1       2.792   6.996  18.487  0.00  0.00    +0.000 N 
ATOM      3  C   UNL     1       3.682   7.797  17.712  0.00  0.00    +0.000 A 
ATOM      4  C   UNL     1       4.554   6.959  16.919  0.00  0.00    +0.000 A 
ATOM      5  C   UNL     1       4.100   5.649  17.248  0.00  0.00    +0.000 A 
ATOM      6  C   UNL     1       4.352   4.213  16.986  0.00  0.00    +0.000 A 
ATOM      7  C   UNL     1       5.335   3.670  16.267  0.00  0.00    +0.000 C 
ATOM      8  C   UNL     1       3.311   3.475  17.770  0.00  0.00    +0.000 A 
ATOM      9  C   UNL     1       2.969   2.138  17.840  0.00  0.00    +0.000 A 
ATOM     10  C   UNL     1       1.912   1.775  18.690  0.00  0.00    +0.000 A 
ATOM     11  C   UNL     1       1.226   2.735  19.472  0.00  0.00    +0.000 A 
ATOM     12  C   UNL     1       1.552   4.092  19.400  0.00  0.00    +0.000 A 
ATOM     13  C   UNL     1       2.569   4.422  18.541  0.00  0.00    +0.000 A 
ATOM     14  N   UNL     1       3.036   5.735  18.167  0.00  0.00    +0.000 N 
ENDROOT
BRANCH   7  15
ATOM     15  C   UNL     1       6.455   4.495  15.653  0.00  0.00    +0.000 C 
ATOM     16  N   UNL     1       7.383   5.179  15.144  0.00  0.00    +0.000 NA
ENDBRANCH   7  15
TORSDOF 1
ENDMDL
MODEL 2
REMARK VINA RESULT:      -6.8      0.988      1.092
REMARK  Name = 
REMARK  2 active torsions:
REMARK  status: ('A' for Active; 'I' for Inactive)
REMARK    1  A    between atoms: C_1  and  N_2
REMARK    2  A    between atoms: C_7  and  C_8
REMARK                            x       y       z     vdW  Elec       q    Type
REMARK                         _______ _______ _______ _____ _____    ______ ____
ROOT
ATOM      1  C   UNL     1       1.649   7.855  20.426  0.00  0.00    +0.000 C 
ATOM      2  N   UNL     1       2.214   7.387  19.175  0.00  0.00    +0.000 N 
ATOM      3  C   UNL     1       2.873   8.178  18.188  0.00  0.00    +0.000 A 
ATOM      4  C   UNL     1       3.618   7.335  17.280  0.00  0.00    +0.000 A 
ATOM      5  C   UNL     1       3.328   6.028  17.770  0.00  0.00    +0.000 A 
ATOM      6  C   UNL     1       3.616   4.593  17.544  0.00  0.00    +0.000 A 
ATOM      7  C   UNL     1       4.466   4.054  16.667  0.00  0.00    +0.000 C 
ATOM      8  C   UNL     1       2.807   3.856  18.567  0.00  0.00    +0.000 A 
ATOM      9  C   UNL     1       2.576   2.512  18.782  0.00  0.00    +0.000 A 
ATOM     10  C   UNL     1       1.741   2.153  19.853  0.00  0.00    +0.000 A 
ATOM     11  C   UNL     1       1.167   3.127  20.704  0.00  0.00    +0.000 A 
ATOM     12  C   UNL     1       1.381   4.491  20.489  0.00  0.00    +0.000 A 
ATOM     13  C   UNL     1       2.177   4.814  19.421  0.00  0.00    +0.000 A 
ATOM     14  N   UNL     1       2.471   6.121  18.883  0.00  0.00    +0.000 N 
ENDROOT
BRANCH   7  15
ATOM     15  C   UNL     1       5.380   4.893  15.789  0.00  0.00    +0.000 C 
ATOM     16  N   UNL     1       6.138   5.588  15.060  0.00  0.00    +0.000 NA
ENDBRANCH   7  15
TORSDOF 1
ENDMDL
MODEL 3
REMARK VINA RESULT:      -6.7      1.864      5.183
REMARK  Name = 
REMARK  2 active torsions:
REMARK  status: ('A' for Active; 'I' for Inactive)
REMARK    1  A    between atoms: C_1  and  N_2
REMARK    2  A    between atoms: C_7  and  C_8
REMARK                            x       y       z     vdW  Elec       q    Type
REMARK                         _______ _______ _______ _____ _____    ______ ____
ROOT
ATOM      1  C   UNL     1       3.401   1.502  18.597  0.00  0.00    +0.000 C 
ATOM      2  N   UNL     1       2.689   2.742  18.840  0.00  0.00    +0.000 N 
ATOM      3  C   UNL     1       1.684   2.969  19.826  0.00  0.00    +0.000 A 
ATOM      4  C   UNL     1       1.479   4.387  20.022  0.00  0.00    +0.000 A 
ATOM      5  C   UNL     1       2.385   4.958  19.081  0.00  0.00    +0.000 A 
ATOM      6  C   UNL     1       2.893   6.252  18.570  0.00  0.00    +0.000 A 
ATOM      7  C   UNL     1       2.613   7.478  19.015  0.00  0.00    +0.000 C 
ATOM      8  C   UNL     1       3.865   5.899  17.485  0.00  0.00    +0.000 A 
ATOM      9  C   UNL     1       4.567   6.666  16.577  0.00  0.00    +0.000 A 
ATOM     10  C   UNL     1       5.408   6.002  15.669  0.00  0.00    +0.000 A 
ATOM     11  C   UNL     1       5.555   4.594  15.688  0.00  0.00    +0.000 A 
ATOM     12  C   UNL     1       4.839   3.805  16.592  0.00  0.00    +0.000 A 
ATOM     13  C   UNL     1       4.005   4.477  17.449  0.00  0.00    +0.000 A 
ATOM     14  N   UNL     1       3.059   3.932  18.392  0.00  0.00    +0.000 N 
ENDROOT
BRANCH   7  15
ATOM     15  C   UNL     1       1.751   7.728  20.242  0.00  0.00    +0.000 C 
ATOM     16  N   UNL     1       1.036   7.936  21.259  0.00  0.00    +0.000 NA
ENDBRANCH   7  15
TORSDOF 1
ENDMDL
MODEL 4
REMARK VINA RESULT:      -6.6      1.497      1.519
REMARK  Name = 
REMARK  2 active torsions:
REMARK  status: ('A' for Active; 'I' for Inactive)
REMARK    1  A    between atoms: C_1  and  N_2
REMARK    2  A    between atoms: C_7  and  C_8
REMARK                            x       y       z     vdW  Elec       q    Type
REMARK                         _______ _______ _______ _____ _____    ______ ____
ROOT
ATOM      1  C   UNL     1       1.627   8.016  20.022  0.00  0.00    +0.000 C 
ATOM      2  N   UNL     1       2.439   7.402  18.989  0.00  0.00    +0.000 N 
ATOM      3  C   UNL     1       3.050   8.060  17.881  0.00  0.00    +0.000 A 
ATOM      4  C   UNL     1       4.067   7.218  17.291  0.00  0.00    +0.000 A 
ATOM      5  C   UNL     1       3.985   6.039  18.088  0.00  0.00    +0.000 A 
ATOM      6  C   UNL     1       4.587   4.698  18.275  0.00  0.00    +0.000 A 
ATOM      7  C   UNL     1       5.639   4.175  17.644  0.00  0.00    +0.000 C 
ATOM      8  C   UNL     1       3.814   4.065  19.392  0.00  0.00    +0.000 A 
ATOM      9  C   UNL     1       3.833   2.797  19.939  0.00  0.00    +0.000 A 
ATOM     10  C   UNL     1       2.952   2.526  20.998  0.00  0.00    +0.000 A 
ATOM     11  C   UNL     1       2.082   3.517  21.511  0.00  0.00    +0.000 A 
ATOM     12  C   UNL     1       2.041   4.800  20.958  0.00  0.00    +0.000 A 
ATOM     13  C   UNL     1       2.893   5.030  19.907  0.00  0.00    +0.000 A 
ATOM     14  N   UNL     1       2.984   6.198  19.065  0.00  0.00    +0.000 N 
ENDROOT
BRANCH   7  15
ATOM     15  C   UNL     1       6.474   4.963  16.647  0.00  0.00    +0.000 C 
ATOM     16  N   UNL     1       7.166   5.617  15.822  0.00  0.00    +0.000 NA
ENDBRANCH   7  15
TORSDOF 1
ENDMDL
MODEL 5
REMARK VINA RESULT:      -6.6      1.997      4.403
REMARK  Name = 
REMARK  2 active torsions:
REMARK  status: ('A' for Active; 'I' for Inactive)
REMARK    1  A    between atoms: C_1  and  N_2
REMARK    2  A    between atoms: C_7  and  C_8
REMARK                            x       y       z     vdW  Elec       q    Type
REMARK                         _______ _______ _______ _____ _____    ______ ____
ROOT
ATOM      1  C   UNL     1       2.292   8.750  17.891  0.00  0.00    +0.000 C 
ATOM      2  N   UNL     1       2.486   7.693  18.865  0.00  0.00    +0.000 N 
ATOM      3  C   UNL     1       1.773   7.519  20.088  0.00  0.00    +0.000 A 
ATOM      4  C   UNL     1       1.969   6.182  20.601  0.00  0.00    +0.000 A 
ATOM      5  C   UNL     1       2.851   5.612  19.637  0.00  0.00    +0.000 A 
ATOM      6  C   UNL     1       3.569   4.364  19.288  0.00  0.00    +0.000 A 
ATOM      7  C   UNL     1       3.493   3.177  19.892  0.00  0.00    +0.000 C 
ATOM      8  C   UNL     1       4.351   4.685  18.052  0.00  0.00    +0.000 A 
ATOM      9  C   UNL     1       5.286   3.972  17.328  0.00  0.00    +0.000 A 
ATOM     10  C   UNL     1       5.846   4.585  16.195  0.00  0.00    +0.000 A 
ATOM     11  C   UNL     1       5.457   5.883  15.787  0.00  0.00    +0.000 A 
ATOM     12  C   UNL     1       4.524   6.622  16.518  0.00  0.00    +0.000 A 
ATOM     13  C   UNL     1       4.014   6.010  17.635  0.00  0.00    +0.000 A 
ATOM     14  N   UNL     1       3.142   6.564  18.642  0.00  0.00    +0.000 N 
ENDROOT
BRANCH   7  15
ATOM     15  C   UNL     1       2.531   2.898  21.036  0.00  0.00    +0.000 C 
ATOM     16  N   UNL     1       1.734   2.666  21.984  0.00  0.00    +0.000 NA
ENDBRANCH   7  15
TORSDOF 1
ENDMDL
MODEL 6
REMARK VINA RESULT:      -6.6      2.094      4.981
REMARK  Name = 
REMARK  2 active torsions:
REMARK  status: ('A' for Active; 'I' for Inactive)
REMARK    1  A    between atoms: C_1  and  N_2
REMARK    2  A    between atoms: C_7  and  C_8
REMARK                            x       y       z     vdW  Elec       q    Type
REMARK                         _______ _______ _______ _____ _____    ______ ____
ROOT
ATOM      1  C   UNL     1       4.090   2.536  20.079  0.00  0.00    +0.000 C 
ATOM      2  N   UNL     1       3.250   3.689  19.819  0.00  0.00    +0.000 N 
ATOM      3  C   UNL     1       2.203   4.187  20.649  0.00  0.00    +0.000 A 
ATOM      4  C   UNL     1       1.850   5.536  20.265  0.00  0.00    +0.000 A 
ATOM      5  C   UNL     1       2.716   5.773  19.159  0.00  0.00    +0.000 A 
ATOM      6  C   UNL     1       3.103   6.800  18.164  0.00  0.00    +0.000 A 
ATOM      7  C   UNL     1       2.689   8.065  18.086  0.00  0.00    +0.000 C 
ATOM      8  C   UNL     1       4.132   6.145  17.293  0.00  0.00    +0.000 A 
ATOM      9  C   UNL     1       4.775   6.553  16.141  0.00  0.00    +0.000 A 
ATOM     10  C   UNL     1       5.701   5.672  15.559  0.00  0.00    +0.000 A 
ATOM     11  C   UNL     1       5.990   4.412  16.137  0.00  0.00    +0.000 A 
ATOM     12  C   UNL     1       5.335   3.981  17.294  0.00  0.00    +0.000 A 
ATOM     13  C   UNL     1       4.417   4.849  17.826  0.00  0.00    +0.000 A 
ATOM     14  N   UNL     1       3.508   4.633  18.925  0.00  0.00    +0.000 N 
ENDROOT
BRANCH   7  15
ATOM     15  C   UNL     1       1.776   8.695  19.126  0.00  0.00    +0.000 C 
ATOM     16  N   UNL     1       1.019   9.218  19.988  0.00  0.00    +0.000 NA
ENDBRANCH   7  15
TORSDOF 1
ENDMDL
MODEL 7
REMARK VINA RESULT:      -6.5      1.378      3.792
REMARK  Name = 
REMARK  2 active torsions:
REMARK  status: ('A' for Active; 'I' for Inactive)
REMARK    1  A    between atoms: C_1  and  N_2
REMARK    2  A    between atoms: C_7  and  C_8
REMARK                            x       y       z     vdW  Elec       q    Type
REMARK                         _______ _______ _______ _____ _____    ______ ____
ROOT
ATOM      1  C   UNL     1       5.929   3.624  15.747  0.00  0.00    +0.000 C 
ATOM      2  N   UNL     1       5.423   4.797  16.433  0.00  0.00    +0.000 N 
ATOM      3  C   UNL     1       5.819   6.149  16.216  0.00  0.00    +0.000 A 
ATOM      4  C   UNL     1       4.855   7.058  16.796  0.00  0.00    +0.000 A 
ATOM      5  C   UNL     1       3.911   6.165  17.383  0.00  0.00    +0.000 A 
ATOM      6  C   UNL     1       2.639   6.127  18.140  0.00  0.00    +0.000 A 
ATOM      7  C   UNL     1       1.850   7.149  18.474  0.00  0.00    +0.000 C 
ATOM      8  C   UNL     1       2.368   4.675  18.393  0.00  0.00    +0.000 A 
ATOM      9  C   UNL     1       1.403   4.021  19.133  0.00  0.00    +0.000 A 
ATOM     10  C   UNL     1       1.440   2.617  19.166  0.00  0.00    +0.000 A 
ATOM     11  C   UNL     1       2.417   1.885  18.449  0.00  0.00    +0.000 A 
ATOM     12  C   UNL     1       3.408   2.534  17.708  0.00  0.00    +0.000 A 
ATOM     13  C   UNL     1       3.364   3.905  17.716  0.00  0.00    +0.000 A 
ATOM     14  N   UNL     1       4.314   4.836  17.155  0.00  0.00    +0.000 N 
ENDROOT
BRANCH   7  15
ATOM     15  C   UNL     1       2.117   8.574  18.016  0.00  0.00    +0.000 C 
ATOM     16  N   UNL     1       2.338   9.756  17.638  0.00  0.00    +0.000 NA
ENDBRANCH   7  15
TORSDOF 1
ENDMDL
MODEL 8
REMARK VINA RESULT:      -6.3      1.867      5.202
REMARK  Name = 
REMARK  2 active torsions:
REMARK  status: ('A' for Active; 'I' for Inactive)
REMARK    1  A    between atoms: C_1  and  N_2
REMARK    2  A    between atoms: C_7  and  C_8
REMARK                            x       y       z     vdW  Elec       q    Type
REMARK                         _______ _______ _______ _____ _____    ______ ____
ROOT
ATOM      1  C   UNL     1       5.133   5.955  16.045  0.00  0.00    +0.000 C 
ATOM      2  N   UNL     1       4.346   5.193  16.996  0.00  0.00    +0.000 N 
ATOM      3  C   UNL     1       4.510   3.817  17.331  0.00  0.00    +0.000 A 
ATOM      4  C   UNL     1       3.813   3.509  18.560  0.00  0.00    +0.000 A 
ATOM      5  C   UNL     1       3.217   4.759  18.893  0.00  0.00    +0.000 A 
ATOM      6  C   UNL     1       2.379   5.431  19.913  0.00  0.00    +0.000 A 
ATOM      7  C   UNL     1       1.933   4.933  21.068  0.00  0.00    +0.000 C 
ATOM      8  C   UNL     1       2.194   6.833  19.419  0.00  0.00    +0.000 A 
ATOM      9  C   UNL     1       1.429   7.890  19.873  0.00  0.00    +0.000 A 
ATOM     10  C   UNL     1       1.482   9.095  19.154  0.00  0.00    +0.000 A 
ATOM     11  C   UNL     1       2.305   9.241  18.011  0.00  0.00    +0.000 A 
ATOM     12  C   UNL     1       3.073   8.176  17.532  0.00  0.00    +0.000 A 
ATOM     13  C   UNL     1       2.981   7.003  18.237  0.00  0.00    +0.000 A 
ATOM     14  N   UNL     1       3.549   5.717  17.916  0.00  0.00    +0.000 N 
ENDROOT
BRANCH   7  15
ATOM     15  C   UNL     1       2.323   3.553  21.571  0.00  0.00    +0.000 C 
ATOM     16  N   UNL     1       2.646   2.408  21.987  0.00  0.00    +0.000 NA
ENDBRANCH   7  15
TORSDOF 1
ENDMDL
MODEL 9
REMARK VINA RESULT:      -6.2      1.558      3.986
REMARK  Name = 
REMARK  2 active torsions:
REMARK  status: ('A' for Active; 'I' for Inactive)
REMARK    1  A    between atoms: C_1  and  N_2
REMARK    2  A    between atoms: C_7  and  C_8
REMARK                            x       y       z     vdW  Elec       q    Type
REMARK                         _______ _______ _______ _____ _____    ______ ____
ROOT
ATOM      1  C   UNL     1       5.195   3.597  16.438  0.00  0.00    +0.000 C 
ATOM      2  N   UNL     1       4.867   4.919  16.936  0.00  0.00    +0.000 N 
ATOM      3  C   UNL     1       5.191   6.165  16.322  0.00  0.00    +0.000 A 
ATOM      4  C   UNL     1       4.395   7.231  16.890  0.00  0.00    +0.000 A 
ATOM      5  C   UNL     1       3.629   6.544  17.877  0.00  0.00    +0.000 A 
ATOM      6  C   UNL     1       2.582   6.744  18.906  0.00  0.00    +0.000 A 
ATOM      7  C   UNL     1       1.894   7.856  19.173  0.00  0.00    +0.000 C 
ATOM      8  C   UNL     1       2.388   5.403  19.545  0.00  0.00    +0.000 A 
ATOM      9  C   UNL     1       1.638   4.984  20.626  0.00  0.00    +0.000 A 
ATOM     10  C   UNL     1       1.689   3.624  20.973  0.00  0.00    +0.000 A 
ATOM     11  C   UNL     1       2.463   2.699  20.232  0.00  0.00    +0.000 A 
ATOM     12  C   UNL     1       3.238   3.111  19.145  0.00  0.00    +0.000 A 
ATOM     13  C   UNL     1       3.191   4.449  18.846  0.00  0.00    +0.000 A 
ATOM     14  N   UNL     1       3.969   5.178  17.874  0.00  0.00    +0.000 N 
ENDROOT
BRANCH   7  15
ATOM     15  C   UNL     1       2.034   9.125  18.348  0.00  0.00    +0.000 C 
ATOM     16  N   UNL     1       2.150  10.177  17.664  0.00  0.00    +0.000 NA
ENDBRANCH   7  15
TORSDOF 1
ENDMDL
