MODEL 1
REMARK VINA RESULT:      -8.2      0.000      0.000
REMARK  Name = 
REMARK  6 active torsions:
REMARK  status: ('A' for Active; 'I' for Inactive)
REMARK    1  A    between atoms: C_5  and  C_6
REMARK    2  A    between atoms: C_6  and  SE_7
REMARK    3  A    between atoms: SE_7  and  C_8
REMARK    4  A    between atoms: C_8  and  C_9
REMARK    5  A    between atoms: C_8  and  C_15
REMARK    6  A    between atoms: C_9  and  N_10
REMARK                            x       y       z     vdW  Elec       q    Type
REMARK                         _______ _______ _______ _____ _____    ______ ____
ROOT
ATOM      1  C   UNL     1       4.110   6.064  17.914  0.00  0.00    +0.000 C 
ENDROOT
BRANCH   1   2
ATOM      2  C   UNL     1       3.074   7.036  18.541  0.00  0.00    +0.000 A 
ATOM      3  C   UNL     1       2.718   8.203  17.820  0.00  0.00    +0.000 A 
ATOM      4  C   UNL     1       1.761   9.100  18.311  0.00  0.00    +0.000 A 
ATOM      5  C   UNL     1       1.145   8.868  19.537  0.00  0.00    +0.000 A 
ATOM      6  F   UNL     1       0.216   9.734  20.014  0.00  0.00    +0.000 F 
ATOM      7  C   UNL     1       1.484   7.743  20.277  0.00  0.00    +0.000 A 
ATOM      8  C   UNL     1       2.429   6.833  19.801  0.00  0.00    +0.000 A 
ATOM      9  F   UNL     1       2.670   5.775  20.606  0.00  0.00    +0.000 F 
ENDBRANCH   1   2
BRANCH   1  10
ATOM     10 SE   UNL     1       3.251   4.546  16.962  0.00  0.00    +0.000 Se
BRANCH  10  11
ATOM     11  C   UNL     1       3.859   2.901  17.830  0.00  0.00    +0.000 C 
BRANCH  11  16
ATOM     12  F   UNL     1       0.735   2.606  22.579  0.00  0.00    +0.000 F 
ATOM     13  C   UNL     1       1.485   2.654  21.449  0.00  0.00    +0.000 A 
ATOM     14  C   UNL     1       0.871   2.876  20.215  0.00  0.00    +0.000 A 
ATOM     15  C   UNL     1       1.643   2.935  19.049  0.00  0.00    +0.000 A 
ATOM     16  C   UNL     1       3.041   2.778  19.101  0.00  0.00    +0.000 A 
ATOM     17  C   UNL     1       3.651   2.545  20.352  0.00  0.00    +0.000 A 
ATOM     18  C   UNL     1       2.871   2.485  21.518  0.00  0.00    +0.000 A 
ENDBRANCH  11  16
ENDBRANCH  10  11
ENDBRANCH   1  10
BRANCH   1  19
ATOM     19  C   UNL     1       5.072   6.826  16.967  0.00  0.00    +0.000 C 
BRANCH  19  20
ATOM     20  N   UNL     1       6.043   5.932  16.338  0.00  0.00    +0.000 N 
ATOM     21  C   UNL     1       7.022   5.248  16.955  0.00  0.00    +0.000 A 
ATOM     22  N   UNL     1       7.733   4.530  16.066  0.00  0.00    +0.000 NA
ATOM     23  C   UNL     1       7.139   4.816  14.889  0.00  0.00    +0.000 A 
ATOM     24  N   UNL     1       6.113   5.673  15.042  0.00  0.00    +0.000 NA
ENDBRANCH  19  20
ENDBRANCH   1  19
TORSDOF 6
ENDMDL
MODEL 2
REMARK VINA RESULT:      -7.8      1.382      4.696
REMARK  Name = 
REMARK  6 active torsions:
REMARK  status: ('A' for Active; 'I' for Inactive)
REMARK    1  A    between atoms: C_5  and  C_6
REMARK    2  A    between atoms: C_6  and  SE_7
REMARK    3  A    between atoms: SE_7  and  C_8
REMARK    4  A    between atoms: C_8  and  C_9
REMARK    5  A    between atoms: C_8  and  C_15
REMARK    6  A    between atoms: C_9  and  N_10
REMARK                            x       y       z     vdW  Elec       q    Type
REMARK                         _______ _______ _______ _____ _____    ______ ____
ROOT
ATOM      1  C   UNL     1       3.716   4.495  17.503  0.00  0.00    +0.000 C 
ENDROOT
BRANCH   1   2
ATOM      2  C   UNL     1       2.969   3.930  18.742  0.00  0.00    +0.000 A 
ATOM      3  C   UNL     1       1.555   4.028  18.783  0.00  0.00    +0.000 A 
ATOM      4  C   UNL     1       0.819   3.503  19.853  0.00  0.00    +0.000 A 
ATOM      5  C   UNL     1       1.470   2.883  20.915  0.00  0.00    +0.000 A 
ATOM      6  F   UNL     1       0.759   2.373  21.951  0.00  0.00    +0.000 F 
ATOM      7  C   UNL     1       2.854   2.788  20.915  0.00  0.00    +0.000 A 
ATOM      8  C   UNL     1       3.605   3.296  19.855  0.00  0.00    +0.000 A 
ATOM      9  F   UNL     1       4.943   3.137  19.964  0.00  0.00    +0.000 F 
ENDBRANCH   1   2
BRANCH   1  10
ATOM     10 SE   UNL     1       4.483   6.298  17.835  0.00  0.00    +0.000 Se
BRANCH  10  11
ATOM     11  C   UNL     1       3.221   7.605  17.106  0.00  0.00    +0.000 C 
BRANCH  11  16
ATOM     12  F   UNL     1       0.169   9.494  21.525  0.00  0.00    +0.000 F 
ATOM     13  C   UNL     1       0.883   9.025  20.470  0.00  0.00    +0.000 A 
ATOM     14  C   UNL     1       0.887   9.729  19.264  0.00  0.00    +0.000 A 
ATOM     15  C   UNL     1       1.629   9.254  18.177  0.00  0.00    +0.000 A 
ATOM     16  C   UNL     1       2.382   8.069  18.282  0.00  0.00    +0.000 A 
ATOM     17  C   UNL     1       2.364   7.360  19.502  0.00  0.00    +0.000 A 
ATOM     18  C   UNL     1       1.616   7.841  20.588  0.00  0.00    +0.000 A 
ENDBRANCH  11  16
ENDBRANCH  10  11
ENDBRANCH   1  10
BRANCH   1  19
ATOM     19  C   UNL     1       4.820   3.513  17.035  0.00  0.00    +0.000 C 
BRANCH  19  20
ATOM     20  N   UNL     1       5.722   4.127  16.062  0.00  0.00    +0.000 N 
ATOM     21  C   UNL     1       6.989   4.525  16.280  0.00  0.00    +0.000 A 
ATOM     22  N   UNL     1       7.519   5.055  15.162  0.00  0.00    +0.000 NA
ATOM     23  C   UNL     1       6.514   4.960  14.266  0.00  0.00    +0.000 A 
ATOM     24  N   UNL     1       5.415   4.403  14.805  0.00  0.00    +0.000 NA
ENDBRANCH  19  20
ENDBRANCH   1  19
TORSDOF 6
ENDMDL
MODEL 3
REMARK VINA RESULT:      -7.8      3.313      6.550
REMARK  Name = 
REMARK  6 active torsions:
REMARK  status: ('A' for Active; 'I' for Inactive)
REMARK    1  A    between atoms: C_5  and  C_6
REMARK    2  A    between atoms: C_6  and  SE_7
REMARK    3  A    between atoms: SE_7  and  C_8
REMARK    4  A    between atoms: C_8  and  C_9
REMARK    5  A    between atoms: C_8  and  C_15
REMARK    6  A    between atoms: C_9  and  N_10
REMARK                            x       y       z     vdW  Elec       q    Type
REMARK                         _______ _______ _______ _____ _____    ______ ____
ROOT
ATOM      1  C   UNL     1       4.895   4.119  18.598  0.00  0.00    +0.000 C 
ENDROOT
BRANCH   1   2
ATOM      2  C   UNL     1       5.610   4.304  17.232  0.00  0.00    +0.000 A 
ATOM      3  C   UNL     1       4.852   4.141  16.045  0.00  0.00    +0.000 A 
ATOM      4  C   UNL     1       5.427   4.332  14.781  0.00  0.00    +0.000 A 
ATOM      5  C   UNL     1       6.771   4.675  14.667  0.00  0.00    +0.000 A 
ATOM      6  F   UNL     1       7.329   4.863  13.445  0.00  0.00    +0.000 F 
ATOM      7  C   UNL     1       7.545   4.825  15.809  0.00  0.00    +0.000 A 
ATOM      8  C   UNL     1       6.989   4.647  17.076  0.00  0.00    +0.000 A 
ATOM      9  F   UNL     1       7.839   4.827  18.112  0.00  0.00    +0.000 F 
ENDBRANCH   1   2
BRANCH   1  10
ATOM     10 SE   UNL     1       4.194   5.829  19.328  0.00  0.00    +0.000 Se
BRANCH  10  11
ATOM     11  C   UNL     1       2.960   6.561  17.997  0.00  0.00    +0.000 C 
BRANCH  11  16
ATOM     12  F   UNL     1       0.105  10.723  20.630  0.00  0.00    +0.000 F 
ATOM     13  C   UNL     1       0.803   9.746  19.999  0.00  0.00    +0.000 A 
ATOM     14  C   UNL     1       1.214   8.615  20.708  0.00  0.00    +0.000 A 
ATOM     15  C   UNL     1       1.926   7.601  20.059  0.00  0.00    +0.000 A 
ATOM     16  C   UNL     1       2.234   7.700  18.689  0.00  0.00    +0.000 A 
ATOM     17  C   UNL     1       1.823   8.851  17.983  0.00  0.00    +0.000 A 
ATOM     18  C   UNL     1       1.111   9.866  18.641  0.00  0.00    +0.000 A 
ENDBRANCH  11  16
ENDBRANCH  10  11
ENDBRANCH   1  10
BRANCH   1  19
ATOM     19  C   UNL     1       3.759   3.071  18.485  0.00  0.00    +0.000 C 
BRANCH  19  20
ATOM     20  N   UNL     1       3.032   2.912  19.743  0.00  0.00    +0.000 N 
ATOM     21  C   UNL     1       3.540   2.501  20.918  0.00  0.00    +0.000 A 
ATOM     22  N   UNL     1       2.582   2.464  21.863  0.00  0.00    +0.000 NA
ATOM     23  C   UNL     1       1.478   2.870  21.202  0.00  0.00    +0.000 A 
ATOM     24  N   UNL     1       1.739   3.140  19.910  0.00  0.00    +0.000 NA
ENDBRANCH  19  20
ENDBRANCH   1  19
TORSDOF 6
ENDMDL
MODEL 4
REMARK VINA RESULT:      -7.8      3.314      6.507
REMARK  Name = 
REMARK  6 active torsions:
REMARK  status: ('A' for Active; 'I' for Inactive)
REMARK    1  A    between atoms: C_5  and  C_6
REMARK    2  A    between atoms: C_6  and  SE_7
REMARK    3  A    between atoms: SE_7  and  C_8
REMARK    4  A    between atoms: C_8  and  C_9
REMARK    5  A    between atoms: C_8  and  C_15
REMARK    6  A    between atoms: C_9  and  N_10
REMARK                            x       y       z     vdW  Elec       q    Type
REMARK                         _______ _______ _______ _____ _____    ______ ____
ROOT
ATOM      1  C   UNL     1       4.825   4.004  18.647  0.00  0.00    +0.000 C 
ENDROOT
BRANCH   1   2
ATOM      2  C   UNL     1       5.546   4.221  17.289  0.00  0.00    +0.000 A 
ATOM      3  C   UNL     1       4.799   4.069  16.094  0.00  0.00    +0.000 A 
ATOM      4  C   UNL     1       5.379   4.289  14.838  0.00  0.00    +0.000 A 
ATOM      5  C   UNL     1       6.719   4.649  14.738  0.00  0.00    +0.000 A 
ATOM      6  F   UNL     1       7.283   4.865  13.523  0.00  0.00    +0.000 F 
ATOM      7  C   UNL     1       7.484   4.789  15.888  0.00  0.00    +0.000 A 
ATOM      8  C   UNL     1       6.922   4.583  17.148  0.00  0.00    +0.000 A 
ATOM      9  F   UNL     1       7.763   4.756  18.192  0.00  0.00    +0.000 F 
ENDBRANCH   1   2
BRANCH   1  10
ATOM     10 SE   UNL     1       4.151   5.702  19.430  0.00  0.00    +0.000 Se
BRANCH  10  11
ATOM     11  C   UNL     1       3.331   6.722  17.975  0.00  0.00    +0.000 C 
BRANCH  11  16
ATOM     12  F   UNL     1      -0.014  10.606  20.451  0.00  0.00    +0.000 F 
ATOM     13  C   UNL     1       0.766   9.665  19.863  0.00  0.00    +0.000 A 
ATOM     14  C   UNL     1       1.116   9.791  18.517  0.00  0.00    +0.000 A 
ATOM     15  C   UNL     1       1.928   8.826  17.910  0.00  0.00    +0.000 A 
ATOM     16  C   UNL     1       2.408   7.724  18.643  0.00  0.00    +0.000 A 
ATOM     17  C   UNL     1       2.041   7.600  19.999  0.00  0.00    +0.000 A 
ATOM     18  C   UNL     1       1.224   8.570  20.602  0.00  0.00    +0.000 A 
ENDBRANCH  11  16
ENDBRANCH  10  11
ENDBRANCH   1  10
BRANCH   1  19
ATOM     19  C   UNL     1       3.672   2.979  18.498  0.00  0.00    +0.000 C 
BRANCH  19  20
ATOM     20  N   UNL     1       2.871   2.875  19.716  0.00  0.00    +0.000 N 
ATOM     21  C   UNL     1       3.311   2.539  20.941  0.00  0.00    +0.000 A 
ATOM     22  N   UNL     1       2.297   2.534  21.826  0.00  0.00    +0.000 NA
ATOM     23  C   UNL     1       1.229   2.881  21.077  0.00  0.00    +0.000 A 
ATOM     24  N   UNL     1       1.566   3.084  19.790  0.00  0.00    +0.000 NA
ENDBRANCH  19  20
ENDBRANCH   1  19
TORSDOF 6
ENDMDL
MODEL 5
REMARK VINA RESULT:      -7.8      1.224      1.874
REMARK  Name = 
REMARK  6 active torsions:
REMARK  status: ('A' for Active; 'I' for Inactive)
REMARK    1  A    between atoms: C_5  and  C_6
REMARK    2  A    between atoms: C_6  and  SE_7
REMARK    3  A    between atoms: SE_7  and  C_8
REMARK    4  A    between atoms: C_8  and  C_9
REMARK    5  A    between atoms: C_8  and  C_15
REMARK    6  A    between atoms: C_9  and  N_10
REMARK                            x       y       z     vdW  Elec       q    Type
REMARK                         _______ _______ _______ _____ _____    ______ ____
ROOT
ATOM      1  C   UNL     1       4.209   5.847  17.827  0.00  0.00    +0.000 C 
ENDROOT
BRANCH   1   2
ATOM      2  C   UNL     1       3.199   6.875  18.408  0.00  0.00    +0.000 A 
ATOM      3  C   UNL     1       2.891   8.028  17.643  0.00  0.00    +0.000 A 
ATOM      4  C   UNL     1       1.960   8.973  18.091  0.00  0.00    +0.000 A 
ATOM      5  C   UNL     1       1.324   8.804  19.317  0.00  0.00    +0.000 A 
ATOM      6  F   UNL     1       0.420   9.716  19.753  0.00  0.00    +0.000 F 
ATOM      7  C   UNL     1       1.616   7.695  20.099  0.00  0.00    +0.000 A 
ATOM      8  C   UNL     1       2.534   6.738  19.666  0.00  0.00    +0.000 A 
ATOM      9  F   UNL     1       2.730   5.701  20.510  0.00  0.00    +0.000 F 
ENDBRANCH   1   2
BRANCH   1  10
ATOM     10 SE   UNL     1       3.312   4.374  16.840  0.00  0.00    +0.000 Se
BRANCH  10  11
ATOM     11  C   UNL     1       3.744   2.708  17.773  0.00  0.00    +0.000 C 
BRANCH  11  16
ATOM     12  F   UNL     1       0.748   2.628  22.613  0.00  0.00    +0.000 F 
ATOM     13  C   UNL     1       1.458   2.669  21.457  0.00  0.00    +0.000 A 
ATOM     14  C   UNL     1       2.836   2.449  21.478  0.00  0.00    +0.000 A 
ATOM     15  C   UNL     1       3.570   2.483  20.287  0.00  0.00    +0.000 A 
ATOM     16  C   UNL     1       2.934   2.732  19.056  0.00  0.00    +0.000 A 
ATOM     17  C   UNL     1       1.542   2.962  19.046  0.00  0.00    +0.000 A 
ATOM     18  C   UNL     1       0.812   2.930  20.245  0.00  0.00    +0.000 A 
ENDBRANCH  11  16
ENDBRANCH  10  11
ENDBRANCH   1  10
BRANCH   1  19
ATOM     19  C   UNL     1       5.249   6.554  16.920  0.00  0.00    +0.000 C 
BRANCH  19  20
ATOM     20  N   UNL     1       6.499   6.823  17.628  0.00  0.00    +0.000 N 
ATOM     21  C   UNL     1       7.285   7.906  17.488  0.00  0.00    +0.000 A 
ATOM     22  N   UNL     1       8.362   7.817  18.291  0.00  0.00    +0.000 NA
ATOM     23  C   UNL     1       8.189   6.634  18.915  0.00  0.00    +0.000 A 
ATOM     24  N   UNL     1       7.061   6.018  18.515  0.00  0.00    +0.000 NA
ENDBRANCH  19  20
ENDBRANCH   1  19
TORSDOF 6
ENDMDL
MODEL 6
REMARK VINA RESULT:      -7.6      1.428      5.196
REMARK  Name = 
REMARK  6 active torsions:
REMARK  status: ('A' for Active; 'I' for Inactive)
REMARK    1  A    between atoms: C_5  and  C_6
REMARK    2  A    between atoms: C_6  and  SE_7
REMARK    3  A    between atoms: SE_7  and  C_8
REMARK    4  A    between atoms: C_8  and  C_9
REMARK    5  A    between atoms: C_8  and  C_15
REMARK    6  A    between atoms: C_9  and  N_10
REMARK                            x       y       z     vdW  Elec       q    Type
REMARK                         _______ _______ _______ _____ _____    ______ ____
ROOT
ATOM      1  C   UNL     1       3.748   4.387  17.673  0.00  0.00    +0.000 C 
ENDROOT
BRANCH   1   2
ATOM      2  C   UNL     1       2.936   3.767  18.843  0.00  0.00    +0.000 A 
ATOM      3  C   UNL     1       3.640   3.295  19.980  0.00  0.00    +0.000 A 
ATOM      4  C   UNL     1       2.965   2.761  21.085  0.00  0.00    +0.000 A 
ATOM      5  C   UNL     1       1.576   2.668  21.081  0.00  0.00    +0.000 A 
ATOM      6  F   UNL     1       0.920   2.153  22.151  0.00  0.00    +0.000 F 
ATOM      7  C   UNL     1       0.858   3.104  19.977  0.00  0.00    +0.000 A 
ATOM      8  C   UNL     1       1.512   3.647  18.870  0.00  0.00    +0.000 A 
ATOM      9  F   UNL     1       0.706   4.043  17.859  0.00  0.00    +0.000 F 
ENDBRANCH   1   2
BRANCH   1  10
ATOM     10 SE   UNL     1       3.581   6.365  17.596  0.00  0.00    +0.000 Se
BRANCH  10  11
ATOM     11  C   UNL     1       3.179   6.982  19.410  0.00  0.00    +0.000 C 
BRANCH  11  16
ATOM     12  F   UNL     1      -0.729  11.074  18.789  0.00  0.00    +0.000 F 
ATOM     13  C   UNL     1       0.186  10.084  18.941  0.00  0.00    +0.000 A 
ATOM     14  C   UNL     1       0.947   9.665  17.848  0.00  0.00    +0.000 A 
ATOM     15  C   UNL     1       1.897   8.650  18.004  0.00  0.00    +0.000 A 
ATOM     16  C   UNL     1       2.104   8.042  19.257  0.00  0.00    +0.000 A 
ATOM     17  C   UNL     1       1.323   8.465  20.353  0.00  0.00    +0.000 A 
ATOM     18  C   UNL     1       0.370   9.483  20.190  0.00  0.00    +0.000 A 
ENDBRANCH  11  16
ENDBRANCH  10  11
ENDBRANCH   1  10
BRANCH   1  19
ATOM     19  C   UNL     1       5.239   3.971  17.760  0.00  0.00    +0.000 C 
BRANCH  19  20
ATOM     20  N   UNL     1       5.975   4.316  16.546  0.00  0.00    +0.000 N 
ATOM     21  C   UNL     1       7.040   5.132  16.456  0.00  0.00    +0.000 A 
ATOM     22  N   UNL     1       7.459   5.228  15.180  0.00  0.00    +0.000 NA
ATOM     23  C   UNL     1       6.598   4.435  14.509  0.00  0.00    +0.000 A 
ATOM     24  N   UNL     1       5.687   3.880  15.330  0.00  0.00    +0.000 NA
ENDBRANCH  19  20
ENDBRANCH   1  19
TORSDOF 6
ENDMDL
MODEL 7
REMARK VINA RESULT:      -7.6      1.537      5.257
REMARK  Name = 
REMARK  6 active torsions:
REMARK  status: ('A' for Active; 'I' for Inactive)
REMARK    1  A    between atoms: C_5  and  C_6
REMARK    2  A    between atoms: C_6  and  SE_7
REMARK    3  A    between atoms: SE_7  and  C_8
REMARK    4  A    between atoms: C_8  and  C_9
REMARK    5  A    between atoms: C_8  and  C_15
REMARK    6  A    between atoms: C_9  and  N_10
REMARK                            x       y       z     vdW  Elec       q    Type
REMARK                         _______ _______ _______ _____ _____    ______ ____
ROOT
ATOM      1  C   UNL     1       3.820   4.722  17.578  0.00  0.00    +0.000 C 
ENDROOT
BRANCH   1   2
ATOM      2  C   UNL     1       2.990   4.012  18.683  0.00  0.00    +0.000 A 
ATOM      3  C   UNL     1       3.664   3.536  19.835  0.00  0.00    +0.000 A 
ATOM      4  C   UNL     1       2.969   2.922  20.885  0.00  0.00    +0.000 A 
ATOM      5  C   UNL     1       1.590   2.752  20.808  0.00  0.00    +0.000 A 
ATOM      6  F   UNL     1       0.914   2.160  21.824  0.00  0.00    +0.000 F 
ATOM      7  C   UNL     1       0.902   3.191  19.685  0.00  0.00    +0.000 A 
ATOM      8  C   UNL     1       1.575   3.813  18.633  0.00  0.00    +0.000 A 
ATOM      9  F   UNL     1       0.798   4.203  17.599  0.00  0.00    +0.000 F 
ENDBRANCH   1   2
BRANCH   1  10
ATOM     10 SE   UNL     1       3.692   6.702  17.684  0.00  0.00    +0.000 Se
BRANCH  10  11
ATOM     11  C   UNL     1       2.992   7.141  19.459  0.00  0.00    +0.000 C 
BRANCH  11  16
ATOM     12  F   UNL     1      -1.021  11.104  18.688  0.00  0.00    +0.000 F 
ATOM     13  C   UNL     1      -0.048  10.174  18.866  0.00  0.00    +0.000 A 
ATOM     14  C   UNL     1       0.224   9.687  20.145  0.00  0.00    +0.000 A 
ATOM     15  C   UNL     1       1.221   8.723  20.331  0.00  0.00    +0.000 A 
ATOM     16  C   UNL     1       1.955   8.226  19.237  0.00  0.00    +0.000 A 
ATOM     17  C   UNL     1       1.679   8.732  17.949  0.00  0.00    +0.000 A 
ATOM     18  C   UNL     1       0.680   9.701  17.770  0.00  0.00    +0.000 A 
ENDBRANCH  11  16
ENDBRANCH  10  11
ENDBRANCH   1  10
BRANCH   1  19
ATOM     19  C   UNL     1       5.302   4.271  17.632  0.00  0.00    +0.000 C 
BRANCH  19  20
ATOM     20  N   UNL     1       5.983   4.475  16.355  0.00  0.00    +0.000 N 
ATOM     21  C   UNL     1       7.003   5.319  16.114  0.00  0.00    +0.000 A 
ATOM     22  N   UNL     1       7.378   5.254  14.824  0.00  0.00    +0.000 NA
ATOM     23  C   UNL     1       6.539   4.336  14.301  0.00  0.00    +0.000 A 
ATOM     24  N   UNL     1       5.682   3.860  15.223  0.00  0.00    +0.000 NA
ENDBRANCH  19  20
ENDBRANCH   1  19
TORSDOF 6
ENDMDL
MODEL 8
REMARK VINA RESULT:      -7.6      0.953      1.412
REMARK  Name = 
REMARK  6 active torsions:
REMARK  status: ('A' for Active; 'I' for Inactive)
REMARK    1  A    between atoms: C_5  and  C_6
REMARK    2  A    between atoms: C_6  and  SE_7
REMARK    3  A    between atoms: SE_7  and  C_8
REMARK    4  A    between atoms: C_8  and  C_9
REMARK    5  A    between atoms: C_8  and  C_15
REMARK    6  A    between atoms: C_9  and  N_10
REMARK                            x       y       z     vdW  Elec       q    Type
REMARK                         _______ _______ _______ _____ _____    ______ ____
ROOT
ATOM      1  C   UNL     1       4.118   5.825  18.018  0.00  0.00    +0.000 C 
ENDROOT
BRANCH   1   2
ATOM      2  C   UNL     1       3.071   6.697  18.764  0.00  0.00    +0.000 A 
ATOM      3  C   UNL     1       2.627   6.275  20.043  0.00  0.00    +0.000 A 
ATOM      4  C   UNL     1       1.714   7.036  20.784  0.00  0.00    +0.000 A 
ATOM      5  C   UNL     1       1.208   8.225  20.268  0.00  0.00    +0.000 A 
ATOM      6  F   UNL     1       0.326   8.965  20.985  0.00  0.00    +0.000 F 
ATOM      7  C   UNL     1       1.609   8.657  19.011  0.00  0.00    +0.000 A 
ATOM      8  C   UNL     1       2.524   7.918  18.260  0.00  0.00    +0.000 A 
ATOM      9  F   UNL     1       2.842   8.442  17.056  0.00  0.00    +0.000 F 
ENDBRANCH   1   2
BRANCH   1  10
ATOM     10 SE   UNL     1       3.276   4.406  16.911  0.00  0.00    +0.000 Se
BRANCH  10  11
ATOM     11  C   UNL     1       3.720   2.689  17.738  0.00  0.00    +0.000 C 
BRANCH  11  16
ATOM     12  F   UNL     1       0.740   2.679  22.588  0.00  0.00    +0.000 F 
ATOM     13  C   UNL     1       1.456   2.659  21.435  0.00  0.00    +0.000 A 
ATOM     14  C   UNL     1       0.806   2.818  20.210  0.00  0.00    +0.000 A 
ATOM     15  C   UNL     1       1.542   2.807  19.019  0.00  0.00    +0.000 A 
ATOM     16  C   UNL     1       2.940   2.642  19.038  0.00  0.00    +0.000 A 
ATOM     17  C   UNL     1       3.586   2.473  20.281  0.00  0.00    +0.000 A 
ATOM     18  C   UNL     1       2.842   2.483  21.471  0.00  0.00    +0.000 A 
ENDBRANCH  11  16
ENDBRANCH  10  11
ENDBRANCH   1  10
BRANCH   1  19
ATOM     19  C   UNL     1       5.049   6.709  17.151  0.00  0.00    +0.000 C 
BRANCH  19  20
ATOM     20  N   UNL     1       6.017   5.913  16.400  0.00  0.00    +0.000 N 
ATOM     21  C   UNL     1       7.009   5.161  16.910  0.00  0.00    +0.000 A 
ATOM     22  N   UNL     1       7.713   4.571  15.927  0.00  0.00    +0.000 NA
ATOM     23  C   UNL     1       7.101   5.003  14.804  0.00  0.00    +0.000 A 
ATOM     24  N   UNL     1       6.072   5.825  15.080  0.00  0.00    +0.000 NA
ENDBRANCH  19  20
ENDBRANCH   1  19
TORSDOF 6
ENDMDL
MODEL 9
REMARK VINA RESULT:      -7.6      1.926      5.595
REMARK  Name = 
REMARK  6 active torsions:
REMARK  status: ('A' for Active; 'I' for Inactive)
REMARK    1  A    between atoms: C_5  and  C_6
REMARK    2  A    between atoms: C_6  and  SE_7
REMARK    3  A    between atoms: SE_7  and  C_8
REMARK    4  A    between atoms: C_8  and  C_9
REMARK    5  A    between atoms: C_8  and  C_15
REMARK    6  A    between atoms: C_9  and  N_10
REMARK                            x       y       z     vdW  Elec       q    Type
REMARK                         _______ _______ _______ _____ _____    ______ ____
ROOT
ATOM      1  C   UNL     1       3.340   5.876  17.974  0.00  0.00    +0.000 C 
ENDROOT
BRANCH   1   2
ATOM      2  C   UNL     1       2.629   4.913  18.964  0.00  0.00    +0.000 A 
ATOM      3  C   UNL     1       3.114   4.830  20.293  0.00  0.00    +0.000 A 
ATOM      4  C   UNL     1       2.493   4.011  21.245  0.00  0.00    +0.000 A 
ATOM      5  C   UNL     1       1.387   3.243  20.896  0.00  0.00    +0.000 A 
ATOM      6  F   UNL     1       0.783   2.451  21.816  0.00  0.00    +0.000 F 
ATOM      7  C   UNL     1       0.898   3.287  19.598  0.00  0.00    +0.000 A 
ATOM      8  C   UNL     1       1.496   4.104  18.637  0.00  0.00    +0.000 A 
ATOM      9  F   UNL     1       0.928   4.068  17.412  0.00  0.00    +0.000 F 
ENDBRANCH   1   2
BRANCH   1  10
ATOM     10 SE   UNL     1       2.547   7.698  17.983  0.00  0.00    +0.000 Se
BRANCH  10  11
ATOM     11  C   UNL     1       1.985   8.074  19.819  0.00  0.00    +0.000 C 
BRANCH  11  16
ATOM     12  F   UNL     1      -1.947  12.179  19.521  0.00  0.00    +0.000 F 
ATOM     13  C   UNL     1      -0.994  11.215  19.584  0.00  0.00    +0.000 A 
ATOM     14  C   UNL     1      -0.564  10.740  20.824  0.00  0.00    +0.000 A 
ATOM     15  C   UNL     1       0.413   9.740  20.892  0.00  0.00    +0.000 A 
ATOM     16  C   UNL     1       0.969   9.195  19.719  0.00  0.00    +0.000 A 
ATOM     17  C   UNL     1       0.534   9.688  18.470  0.00  0.00    +0.000 A 
ATOM     18  C   UNL     1      -0.444  10.693  18.409  0.00  0.00    +0.000 A 
ENDBRANCH  11  16
ENDBRANCH  10  11
ENDBRANCH   1  10
BRANCH   1  19
ATOM     19  C   UNL     1       4.860   5.943  18.272  0.00  0.00    +0.000 C 
BRANCH  19  20
ATOM     20  N   UNL     1       5.662   5.505  17.132  0.00  0.00    +0.000 N 
ATOM     21  C   UNL     1       6.912   5.011  17.171  0.00  0.00    +0.000 A 
ATOM     22  N   UNL     1       7.346   4.718  15.931  0.00  0.00    +0.000 NA
ATOM     23  C   UNL     1       6.302   5.061  15.147  0.00  0.00    +0.000 A 
ATOM     24  N   UNL     1       5.275   5.547  15.867  0.00  0.00    +0.000 NA
ENDBRANCH  19  20
ENDBRANCH   1  19
TORSDOF 6
ENDMDL
