MODEL 1
REMARK VINA RESULT:      -8.0      0.000      0.000
REMARK  Name = 
REMARK  2 active torsions:
REMARK  status: ('A' for Active; 'I' for Inactive)
REMARK    1  A    between atoms: C_2  and  C_5
REMARK    2  A    between atoms: C_7  and  C_8
REMARK                            x       y       z     vdW  Elec       q    Type
REMARK                         _______ _______ _______ _____ _____    ______ ____
ROOT
ATOM      1  C   UNL     1       4.092   6.730  17.049  0.00  0.00    +0.000 A 
ATOM      2  N   UNL     1       3.426   7.869  17.391  0.00  0.00    +0.000 NA
ATOM      3  C   UNL     1       2.508   7.838  18.359  0.00  0.00    +0.000 A 
ATOM      4  N   UNL     1       2.139   6.722  18.971  0.00  0.00    +0.000 NA
ATOM      5  C   UNL     1       2.835   5.607  18.665  0.00  0.00    +0.000 A 
ATOM      6  C   UNL     1       3.925   5.561  17.789  0.00  0.00    +0.000 A 
ATOM      7  C   UNL     1       4.784   4.289  17.879  0.00  0.00    +0.000 C 
ATOM      8  C   UNL     1       5.560   4.235  19.231  0.00  0.00    +0.000 C 
ATOM      9  C   UNL     1       6.412   5.461  19.536  0.00  0.00    +0.000 C 
ATOM     10  C   UNL     1       7.843   5.263  19.090  0.00  0.00    +0.000 C 
ATOM     11  C   UNL     1       7.974   5.363  17.583  0.00  0.00    +0.000 C 
ATOM     12  C   UNL     1       7.309   4.243  16.776  0.00  0.00    +0.000 C 
ATOM     13  C   UNL     1       5.778   3.973  16.719  0.00  0.00    +0.000 C 
ATOM     14  O   UNL     1       3.880   3.113  17.898  0.00  0.00    +0.000 OA
ATOM     15  C   UNL     1       2.845   3.155  18.808  0.00  0.00    +0.000 A 
ATOM     16  C   UNL     1       2.319   1.944  19.270  0.00  0.00    +0.000 A 
ATOM     17  C   UNL     1       1.262   1.946  20.189  0.00  0.00    +0.000 A 
ATOM     18  C   UNL     1       0.727   3.147  20.636  0.00  0.00    +0.000 A 
ATOM     19  C   UNL     1       1.247   4.349  20.167  0.00  0.00    +0.000 A 
ATOM     20  C   UNL     1       2.312   4.371  19.246  0.00  0.00    +0.000 A 
ENDROOT
BRANCH   3  21
ATOM     21  C   UNL     1       1.832   9.095  18.690  0.00  0.00    +0.000 A 
ATOM     22  C   UNL     1       2.076  10.275  17.968  0.00  0.00    +0.000 A 
ATOM     23  C   UNL     1       1.487  11.488  18.341  0.00  0.00    +0.000 A 
ATOM     24  C   UNL     1       0.629  11.535  19.439  0.00  0.00    +0.000 A 
ATOM     25  C   UNL     1       0.342  10.372  20.148  0.00  0.00    +0.000 A 
ATOM     26  C   UNL     1       0.936   9.165  19.776  0.00  0.00    +0.000 A 
ENDBRANCH   3  21
BRANCH   1  28
ATOM     27  F   UNL     1       4.976   5.704  15.052  0.00  0.00    +0.000 F 
ATOM     28  C   UNL     1       4.869   6.875  15.753  0.00  0.00    +0.000 C 
ATOM     29  F   UNL     1       6.156   7.279  15.952  0.00  0.00    +0.000 F 
ATOM     30  F   UNL     1       4.334   7.746  14.868  0.00  0.00    +0.000 F 
ENDBRANCH   1  28
TORSDOF 2
ENDMDL
MODEL 2
REMARK VINA RESULT:      -8.0      4.774      8.998
REMARK  Name = 
REMARK  2 active torsions:
REMARK  status: ('A' for Active; 'I' for Inactive)
REMARK    1  A    between atoms: C_2  and  C_5
REMARK    2  A    between atoms: C_7  and  C_8
REMARK                            x       y       z     vdW  Elec       q    Type
REMARK                         _______ _______ _______ _____ _____    ______ ____
ROOT
ATOM      1  C   UNL     1      -0.184  10.345  20.997  0.00  0.00    +0.000 A 
ATOM      2  N   UNL     1       0.791   9.471  20.614  0.00  0.00    +0.000 NA
ATOM      3  C   UNL     1       0.863   9.073  19.343  0.00  0.00    +0.000 A 
ATOM      4  N   UNL     1      -0.024   9.422  18.422  0.00  0.00    +0.000 NA
ATOM      5  C   UNL     1      -0.956  10.324  18.793  0.00  0.00    +0.000 A 
ATOM      6  C   UNL     1      -1.022  10.933  20.052  0.00  0.00    +0.000 A 
ATOM      7  C   UNL     1      -1.915  12.182  20.129  0.00  0.00    +0.000 C 
ATOM      8  C   UNL     1      -1.292  13.363  19.324  0.00  0.00    +0.000 C 
ATOM      9  C   UNL     1       0.138  13.722  19.706  0.00  0.00    +0.000 C 
ATOM     10  C   UNL     1       0.174  14.838  20.725  0.00  0.00    +0.000 C 
ATOM     11  C   UNL     1      -0.229  14.346  22.102  0.00  0.00    +0.000 C 
ATOM     12  C   UNL     1      -1.690  13.914  22.260  0.00  0.00    +0.000 C 
ATOM     13  C   UNL     1      -2.348  12.707  21.532  0.00  0.00    +0.000 C 
ATOM     14  O   UNL     1      -3.201  11.880  19.454  0.00  0.00    +0.000 OA
ATOM     15  C   UNL     1      -3.113  11.333  18.192  0.00  0.00    +0.000 A 
ATOM     16  C   UNL     1      -4.178  11.530  17.308  0.00  0.00    +0.000 A 
ATOM     17  C   UNL     1      -4.129  10.983  16.019  0.00  0.00    +0.000 A 
ATOM     18  C   UNL     1      -3.029  10.236  15.619  0.00  0.00    +0.000 A 
ATOM     19  C   UNL     1      -1.975  10.034  16.505  0.00  0.00    +0.000 A 
ATOM     20  C   UNL     1      -2.002  10.578  17.804  0.00  0.00    +0.000 A 
ENDROOT
BRANCH   3  21
ATOM     21  C   UNL     1       1.938   8.141  18.987  0.00  0.00    +0.000 A 
ATOM     22  C   UNL     1       2.705   8.312  17.823  0.00  0.00    +0.000 A 
ATOM     23  C   UNL     1       3.674   7.375  17.450  0.00  0.00    +0.000 A 
ATOM     24  C   UNL     1       3.900   6.254  18.248  0.00  0.00    +0.000 A 
ATOM     25  C   UNL     1       3.178   6.081  19.425  0.00  0.00    +0.000 A 
ATOM     26  C   UNL     1       2.208   7.016  19.790  0.00  0.00    +0.000 A 
ENDBRANCH   3  21
BRANCH   1  28
ATOM     27  F   UNL     1       0.552   9.631  23.181  0.00  0.00    +0.000 F 
ATOM     28  C   UNL     1      -0.304  10.458  22.506  0.00  0.00    +0.000 C 
ATOM     29  F   UNL     1      -1.544  10.122  22.963  0.00  0.00    +0.000 F 
ATOM     30  F   UNL     1      -0.041  11.688  23.003  0.00  0.00    +0.000 F 
ENDBRANCH   1  28
TORSDOF 2
ENDMDL
MODEL 3
REMARK VINA RESULT:      -7.8      4.699      8.942
REMARK  Name = 
REMARK  2 active torsions:
REMARK  status: ('A' for Active; 'I' for Inactive)
REMARK    1  A    between atoms: C_2  and  C_5
REMARK    2  A    between atoms: C_7  and  C_8
REMARK                            x       y       z     vdW  Elec       q    Type
REMARK                         _______ _______ _______ _____ _____    ______ ____
ROOT
ATOM      1  C   UNL     1      -0.120  10.351  20.763  0.00  0.00    +0.000 A 
ATOM      2  N   UNL     1       0.833   9.437  20.422  0.00  0.00    +0.000 NA
ATOM      3  C   UNL     1       0.894   8.976  19.172  0.00  0.00    +0.000 A 
ATOM      4  N   UNL     1       0.014   9.301  18.236  0.00  0.00    +0.000 NA
ATOM      5  C   UNL     1      -0.896  10.242  18.564  0.00  0.00    +0.000 A 
ATOM      6  C   UNL     1      -0.945  10.912  19.791  0.00  0.00    +0.000 A 
ATOM      7  C   UNL     1      -1.809  12.184  19.808  0.00  0.00    +0.000 C 
ATOM      8  C   UNL     1      -1.159  13.310  18.946  0.00  0.00    +0.000 C 
ATOM      9  C   UNL     1       0.280  13.653  19.310  0.00  0.00    +0.000 C 
ATOM     10  C   UNL     1       0.344  14.816  20.274  0.00  0.00    +0.000 C 
ATOM     11  C   UNL     1      -0.068  14.400  21.673  0.00  0.00    +0.000 C 
ATOM     12  C   UNL     1      -1.539  14.012  21.852  0.00  0.00    +0.000 C 
ATOM     13  C   UNL     1      -2.227  12.787  21.185  0.00  0.00    +0.000 C 
ATOM     14  O   UNL     1      -3.102  11.881  19.149  0.00  0.00    +0.000 OA
ATOM     15  C   UNL     1      -3.030  11.271  17.915  0.00  0.00    +0.000 A 
ATOM     16  C   UNL     1      -4.091  11.450  17.023  0.00  0.00    +0.000 A 
ATOM     17  C   UNL     1      -4.057  10.841  15.762  0.00  0.00    +0.000 A 
ATOM     18  C   UNL     1      -2.976  10.049  15.399  0.00  0.00    +0.000 A 
ATOM     19  C   UNL     1      -1.926   9.866  16.293  0.00  0.00    +0.000 A 
ATOM     20  C   UNL     1      -1.937  10.473  17.563  0.00  0.00    +0.000 A 
ENDROOT
BRANCH   3  21
ATOM     21  C   UNL     1       1.945   8.002  18.861  0.00  0.00    +0.000 A 
ATOM     22  C   UNL     1       2.208   6.909  19.703  0.00  0.00    +0.000 A 
ATOM     23  C   UNL     1       3.265   6.031  19.441  0.00  0.00    +0.000 A 
ATOM     24  C   UNL     1       4.069   6.226  18.318  0.00  0.00    +0.000 A 
ATOM     25  C   UNL     1       3.805   7.281  17.449  0.00  0.00    +0.000 A 
ATOM     26  C   UNL     1       2.754   8.158  17.718  0.00  0.00    +0.000 A 
ENDBRANCH   3  21
BRANCH   1  28
ATOM     27  F   UNL     1       0.268  11.736  22.700  0.00  0.00    +0.000 F 
ATOM     28  C   UNL     1      -0.235  10.540  22.265  0.00  0.00    +0.000 C 
ATOM     29  F   UNL     1       0.452   9.597  22.970  0.00  0.00    +0.000 F 
ATOM     30  F   UNL     1      -1.500  10.518  22.742  0.00  0.00    +0.000 F 
ENDBRANCH   1  28
TORSDOF 2
ENDMDL
MODEL 4
REMARK VINA RESULT:      -7.4      8.258     11.337
REMARK  Name = 
REMARK  2 active torsions:
REMARK  status: ('A' for Active; 'I' for Inactive)
REMARK    1  A    between atoms: C_2  and  C_5
REMARK    2  A    between atoms: C_7  and  C_8
REMARK                            x       y       z     vdW  Elec       q    Type
REMARK                         _______ _______ _______ _____ _____    ______ ____
ROOT
ATOM      1  C   UNL     1      -1.873  12.512  21.133  0.00  0.00    +0.000 A 
ATOM      2  N   UNL     1      -1.926  11.983  19.877  0.00  0.00    +0.000 NA
ATOM      3  C   UNL     1      -3.103  11.839  19.267  0.00  0.00    +0.000 A 
ATOM      4  N   UNL     1      -4.262  12.112  19.851  0.00  0.00    +0.000 NA
ATOM      5  C   UNL     1      -4.201  12.680  21.073  0.00  0.00    +0.000 A 
ATOM      6  C   UNL     1      -3.019  13.029  21.735  0.00  0.00    +0.000 A 
ATOM      7  C   UNL     1      -3.192  13.988  22.924  0.00  0.00    +0.000 C 
ATOM      8  C   UNL     1      -3.622  15.406  22.438  0.00  0.00    +0.000 C 
ATOM      9  C   UNL     1      -2.711  16.034  21.391  0.00  0.00    +0.000 C 
ATOM     10  C   UNL     1      -1.676  16.934  22.029  0.00  0.00    +0.000 C 
ATOM     11  C   UNL     1      -0.586  16.130  22.710  0.00  0.00    +0.000 C 
ATOM     12  C   UNL     1      -1.014  15.332  23.946  0.00  0.00    +0.000 C 
ATOM     13  C   UNL     1      -2.018  14.143  23.939  0.00  0.00    +0.000 C 
ATOM     14  O   UNL     1      -4.317  13.500  23.759  0.00  0.00    +0.000 OA
ATOM     15  C   UNL     1      -5.491  13.216  23.094  0.00  0.00    +0.000 A 
ATOM     16  C   UNL     1      -6.691  13.293  23.806  0.00  0.00    +0.000 A 
ATOM     17  C   UNL     1      -7.904  13.005  23.167  0.00  0.00    +0.000 A 
ATOM     18  C   UNL     1      -7.917  12.630  21.830  0.00  0.00    +0.000 A 
ATOM     19  C   UNL     1      -6.719  12.545  21.128  0.00  0.00    +0.000 A 
ATOM     20  C   UNL     1      -5.489  12.835  21.749  0.00  0.00    +0.000 A 
ENDROOT
BRANCH   3  21
ATOM     21  C   UNL     1      -3.098  11.274  17.914  0.00  0.00    +0.000 A 
ATOM     22  C   UNL     1      -4.100  11.589  16.981  0.00  0.00    +0.000 A 
ATOM     23  C   UNL     1      -4.132  10.985  15.720  0.00  0.00    +0.000 A 
ATOM     24  C   UNL     1      -3.148  10.061  15.367  0.00  0.00    +0.000 A 
ATOM     25  C   UNL     1      -2.125   9.760  16.261  0.00  0.00    +0.000 A 
ATOM     26  C   UNL     1      -2.100  10.361  17.520  0.00  0.00    +0.000 A 
ENDBRANCH   3  21
BRANCH   1  28
ATOM     27  F   UNL     1       0.249  11.367  21.185  0.00  0.00    +0.000 F 
ATOM     28  C   UNL     1      -0.513  12.332  21.784  0.00  0.00    +0.000 C 
ATOM     29  F   UNL     1      -0.600  11.947  23.089  0.00  0.00    +0.000 F 
ATOM     30  F   UNL     1       0.271  13.434  21.769  0.00  0.00    +0.000 F 
ENDBRANCH   1  28
TORSDOF 2
ENDMDL
MODEL 5
REMARK VINA RESULT:      -7.2      8.710     11.355
REMARK  Name = 
REMARK  2 active torsions:
REMARK  status: ('A' for Active; 'I' for Inactive)
REMARK    1  A    between atoms: C_2  and  C_5
REMARK    2  A    between atoms: C_7  and  C_8
REMARK                            x       y       z     vdW  Elec       q    Type
REMARK                         _______ _______ _______ _____ _____    ______ ____
ROOT
ATOM      1  C   UNL     1       7.843  14.382  20.661  0.00  0.00    +0.000 A 
ATOM      2  N   UNL     1       6.592  14.894  20.479  0.00  0.00    +0.000 NA
ATOM      3  C   UNL     1       6.405  15.903  19.626  0.00  0.00    +0.000 A 
ATOM      4  N   UNL     1       7.398  16.506  18.987  0.00  0.00    +0.000 NA
ATOM      5  C   UNL     1       8.625  15.965  19.133  0.00  0.00    +0.000 A 
ATOM      6  C   UNL     1       8.907  14.808  19.869  0.00  0.00    +0.000 A 
ATOM      7  C   UNL     1      10.280  14.174  19.592  0.00  0.00    +0.000 C 
ATOM      8  C   UNL     1      10.333  13.565  18.157  0.00  0.00    +0.000 C 
ATOM      9  C   UNL     1       9.225  12.568  17.838  0.00  0.00    +0.000 C 
ATOM     10  C   UNL     1       9.670  11.146  18.096  0.00  0.00    +0.000 C 
ATOM     11  C   UNL     1       9.720  10.841  19.580  0.00  0.00    +0.000 C 
ATOM     12  C   UNL     1      10.792  11.585  20.382  0.00  0.00    +0.000 C 
ATOM     13  C   UNL     1      10.837  13.124  20.602  0.00  0.00    +0.000 C 
ATOM     14  O   UNL     1      11.302  15.248  19.600  0.00  0.00    +0.000 OA
ATOM     15  C   UNL     1      11.031  16.355  18.824  0.00  0.00    +0.000 A 
ATOM     16  C   UNL     1      12.106  17.110  18.347  0.00  0.00    +0.000 A 
ATOM     17  C   UNL     1      11.869  18.246  17.561  0.00  0.00    +0.000 A 
ATOM     18  C   UNL     1      10.569  18.630  17.263  0.00  0.00    +0.000 A 
ATOM     19  C   UNL     1       9.502  17.881  17.748  0.00  0.00    +0.000 A 
ATOM     20  C   UNL     1       9.716  16.734  18.536  0.00  0.00    +0.000 A 
ENDROOT
BRANCH   3  21
ATOM     21  C   UNL     1       5.037  16.405  19.463  0.00  0.00    +0.000 A 
ATOM     22  C   UNL     1       4.395  17.134  20.478  0.00  0.00    +0.000 A 
ATOM     23  C   UNL     1       3.063  17.540  20.346  0.00  0.00    +0.000 A 
ATOM     24  C   UNL     1       2.355  17.234  19.185  0.00  0.00    +0.000 A 
ATOM     25  C   UNL     1       2.981  16.545  18.150  0.00  0.00    +0.000 A 
ATOM     26  C   UNL     1       4.308  16.137  18.288  0.00  0.00    +0.000 A 
ENDBRANCH   3  21
BRANCH   1  28
ATOM     27  F   UNL     1       6.855  13.574  22.708  0.00  0.00    +0.000 F 
ATOM     28  C   UNL     1       7.925  13.458  21.863  0.00  0.00    +0.000 C 
ATOM     29  F   UNL     1       9.014  13.706  22.646  0.00  0.00    +0.000 F 
ATOM     30  F   UNL     1       7.971  12.141  21.561  0.00  0.00    +0.000 F 
ENDBRANCH   1  28
TORSDOF 2
ENDMDL
MODEL 6
REMARK VINA RESULT:      -7.2      8.268     11.733
REMARK  Name = 
REMARK  2 active torsions:
REMARK  status: ('A' for Active; 'I' for Inactive)
REMARK    1  A    between atoms: C_2  and  C_5
REMARK    2  A    between atoms: C_7  and  C_8
REMARK                            x       y       z     vdW  Elec       q    Type
REMARK                         _______ _______ _______ _____ _____    ______ ____
ROOT
ATOM      1  C   UNL     1      -1.978  13.201  21.122  0.00  0.00    +0.000 A 
ATOM      2  N   UNL     1      -1.979  12.502  19.951  0.00  0.00    +0.000 NA
ATOM      3  C   UNL     1      -3.131  12.065  19.439  0.00  0.00    +0.000 A 
ATOM      4  N   UNL     1      -4.297  12.203  20.056  0.00  0.00    +0.000 NA
ATOM      5  C   UNL     1      -4.298  12.936  21.188  0.00  0.00    +0.000 A 
ATOM      6  C   UNL     1      -3.177  13.581  21.724  0.00  0.00    +0.000 A 
ATOM      7  C   UNL     1      -3.481  14.648  22.788  0.00  0.00    +0.000 C 
ATOM      8  C   UNL     1      -4.188  15.884  22.151  0.00  0.00    +0.000 C 
ATOM      9  C   UNL     1      -3.450  16.516  20.977  0.00  0.00    +0.000 C 
ATOM     10  C   UNL     1      -2.578  17.666  21.427  0.00  0.00    +0.000 C 
ATOM     11  C   UNL     1      -1.332  17.174  22.137  0.00  0.00    +0.000 C 
ATOM     12  C   UNL     1      -1.556  16.491  23.489  0.00  0.00    +0.000 C 
ATOM     13  C   UNL     1      -2.319  15.151  23.698  0.00  0.00    +0.000 C 
ATOM     14  O   UNL     1      -4.462  14.086  23.747  0.00  0.00    +0.000 OA
ATOM     15  C   UNL     1      -5.587  13.505  23.200  0.00  0.00    +0.000 A 
ATOM     16  C   UNL     1      -6.753  13.463  23.970  0.00  0.00    +0.000 A 
ATOM     17  C   UNL     1      -7.913  12.875  23.451  0.00  0.00    +0.000 A 
ATOM     18  C   UNL     1      -7.906  12.323  22.177  0.00  0.00    +0.000 A 
ATOM     19  C   UNL     1      -6.741  12.359  21.418  0.00  0.00    +0.000 A 
ATOM     20  C   UNL     1      -5.565  12.949  21.917  0.00  0.00    +0.000 A 
ENDROOT
BRANCH   3  21
ATOM     21  C   UNL     1      -3.072  11.329  18.173  0.00  0.00    +0.000 A 
ATOM     22  C   UNL     1      -2.011  10.458  17.877  0.00  0.00    +0.000 A 
ATOM     23  C   UNL     1      -1.921   9.821  16.635  0.00  0.00    +0.000 A 
ATOM     24  C   UNL     1      -2.905  10.038  15.670  0.00  0.00    +0.000 A 
ATOM     25  C   UNL     1      -3.985  10.868  15.953  0.00  0.00    +0.000 A 
ATOM     26  C   UNL     1      -4.068  11.505  17.192  0.00  0.00    +0.000 A 
ENDBRANCH   3  21
BRANCH   1  28
ATOM     27  F   UNL     1       0.300  12.420  21.254  0.00  0.00    +0.000 F 
ATOM     28  C   UNL     1      -0.585  13.361  21.705  0.00  0.00    +0.000 C 
ATOM     29  F   UNL     1      -0.563  13.236  23.062  0.00  0.00    +0.000 F 
ATOM     30  F   UNL     1       0.011  14.542  21.426  0.00  0.00    +0.000 F 
ENDBRANCH   1  28
TORSDOF 2
ENDMDL
MODEL 7
REMARK VINA RESULT:      -7.1      6.815     11.344
REMARK  Name = 
REMARK  2 active torsions:
REMARK  status: ('A' for Active; 'I' for Inactive)
REMARK    1  A    between atoms: C_2  and  C_5
REMARK    2  A    between atoms: C_7  and  C_8
REMARK                            x       y       z     vdW  Elec       q    Type
REMARK                         _______ _______ _______ _____ _____    ______ ____
ROOT
ATOM      1  C   UNL     1      -2.225  12.278  21.786  0.00  0.00    +0.000 A 
ATOM      2  N   UNL     1      -1.159  11.821  21.068  0.00  0.00    +0.000 NA
ATOM      3  C   UNL     1      -1.271  11.650  19.750  0.00  0.00    +0.000 A 
ATOM      4  N   UNL     1      -2.407  11.827  19.090  0.00  0.00    +0.000 NA
ATOM      5  C   UNL     1      -3.443  12.326  19.795  0.00  0.00    +0.000 A 
ATOM      6  C   UNL     1      -3.387  12.698  21.143  0.00  0.00    +0.000 A 
ATOM      7  C   UNL     1      -4.552  13.576  21.629  0.00  0.00    +0.000 C 
ATOM      8  C   UNL     1      -4.486  14.995  20.986  0.00  0.00    +0.000 C 
ATOM      9  C   UNL     1      -3.165  15.730  21.177  0.00  0.00    +0.000 C 
ATOM     10  C   UNL     1      -3.211  16.644  22.381  0.00  0.00    +0.000 C 
ATOM     11  C   UNL     1      -3.133  15.860  23.676  0.00  0.00    +0.000 C 
ATOM     12  C   UNL     1      -4.339  14.971  23.996  0.00  0.00    +0.000 C 
ATOM     13  C   UNL     1      -4.782  13.733  23.164  0.00  0.00    +0.000 C 
ATOM     14  O   UNL     1      -5.821  12.982  21.142  0.00  0.00    +0.000 OA
ATOM     15  C   UNL     1      -5.875  12.675  19.799  0.00  0.00    +0.000 A 
ATOM     16  C   UNL     1      -7.125  12.649  19.174  0.00  0.00    +0.000 A 
ATOM     17  C   UNL     1      -7.220  12.334  17.813  0.00  0.00    +0.000 A 
ATOM     18  C   UNL     1      -6.077  12.037  17.083  0.00  0.00    +0.000 A 
ATOM     19  C   UNL     1      -4.836  12.056  17.711  0.00  0.00    +0.000 A 
ATOM     20  C   UNL     1      -4.716  12.374  19.077  0.00  0.00    +0.000 A 
ENDROOT
BRANCH   3  21
ATOM     21  C   UNL     1      -0.090  11.166  19.029  0.00  0.00    +0.000 A 
ATOM     22  C   UNL     1      -0.027   9.862  18.511  0.00  0.00    +0.000 A 
ATOM     23  C   UNL     1       1.133   9.382  17.895  0.00  0.00    +0.000 A 
ATOM     24  C   UNL     1       2.249  10.210  17.774  0.00  0.00    +0.000 A 
ATOM     25  C   UNL     1       2.198  11.518  18.246  0.00  0.00    +0.000 A 
ATOM     26  C   UNL     1       1.040  11.991  18.865  0.00  0.00    +0.000 A 
ENDBRANCH   3  21
BRANCH   1  28
ATOM     27  F   UNL     1      -1.568  13.276  23.882  0.00  0.00    +0.000 F 
ATOM     28  C   UNL     1      -2.024  12.132  23.284  0.00  0.00    +0.000 C 
ATOM     29  F   UNL     1      -1.100  11.182  23.603  0.00  0.00    +0.000 F 
ATOM     30  F   UNL     1      -3.141  11.816  23.976  0.00  0.00    +0.000 F 
ENDBRANCH   1  28
TORSDOF 2
ENDMDL
MODEL 8
REMARK VINA RESULT:      -7.1      9.013      9.826
REMARK  Name = 
REMARK  2 active torsions:
REMARK  status: ('A' for Active; 'I' for Inactive)
REMARK    1  A    between atoms: C_2  and  C_5
REMARK    2  A    between atoms: C_7  and  C_8
REMARK                            x       y       z     vdW  Elec       q    Type
REMARK                         _______ _______ _______ _____ _____    ______ ____
ROOT
ATOM      1  C   UNL     1       8.135  13.727  18.954  0.00  0.00    +0.000 A 
ATOM      2  N   UNL     1       7.015  14.379  18.527  0.00  0.00    +0.000 NA
ATOM      3  C   UNL     1       6.166  14.892  19.418  0.00  0.00    +0.000 A 
ATOM      4  N   UNL     1       6.305  14.735  20.727  0.00  0.00    +0.000 NA
ATOM      5  C   UNL     1       7.438  14.133  21.145  0.00  0.00    +0.000 A 
ATOM      6  C   UNL     1       8.473  13.707  20.305  0.00  0.00    +0.000 A 
ATOM      7  C   UNL     1       9.804  13.398  21.010  0.00  0.00    +0.000 C 
ATOM      8  C   UNL     1      10.461  14.703  21.556  0.00  0.00    +0.000 C 
ATOM      9  C   UNL     1      10.662  15.805  20.524  0.00  0.00    +0.000 C 
ATOM     10  C   UNL     1      12.050  15.755  19.925  0.00  0.00    +0.000 C 
ATOM     11  C   UNL     1      12.191  14.607  18.946  0.00  0.00    +0.000 C 
ATOM     12  C   UNL     1      12.131  13.200  19.548  0.00  0.00    +0.000 C 
ATOM     13  C   UNL     1      10.886  12.578  20.243  0.00  0.00    +0.000 C 
ATOM     14  O   UNL     1       9.519  12.571  22.208  0.00  0.00    +0.000 OA
ATOM     15  C   UNL     1       8.534  13.039  23.052  0.00  0.00    +0.000 A 
ATOM     16  C   UNL     1       8.583  12.667  24.399  0.00  0.00    +0.000 A 
ATOM     17  C   UNL     1       7.596  13.117  25.285  0.00  0.00    +0.000 A 
ATOM     18  C   UNL     1       6.562  13.923  24.828  0.00  0.00    +0.000 A 
ATOM     19  C   UNL     1       6.513  14.284  23.486  0.00  0.00    +0.000 A 
ATOM     20  C   UNL     1       7.496  13.847  22.578  0.00  0.00    +0.000 A 
ENDROOT
BRANCH   3  21
ATOM     21  C   UNL     1       4.985  15.591  18.902  0.00  0.00    +0.000 A 
ATOM     22  C   UNL     1       4.279  16.520  19.684  0.00  0.00    +0.000 A 
ATOM     23  C   UNL     1       3.108  17.123  19.212  0.00  0.00    +0.000 A 
ATOM     24  C   UNL     1       2.632  16.813  17.939  0.00  0.00    +0.000 A 
ATOM     25  C   UNL     1       3.333  15.923  17.131  0.00  0.00    +0.000 A 
ATOM     26  C   UNL     1       4.498  15.320  17.608  0.00  0.00    +0.000 A 
ENDBRANCH   3  21
BRANCH   1  28
ATOM     27  F   UNL     1       7.996  12.681  16.784  0.00  0.00    +0.000 F 
ATOM     28  C   UNL     1       8.823  12.960  17.838  0.00  0.00    +0.000 C 
ATOM     29  F   UNL     1       9.291  11.745  18.244  0.00  0.00    +0.000 F 
ATOM     30  F   UNL     1       9.874  13.600  17.278  0.00  0.00    +0.000 F 
ENDBRANCH   1  28
TORSDOF 2
ENDMDL
MODEL 9
REMARK VINA RESULT:      -7.1      5.298      9.689
REMARK  Name = 
REMARK  2 active torsions:
REMARK  status: ('A' for Active; 'I' for Inactive)
REMARK    1  A    between atoms: C_2  and  C_5
REMARK    2  A    between atoms: C_7  and  C_8
REMARK                            x       y       z     vdW  Elec       q    Type
REMARK                         _______ _______ _______ _____ _____    ______ ____
ROOT
ATOM      1  C   UNL     1      -0.758  10.880  21.386  0.00  0.00    +0.000 A 
ATOM      2  N   UNL     1       0.197  10.031  20.909  0.00  0.00    +0.000 NA
ATOM      3  C   UNL     1       0.202   9.695  19.618  0.00  0.00    +0.000 A 
ATOM      4  N   UNL     1      -0.734  10.085  18.763  0.00  0.00    +0.000 NA
ATOM      5  C   UNL     1      -1.646  10.963  19.228  0.00  0.00    +0.000 A 
ATOM      6  C   UNL     1      -1.646  11.510  20.516  0.00  0.00    +0.000 A 
ATOM      7  C   UNL     1      -2.537  12.749  20.702  0.00  0.00    +0.000 C 
ATOM      8  C   UNL     1      -1.960  13.971  19.923  0.00  0.00    +0.000 C 
ATOM      9  C   UNL     1      -0.512  14.318  20.246  0.00  0.00    +0.000 C 
ATOM     10  C   UNL     1      -0.424  15.383  21.316  0.00  0.00    +0.000 C 
ATOM     11  C   UNL     1      -0.751  14.822  22.686  0.00  0.00    +0.000 C 
ATOM     12  C   UNL     1      -2.201  14.377  22.900  0.00  0.00    +0.000 C 
ATOM     13  C   UNL     1      -2.895  13.204  22.150  0.00  0.00    +0.000 C 
ATOM     14  O   UNL     1      -3.856  12.475  20.082  0.00  0.00    +0.000 OA
ATOM     15  C   UNL     1      -3.835  11.990  18.792  0.00  0.00    +0.000 A 
ATOM     16  C   UNL     1      -4.946  12.225  17.976  0.00  0.00    +0.000 A 
ATOM     17  C   UNL     1      -4.963  11.742  16.661  0.00  0.00    +0.000 A 
ATOM     18  C   UNL     1      -3.885  11.021  16.168  0.00  0.00    +0.000 A 
ATOM     19  C   UNL     1      -2.785  10.781  16.986  0.00  0.00    +0.000 A 
ATOM     20  C   UNL     1      -2.743  11.261  18.309  0.00  0.00    +0.000 A 
ENDROOT
BRANCH   3  21
ATOM     21  C   UNL     1       1.258   8.787  19.160  0.00  0.00    +0.000 A 
ATOM     22  C   UNL     1       1.710   7.723  19.958  0.00  0.00    +0.000 A 
ATOM     23  C   UNL     1       2.772   6.910  19.547  0.00  0.00    +0.000 A 
ATOM     24  C   UNL     1       3.391   7.143  18.319  0.00  0.00    +0.000 A 
ATOM     25  C   UNL     1       2.937   8.168  17.495  0.00  0.00    +0.000 A 
ATOM     26  C   UNL     1       1.881   8.980  17.911  0.00  0.00    +0.000 A 
ENDBRANCH   3  21
BRANCH   1  28
ATOM     27  F   UNL     1       0.005   9.979  23.489  0.00  0.00    +0.000 F 
ATOM     28  C   UNL     1      -0.798  10.919  22.903  0.00  0.00    +0.000 C 
ATOM     29  F   UNL     1      -2.042  10.675  23.404  0.00  0.00    +0.000 F 
ATOM     30  F   UNL     1      -0.396  12.089  23.449  0.00  0.00    +0.000 F 
ENDBRANCH   1  28
TORSDOF 2
ENDMDL
