MODEL 1
REMARK VINA RESULT:      -8.0      0.000      0.000
REMARK  Name = 
REMARK  5 active torsions:
REMARK  status: ('A' for Active; 'I' for Inactive)
REMARK    1  A    between atoms: C_1  and  O_2
REMARK    2  A    between atoms: O_2  and  C_3
REMARK    3  A    between atoms: C_11  and  C_12
REMARK    4  A    between atoms: C_12  and  N_13
REMARK    5  A    between atoms: C_19  and  O_20
REMARK                            x       y       z     vdW  Elec       q    Type
REMARK                         _______ _______ _______ _____ _____    ______ ____
ROOT
ATOM      1  C   UNL     1      -3.194  14.264  23.871  0.00  0.00    +0.000 A 
ATOM      2  C   UNL     1      -4.267  13.907  23.069  0.00  0.00    +0.000 A 
ATOM      3  C   UNL     1      -4.064  13.254  21.848  0.00  0.00    +0.000 A 
ATOM      4  C   UNL     1      -5.173  12.929  21.072  0.00  0.00    +0.000 A 
ATOM      5  C   UNL     1      -5.010  12.333  19.825  0.00  0.00    +0.000 A 
ATOM      6  C   UNL     1      -3.712  12.064  19.391  0.00  0.00    +0.000 A 
ATOM      7  N   UNL     1      -2.622  12.335  20.169  0.00  0.00    +0.000 NA
ATOM      8  C   UNL     1      -2.775  12.924  21.385  0.00  0.00    +0.000 A 
ATOM      9  C   UNL     1      -1.681  13.245  22.226  0.00  0.00    +0.000 A 
ATOM     10  C   UNL     1      -1.906  13.938  23.438  0.00  0.00    +0.000 A 
ATOM     11  C   UNL     1      -3.463  11.484  18.043  0.00  0.00    +0.000 A 
ATOM     12  C   UNL     1      -2.230  10.881  17.721  0.00  0.00    +0.000 A 
ATOM     13  C   UNL     1      -1.998  10.323  16.457  0.00  0.00    +0.000 A 
ATOM     14  C   UNL     1      -2.994  10.367  15.494  0.00  0.00    +0.000 A 
ATOM     15  F   UNL     1      -2.773   9.826  14.286  0.00  0.00    +0.000 F 
ATOM     16  C   UNL     1      -4.214  10.965  15.759  0.00  0.00    +0.000 A 
ATOM     17  C   UNL     1      -4.449  11.518  17.023  0.00  0.00    +0.000 A 
ATOM     18  S   UNL     1      -6.050  12.284  17.272  0.00  0.00    +0.000 S 
ATOM     19  C   UNL     1      -6.219  11.935  19.033  0.00  0.00    +0.000 C 
ENDROOT
BRANCH   1  21
ATOM     20  C   UNL     1      -3.586  16.327  24.986  0.00  0.00    +0.000 C 
ATOM     21  O   UNL     1      -3.309  14.934  25.060  0.00  0.00    +0.000 OA
ENDBRANCH   1  21
BRANCH  10  22
ATOM     22  O   UNL     1      -0.854  14.317  24.239  0.00  0.00    +0.000 OA
ATOM     23  H   UNL     1      -0.389  13.501  24.525  0.00  0.00    +0.000 HD
ENDBRANCH  10  22
BRANCH   9  24
ATOM     24  C   UNL     1      -0.274  12.940  21.740  0.00  0.00    +0.000 C 
BRANCH  24  25
ATOM     25  N   UNL     1       0.249  11.568  22.067  0.00  0.00    +0.000 NA
ATOM     26  C   UNL     1      -0.731  10.843  22.909  0.00  0.00    +0.000 C 
ATOM     27  C   UNL     1      -0.472   9.340  23.035  0.00  0.00    +0.000 C 
ATOM     28  C   UNL     1      -0.341   8.687  21.669  0.00  0.00    +0.000 C 
ATOM     29  C   UNL     1       0.770   9.373  20.896  0.00  0.00    +0.000 C 
ATOM     30  C   UNL     1       0.524  10.878  20.788  0.00  0.00    +0.000 C 
ENDBRANCH  24  25
ENDBRANCH   9  24
TORSDOF 4
ENDMDL
MODEL 2
REMARK VINA RESULT:      -7.6      5.634      8.728
REMARK  Name = 
REMARK  5 active torsions:
REMARK  status: ('A' for Active; 'I' for Inactive)
REMARK    1  A    between atoms: C_1  and  O_2
REMARK    2  A    between atoms: O_2  and  C_3
REMARK    3  A    between atoms: C_11  and  C_12
REMARK    4  A    between atoms: C_12  and  N_13
REMARK    5  A    between atoms: C_19  and  O_20
REMARK                            x       y       z     vdW  Elec       q    Type
REMARK                         _______ _______ _______ _____ _____    ______ ____
ROOT
ATOM      1  C   UNL     1       3.839   6.363  17.531  0.00  0.00    +0.000 A 
ATOM      2  C   UNL     1       3.359   7.641  17.285  0.00  0.00    +0.000 A 
ATOM      3  C   UNL     1       2.566   8.303  18.228  0.00  0.00    +0.000 A 
ATOM      4  C   UNL     1       2.096   9.579  17.929  0.00  0.00    +0.000 A 
ATOM      5  C   UNL     1       1.256  10.246  18.815  0.00  0.00    +0.000 A 
ATOM      6  C   UNL     1       0.915   9.605  20.006  0.00  0.00    +0.000 A 
ATOM      7  N   UNL     1       1.412   8.374  20.328  0.00  0.00    +0.000 NA
ATOM      8  C   UNL     1       2.228   7.714  19.462  0.00  0.00    +0.000 A 
ATOM      9  C   UNL     1       2.757   6.428  19.736  0.00  0.00    +0.000 A 
ATOM     10  C   UNL     1       3.526   5.762  18.753  0.00  0.00    +0.000 A 
ATOM     11  C   UNL     1      -0.027  10.236  20.970  0.00  0.00    +0.000 A 
ATOM     12  C   UNL     1      -0.111   9.797  22.307  0.00  0.00    +0.000 A 
ATOM     13  C   UNL     1      -0.988  10.398  23.218  0.00  0.00    +0.000 A 
ATOM     14  C   UNL     1      -1.800  11.442  22.805  0.00  0.00    +0.000 A 
ATOM     15  F   UNL     1      -2.634  12.022  23.681  0.00  0.00    +0.000 F 
ATOM     16  C   UNL     1      -1.765  11.894  21.497  0.00  0.00    +0.000 A 
ATOM     17  C   UNL     1      -0.885  11.299  20.586  0.00  0.00    +0.000 A 
ATOM     18  S   UNL     1      -0.919  11.938  18.912  0.00  0.00    +0.000 S 
ATOM     19  C   UNL     1       0.812  11.644  18.501  0.00  0.00    +0.000 C 
ENDROOT
BRANCH   1  21
ATOM     20  C   UNL     1       5.252   6.367  15.618  0.00  0.00    +0.000 C 
ATOM     21  O   UNL     1       4.591   5.638  16.645  0.00  0.00    +0.000 OA
ENDBRANCH   1  21
BRANCH  10  22
ATOM     22  O   UNL     1       3.996   4.488  18.970  0.00  0.00    +0.000 OA
ATOM     23  H   UNL     1       3.931   4.308  19.933  0.00  0.00    +0.000 HD
ENDBRANCH  10  22
BRANCH   9  24
ATOM     24  C   UNL     1       2.380   5.746  21.040  0.00  0.00    +0.000 C 
BRANCH  24  25
ATOM     25  N   UNL     1       1.564   4.490  20.910  0.00  0.00    +0.000 NA
ATOM     26  C   UNL     1       1.122   4.319  19.506  0.00  0.00    +0.000 C 
ATOM     27  C   UNL     1       0.572   2.929  19.178  0.00  0.00    +0.000 C 
ATOM     28  C   UNL     1       1.553   1.839  19.574  0.00  0.00    +0.000 C 
ATOM     29  C   UNL     1       1.868   1.970  21.053  0.00  0.00    +0.000 C 
ATOM     30  C   UNL     1       2.398   3.364  21.387  0.00  0.00    +0.000 C 
ENDBRANCH  24  25
ENDBRANCH   9  24
TORSDOF 4
ENDMDL
MODEL 3
REMARK VINA RESULT:      -7.6      3.759      6.315
REMARK  Name = 
REMARK  5 active torsions:
REMARK  status: ('A' for Active; 'I' for Inactive)
REMARK    1  A    between atoms: C_1  and  O_2
REMARK    2  A    between atoms: O_2  and  C_3
REMARK    3  A    between atoms: C_11  and  C_12
REMARK    4  A    between atoms: C_12  and  N_13
REMARK    5  A    between atoms: C_19  and  O_20
REMARK                            x       y       z     vdW  Elec       q    Type
REMARK                         _______ _______ _______ _____ _____    ______ ____
ROOT
ATOM      1  C   UNL     1      -3.260  10.339  16.722  0.00  0.00    +0.000 A 
ATOM      2  C   UNL     1      -4.378  11.069  17.098  0.00  0.00    +0.000 A 
ATOM      3  C   UNL     1      -4.355  11.879  18.239  0.00  0.00    +0.000 A 
ATOM      4  C   UNL     1      -5.506  12.582  18.583  0.00  0.00    +0.000 A 
ATOM      5  C   UNL     1      -5.543  13.351  19.742  0.00  0.00    +0.000 A 
ATOM      6  C   UNL     1      -4.395  13.403  20.532  0.00  0.00    +0.000 A 
ATOM      7  N   UNL     1      -3.245  12.756  20.174  0.00  0.00    +0.000 NA
ATOM      8  C   UNL     1      -3.207  11.997  19.046  0.00  0.00    +0.000 A 
ATOM      9  C   UNL     1      -2.049  11.289  18.637  0.00  0.00    +0.000 A 
ATOM     10  C   UNL     1      -2.106  10.448  17.501  0.00  0.00    +0.000 A 
ATOM     11  C   UNL     1      -4.384  14.157  21.815  0.00  0.00    +0.000 A 
ATOM     12  C   UNL     1      -3.175  14.522  22.441  0.00  0.00    +0.000 A 
ATOM     13  C   UNL     1      -3.163  15.242  23.641  0.00  0.00    +0.000 A 
ATOM     14  C   UNL     1      -4.361  15.602  24.239  0.00  0.00    +0.000 A 
ATOM     15  F   UNL     1      -4.349  16.299  25.385  0.00  0.00    +0.000 F 
ATOM     16  C   UNL     1      -5.573  15.249  23.670  0.00  0.00    +0.000 A 
ATOM     17  C   UNL     1      -5.586  14.535  22.466  0.00  0.00    +0.000 A 
ATOM     18  S   UNL     1      -7.199  14.108  21.812  0.00  0.00    +0.000 S 
ATOM     19  C   UNL     1      -6.772  14.148  20.060  0.00  0.00    +0.000 C 
ENDROOT
BRANCH   1  21
ATOM     20  C   UNL     1      -3.305  10.103  14.357  0.00  0.00    +0.000 C 
ATOM     21  O   UNL     1      -3.215   9.499  15.641  0.00  0.00    +0.000 OA
ENDBRANCH   1  21
BRANCH  10  22
ATOM     22  O   UNL     1      -1.014   9.702  17.123  0.00  0.00    +0.000 OA
ATOM     23  H   UNL     1      -1.027   9.630  16.144  0.00  0.00    +0.000 HD
ENDBRANCH  10  22
BRANCH   9  24
ATOM     24  C   UNL     1      -0.805  11.362  19.506  0.00  0.00    +0.000 C 
BRANCH  24  25
ATOM     25  N   UNL     1      -0.560  10.176  20.399  0.00  0.00    +0.000 NA
ATOM     26  C   UNL     1       0.735   9.545  20.055  0.00  0.00    +0.000 C 
ATOM     27  C   UNL     1       1.249   8.544  21.093  0.00  0.00    +0.000 C 
ATOM     28  C   UNL     1       1.297   9.162  22.480  0.00  0.00    +0.000 C 
ATOM     29  C   UNL     1      -0.086   9.669  22.844  0.00  0.00    +0.000 C 
ATOM     30  C   UNL     1      -0.611  10.654  21.798  0.00  0.00    +0.000 C 
ENDBRANCH  24  25
ENDBRANCH   9  24
TORSDOF 4
ENDMDL
MODEL 4
REMARK VINA RESULT:      -7.5      0.511      1.048
REMARK  Name = 
REMARK  5 active torsions:
REMARK  status: ('A' for Active; 'I' for Inactive)
REMARK    1  A    between atoms: C_1  and  O_2
REMARK    2  A    between atoms: O_2  and  C_3
REMARK    3  A    between atoms: C_11  and  C_12
REMARK    4  A    between atoms: C_12  and  N_13
REMARK    5  A    between atoms: C_19  and  O_20
REMARK                            x       y       z     vdW  Elec       q    Type
REMARK                         _______ _______ _______ _____ _____    ______ ____
ROOT
ATOM      1  C   UNL     1      -3.453  14.695  23.880  0.00  0.00    +0.000 A 
ATOM      2  C   UNL     1      -4.488  14.417  23.000  0.00  0.00    +0.000 A 
ATOM      3  C   UNL     1      -4.266  13.648  21.853  0.00  0.00    +0.000 A 
ATOM      4  C   UNL     1      -5.334  13.408  20.992  0.00  0.00    +0.000 A 
ATOM      5  C   UNL     1      -5.142  12.699  19.811  0.00  0.00    +0.000 A 
ATOM      6  C   UNL     1      -3.858  12.231  19.527  0.00  0.00    +0.000 A 
ATOM      7  N   UNL     1      -2.816  12.420  20.391  0.00  0.00    +0.000 NA
ATOM      8  C   UNL     1      -2.997  13.119  21.544  0.00  0.00    +0.000 A 
ATOM      9  C   UNL     1      -1.950  13.362  22.467  0.00  0.00    +0.000 A 
ATOM     10  C   UNL     1      -2.188  14.173  23.601  0.00  0.00    +0.000 A 
ATOM     11  C   UNL     1      -3.570  11.518  18.253  0.00  0.00    +0.000 A 
ATOM     12  C   UNL     1      -2.407  10.738  18.097  0.00  0.00    +0.000 A 
ATOM     13  C   UNL     1      -2.140  10.056  16.903  0.00  0.00    +0.000 A 
ATOM     14  C   UNL     1      -3.029  10.151  15.844  0.00  0.00    +0.000 A 
ATOM     15  F   UNL     1      -2.776   9.492  14.703  0.00  0.00    +0.000 F 
ATOM     16  C   UNL     1      -4.175  10.921  15.946  0.00  0.00    +0.000 A 
ATOM     17  C   UNL     1      -4.446  11.598  17.140  0.00  0.00    +0.000 A 
ATOM     18  S   UNL     1      -5.944  12.582  17.176  0.00  0.00    +0.000 S 
ATOM     19  C   UNL     1      -6.317  12.398  18.930  0.00  0.00    +0.000 C 
ENDROOT
BRANCH   1  21
ATOM     20  C   UNL     1      -4.084  16.785  24.822  0.00  0.00    +0.000 C 
ATOM     21  O   UNL     1      -3.582  15.467  25.004  0.00  0.00    +0.000 OA
ENDBRANCH   1  21
BRANCH  10  22
ATOM     22  O   UNL     1      -1.170  14.475  24.475  0.00  0.00    +0.000 OA
ATOM     23  H   UNL     1      -0.428  14.848  23.951  0.00  0.00    +0.000 HD
ENDBRANCH  10  22
BRANCH   9  24
ATOM     24  C   UNL     1      -0.559  12.841  22.145  0.00  0.00    +0.000 C 
BRANCH  24  25
ATOM     25  N   UNL     1      -0.484  11.404  21.706  0.00  0.00    +0.000 NA
ATOM     26  C   UNL     1       0.778  11.168  20.967  0.00  0.00    +0.000 C 
ATOM     27  C   UNL     1       1.125   9.692  20.757  0.00  0.00    +0.000 C 
ATOM     28  C   UNL     1       1.114   8.930  22.071  0.00  0.00    +0.000 C 
ATOM     29  C   UNL     1      -0.248   9.087  22.723  0.00  0.00    +0.000 C 
ATOM     30  C   UNL     1      -0.605  10.561  22.915  0.00  0.00    +0.000 C 
ENDBRANCH  24  25
ENDBRANCH   9  24
TORSDOF 4
ENDMDL
MODEL 5
REMARK VINA RESULT:      -7.4      6.548      9.839
REMARK  Name = 
REMARK  5 active torsions:
REMARK  status: ('A' for Active; 'I' for Inactive)
REMARK    1  A    between atoms: C_1  and  O_2
REMARK    2  A    between atoms: O_2  and  C_3
REMARK    3  A    between atoms: C_11  and  C_12
REMARK    4  A    between atoms: C_12  and  N_13
REMARK    5  A    between atoms: C_19  and  O_20
REMARK                            x       y       z     vdW  Elec       q    Type
REMARK                         _______ _______ _______ _____ _____    ______ ____
ROOT
ATOM      1  C   UNL     1       5.078   5.429  16.475  0.00  0.00    +0.000 A 
ATOM      2  C   UNL     1       4.418   6.636  16.302  0.00  0.00    +0.000 A 
ATOM      3  C   UNL     1       3.669   7.200  17.341  0.00  0.00    +0.000 A 
ATOM      4  C   UNL     1       3.013   8.406  17.114  0.00  0.00    +0.000 A 
ATOM      5  C   UNL     1       2.210   8.968  18.101  0.00  0.00    +0.000 A 
ATOM      6  C   UNL     1       2.097   8.295  19.318  0.00  0.00    +0.000 A 
ATOM      7  N   UNL     1       2.778   7.137  19.565  0.00  0.00    +0.000 NA
ATOM      8  C   UNL     1       3.558   6.579  18.601  0.00  0.00    +0.000 A 
ATOM      9  C   UNL     1       4.271   5.369  18.795  0.00  0.00    +0.000 A 
ATOM     10  C   UNL     1       4.991   4.799  17.720  0.00  0.00    +0.000 A 
ATOM     11  C   UNL     1       1.208   8.810  20.395  0.00  0.00    +0.000 A 
ATOM     12  C   UNL     1       1.341   8.370  21.727  0.00  0.00    +0.000 A 
ATOM     13  C   UNL     1       0.513   8.862  22.744  0.00  0.00    +0.000 A 
ATOM     14  C   UNL     1      -0.465   9.796  22.442  0.00  0.00    +0.000 A 
ATOM     15  F   UNL     1      -1.253  10.272  23.419  0.00  0.00    +0.000 F 
ATOM     16  C   UNL     1      -0.645  10.243  21.144  0.00  0.00    +0.000 A 
ATOM     17  C   UNL     1       0.186   9.757  20.128  0.00  0.00    +0.000 A 
ATOM     18  S   UNL     1      -0.129  10.379  18.477  0.00  0.00    +0.000 S 
ATOM     19  C   UNL     1       1.563  10.299  17.858  0.00  0.00    +0.000 C 
ENDROOT
BRANCH   1  21
ATOM     20  C   UNL     1       7.184   5.118  15.417  0.00  0.00    +0.000 C 
ATOM     21  O   UNL     1       5.801   4.798  15.498  0.00  0.00    +0.000 OA
ENDBRANCH   1  21
BRANCH  10  22
ATOM     22  O   UNL     1       5.637   3.594  17.866  0.00  0.00    +0.000 OA
ATOM     23  H   UNL     1       6.358   3.720  18.521  0.00  0.00    +0.000 HD
ENDBRANCH  10  22
BRANCH   9  24
ATOM     24  C   UNL     1       4.141   4.652  20.128  0.00  0.00    +0.000 C 
BRANCH  24  25
ATOM     25  N   UNL     1       3.190   3.488  20.155  0.00  0.00    +0.000 NA
ATOM     26  C   UNL     1       2.316   3.579  21.348  0.00  0.00    +0.000 C 
ATOM     27  C   UNL     1       1.101   2.649  21.318  0.00  0.00    +0.000 C 
ATOM     28  C   UNL     1       0.297   2.831  20.041  0.00  0.00    +0.000 C 
ATOM     29  C   UNL     1       1.204   2.589  18.848  0.00  0.00    +0.000 C 
ATOM     30  C   UNL     1       2.429   3.503  18.887  0.00  0.00    +0.000 C 
ENDBRANCH  24  25
ENDBRANCH   9  24
TORSDOF 4
ENDMDL
MODEL 6
REMARK VINA RESULT:      -6.9      6.669      9.767
REMARK  Name = 
REMARK  5 active torsions:
REMARK  status: ('A' for Active; 'I' for Inactive)
REMARK    1  A    between atoms: C_1  and  O_2
REMARK    2  A    between atoms: O_2  and  C_3
REMARK    3  A    between atoms: C_11  and  C_12
REMARK    4  A    between atoms: C_12  and  N_13
REMARK    5  A    between atoms: C_19  and  O_20
REMARK                            x       y       z     vdW  Elec       q    Type
REMARK                         _______ _______ _______ _____ _____    ______ ____
ROOT
ATOM      1  C   UNL     1       3.313   3.240  19.626  0.00  0.00    +0.000 A 
ATOM      2  C   UNL     1       2.433   3.982  20.400  0.00  0.00    +0.000 A 
ATOM      3  C   UNL     1       2.196   5.332  20.120  0.00  0.00    +0.000 A 
ATOM      4  C   UNL     1       1.315   6.039  20.934  0.00  0.00    +0.000 A 
ATOM      5  C   UNL     1       1.098   7.398  20.726  0.00  0.00    +0.000 A 
ATOM      6  C   UNL     1       1.777   8.017  19.676  0.00  0.00    +0.000 A 
ATOM      7  N   UNL     1       2.605   7.319  18.843  0.00  0.00    +0.000 NA
ATOM      8  C   UNL     1       2.826   5.993  19.047  0.00  0.00    +0.000 A 
ATOM      9  C   UNL     1       3.688   5.223  18.226  0.00  0.00    +0.000 A 
ATOM     10  C   UNL     1       3.942   3.870  18.550  0.00  0.00    +0.000 A 
ATOM     11  C   UNL     1       1.638   9.479  19.435  0.00  0.00    +0.000 A 
ATOM     12  C   UNL     1       2.010  10.058  18.205  0.00  0.00    +0.000 A 
ATOM     13  C   UNL     1       1.868  11.431  17.971  0.00  0.00    +0.000 A 
ATOM     14  C   UNL     1       1.359  12.248  18.968  0.00  0.00    +0.000 A 
ATOM     15  F   UNL     1       1.216  13.563  18.741  0.00  0.00    +0.000 F 
ATOM     16  C   UNL     1       0.997  11.727  20.199  0.00  0.00    +0.000 A 
ATOM     17  C   UNL     1       1.133  10.354  20.431  0.00  0.00    +0.000 A 
ATOM     18  S   UNL     1       0.654   9.771  22.057  0.00  0.00    +0.000 S 
ATOM     19  C   UNL     1       0.099   8.125  21.574  0.00  0.00    +0.000 C 
ENDROOT
BRANCH   1  21
ATOM     20  C   UNL     1       4.693   1.669  20.758  0.00  0.00    +0.000 C 
ATOM     21  O   UNL     1       3.623   1.926  19.857  0.00  0.00    +0.000 OA
ENDBRANCH   1  21
BRANCH  10  22
ATOM     22  O   UNL     1       4.825   3.122  17.806  0.00  0.00    +0.000 OA
ATOM     23  H   UNL     1       4.736   3.402  16.869  0.00  0.00    +0.000 HD
ENDBRANCH  10  22
BRANCH   9  24
ATOM     24  C   UNL     1       4.415   5.913  17.084  0.00  0.00    +0.000 C 
BRANCH  24  25
ATOM     25  N   UNL     1       5.914   5.971  17.202  0.00  0.00    +0.000 NA
ATOM     26  C   UNL     1       6.397   7.320  16.826  0.00  0.00    +0.000 C 
ATOM     27  C   UNL     1       7.849   7.606  17.215  0.00  0.00    +0.000 C 
ATOM     28  C   UNL     1       8.089   7.335  18.691  0.00  0.00    +0.000 C 
ATOM     29  C   UNL     1       7.711   5.898  18.998  0.00  0.00    +0.000 C 
ATOM     30  C   UNL     1       6.267   5.604  18.591  0.00  0.00    +0.000 C 
ENDBRANCH  24  25
ENDBRANCH   9  24
TORSDOF 4
ENDMDL
MODEL 7
REMARK VINA RESULT:      -6.9      6.389      9.224
REMARK  Name = 
REMARK  5 active torsions:
REMARK  status: ('A' for Active; 'I' for Inactive)
REMARK    1  A    between atoms: C_1  and  O_2
REMARK    2  A    between atoms: O_2  and  C_3
REMARK    3  A    between atoms: C_11  and  C_12
REMARK    4  A    between atoms: C_12  and  N_13
REMARK    5  A    between atoms: C_19  and  O_20
REMARK                            x       y       z     vdW  Elec       q    Type
REMARK                         _______ _______ _______ _____ _____    ______ ____
ROOT
ATOM      1  C   UNL     1       2.469   4.112  20.416  0.00  0.00    +0.000 A 
ATOM      2  C   UNL     1       1.574   5.019  20.963  0.00  0.00    +0.000 A 
ATOM      3  C   UNL     1       1.534   6.344  20.516  0.00  0.00    +0.000 A 
ATOM      4  C   UNL     1       0.627   7.221  21.106  0.00  0.00    +0.000 A 
ATOM      5  C   UNL     1       0.597   8.561  20.732  0.00  0.00    +0.000 A 
ATOM      6  C   UNL     1       1.489   8.988  19.749  0.00  0.00    +0.000 A 
ATOM      7  N   UNL     1       2.348   8.123  19.131  0.00  0.00    +0.000 NA
ATOM      8  C   UNL     1       2.386   6.814  19.498  0.00  0.00    +0.000 A 
ATOM      9  C   UNL     1       3.269   5.876  18.905  0.00  0.00    +0.000 A 
ATOM     10  C   UNL     1       3.318   4.551  19.397  0.00  0.00    +0.000 A 
ATOM     11  C   UNL     1       1.553  10.419  19.345  0.00  0.00    +0.000 A 
ATOM     12  C   UNL     1       2.166  10.814  18.139  0.00  0.00    +0.000 A 
ATOM     13  C   UNL     1       2.215  12.159  17.752  0.00  0.00    +0.000 A 
ATOM     14  C   UNL     1       1.659  13.130  18.569  0.00  0.00    +0.000 A 
ATOM     15  F   UNL     1       1.700  14.418  18.193  0.00  0.00    +0.000 F 
ATOM     16  C   UNL     1       1.062  12.791  19.771  0.00  0.00    +0.000 A 
ATOM     17  C   UNL     1       1.007  11.447  20.157  0.00  0.00    +0.000 A 
ATOM     18  S   UNL     1       0.231  11.103  21.735  0.00  0.00    +0.000 S 
ATOM     19  C   UNL     1      -0.429   9.473  21.335  0.00  0.00    +0.000 C 
ENDROOT
BRANCH   1  21
ATOM     20  C   UNL     1       1.716   2.375  21.854  0.00  0.00    +0.000 C 
ATOM     21  O   UNL     1       2.592   2.810  20.822  0.00  0.00    +0.000 OA
ENDBRANCH   1  21
BRANCH  10  22
ATOM     22  O   UNL     1       4.212   3.642  18.881  0.00  0.00    +0.000 OA
ATOM     23  H   UNL     1       3.834   3.296  18.043  0.00  0.00    +0.000 HD
ENDBRANCH  10  22
BRANCH   9  24
ATOM     24  C   UNL     1       4.230   6.357  17.831  0.00  0.00    +0.000 C 
BRANCH  24  25
ATOM     25  N   UNL     1       5.053   5.290  17.163  0.00  0.00    +0.000 NA
ATOM     26  C   UNL     1       4.909   5.390  15.692  0.00  0.00    +0.000 C 
ATOM     27  C   UNL     1       5.940   4.585  14.897  0.00  0.00    +0.000 C 
ATOM     28  C   UNL     1       7.357   4.923  15.329  0.00  0.00    +0.000 C 
ATOM     29  C   UNL     1       7.494   4.671  16.819  0.00  0.00    +0.000 C 
ATOM     30  C   UNL     1       6.452   5.458  17.614  0.00  0.00    +0.000 C 
ENDBRANCH  24  25
ENDBRANCH   9  24
TORSDOF 4
ENDMDL
MODEL 8
REMARK VINA RESULT:      -6.9      4.053      6.685
REMARK  Name = 
REMARK  5 active torsions:
REMARK  status: ('A' for Active; 'I' for Inactive)
REMARK    1  A    between atoms: C_1  and  O_2
REMARK    2  A    between atoms: O_2  and  C_3
REMARK    3  A    between atoms: C_11  and  C_12
REMARK    4  A    between atoms: C_12  and  N_13
REMARK    5  A    between atoms: C_19  and  O_20
REMARK                            x       y       z     vdW  Elec       q    Type
REMARK                         _______ _______ _______ _____ _____    ______ ____
ROOT
ATOM      1  C   UNL     1      -3.145  10.414  17.134  0.00  0.00    +0.000 A 
ATOM      2  C   UNL     1      -4.358  10.927  17.567  0.00  0.00    +0.000 A 
ATOM      3  C   UNL     1      -4.415  11.831  18.634  0.00  0.00    +0.000 A 
ATOM      4  C   UNL     1      -5.658  12.307  19.041  0.00  0.00    +0.000 A 
ATOM      5  C   UNL     1      -5.763  13.160  20.135  0.00  0.00    +0.000 A 
ATOM      6  C   UNL     1      -4.590  13.527  20.795  0.00  0.00    +0.000 A 
ATOM      7  N   UNL     1      -3.362  13.103  20.372  0.00  0.00    +0.000 NA
ATOM      8  C   UNL     1      -3.256  12.263  19.307  0.00  0.00    +0.000 A 
ATOM      9  C   UNL     1      -2.011  11.777  18.835  0.00  0.00    +0.000 A 
ATOM     10  C   UNL     1      -1.980  10.836  17.779  0.00  0.00    +0.000 A 
ATOM     11  C   UNL     1      -4.635  14.387  22.009  0.00  0.00    +0.000 A 
ATOM     12  C   UNL     1      -3.485  15.055  22.477  0.00  0.00    +0.000 A 
ATOM     13  C   UNL     1      -3.529  15.875  23.612  0.00  0.00    +0.000 A 
ATOM     14  C   UNL     1      -4.721  16.032  24.301  0.00  0.00    +0.000 A 
ATOM     15  F   UNL     1      -4.763  16.824  25.383  0.00  0.00    +0.000 F 
ATOM     16  C   UNL     1      -5.871  15.381  23.889  0.00  0.00    +0.000 A 
ATOM     17  C   UNL     1      -5.831  14.566  22.751  0.00  0.00    +0.000 A 
ATOM     18  S   UNL     1      -7.362  13.752  22.301  0.00  0.00    +0.000 S 
ATOM     19  C   UNL     1      -7.104  13.710  20.517  0.00  0.00    +0.000 C 
ENDROOT
BRANCH   1  21
ATOM     20  C   UNL     1      -3.131   9.996  14.793  0.00  0.00    +0.000 C 
ATOM     21  O   UNL     1      -3.011   9.502  16.121  0.00  0.00    +0.000 OA
ENDBRANCH   1  21
BRANCH  10  22
ATOM     22  O   UNL     1      -0.788  10.301  17.348  0.00  0.00    +0.000 OA
ATOM     23  H   UNL     1      -0.261  11.029  16.953  0.00  0.00    +0.000 HD
ENDBRANCH  10  22
BRANCH   9  24
ATOM     24  C   UNL     1      -0.743  12.191  19.563  0.00  0.00    +0.000 C 
BRANCH  24  25
ATOM     25  N   UNL     1       0.223  13.028  18.770  0.00  0.00    +0.000 NA
ATOM     26  C   UNL     1       0.196  14.427  19.259  0.00  0.00    +0.000 C 
ATOM     27  C   UNL     1       1.356  15.295  18.765  0.00  0.00    +0.000 C 
ATOM     28  C   UNL     1       2.697  14.643  19.057  0.00  0.00    +0.000 C 
ATOM     29  C   UNL     1       2.729  13.267  18.417  0.00  0.00    +0.000 C 
ATOM     30  C   UNL     1       1.559  12.405  18.893  0.00  0.00    +0.000 C 
ENDBRANCH  24  25
ENDBRANCH   9  24
TORSDOF 4
ENDMDL
MODEL 9
REMARK VINA RESULT:      -6.8      1.630      2.633
REMARK  Name = 
REMARK  5 active torsions:
REMARK  status: ('A' for Active; 'I' for Inactive)
REMARK    1  A    between atoms: C_1  and  O_2
REMARK    2  A    between atoms: O_2  and  C_3
REMARK    3  A    between atoms: C_11  and  C_12
REMARK    4  A    between atoms: C_12  and  N_13
REMARK    5  A    between atoms: C_19  and  O_20
REMARK                            x       y       z     vdW  Elec       q    Type
REMARK                         _______ _______ _______ _____ _____    ______ ____
ROOT
ATOM      1  C   UNL     1      -3.095  14.623  23.889  0.00  0.00    +0.000 A 
ATOM      2  C   UNL     1      -4.172  14.219  23.114  0.00  0.00    +0.000 A 
ATOM      3  C   UNL     1      -3.973  13.496  21.932  0.00  0.00    +0.000 A 
ATOM      4  C   UNL     1      -5.085  13.125  21.181  0.00  0.00    +0.000 A 
ATOM      5  C   UNL     1      -4.927  12.458  19.970  0.00  0.00    +0.000 A 
ATOM      6  C   UNL     1      -3.631  12.166  19.546  0.00  0.00    +0.000 A 
ATOM      7  N   UNL     1      -2.538  12.483  20.302  0.00  0.00    +0.000 NA
ATOM      8  C   UNL     1      -2.686  13.142  21.483  0.00  0.00    +0.000 A 
ATOM      9  C   UNL     1      -1.588  13.513  22.298  0.00  0.00    +0.000 A 
ATOM     10  C   UNL     1      -1.809  14.274  23.469  0.00  0.00    +0.000 A 
ATOM     11  C   UNL     1      -3.387  11.509  18.233  0.00  0.00    +0.000 A 
ATOM     12  C   UNL     1      -2.155  10.891  17.940  0.00  0.00    +0.000 A 
ATOM     13  C   UNL     1      -1.929  10.261  16.710  0.00  0.00    +0.000 A 
ATOM     14  C   UNL     1      -2.929  10.247  15.751  0.00  0.00    +0.000 A 
ATOM     15  F   UNL     1      -2.714   9.637  14.575  0.00  0.00    +0.000 F 
ATOM     16  C   UNL     1      -4.149  10.858  15.987  0.00  0.00    +0.000 A 
ATOM     17  C   UNL     1      -4.379  11.483  17.218  0.00  0.00    +0.000 A 
ATOM     18  S   UNL     1      -5.979  12.260  17.430  0.00  0.00    +0.000 S 
ATOM     19  C   UNL     1      -6.139  12.013  19.209  0.00  0.00    +0.000 C 
ENDROOT
BRANCH   1  21
ATOM     20  C   UNL     1      -3.985  16.548  24.964  0.00  0.00    +0.000 C 
ATOM     21  O   UNL     1      -3.205  15.361  25.038  0.00  0.00    +0.000 OA
ENDBRANCH   1  21
BRANCH  10  22
ATOM     22  O   UNL     1      -0.753  14.701  24.241  0.00  0.00    +0.000 OA
ATOM     23  H   UNL     1      -0.358  13.909  24.667  0.00  0.00    +0.000 HD
ENDBRANCH  10  22
BRANCH   9  24
ATOM     24  C   UNL     1      -0.183  13.182  21.823  0.00  0.00    +0.000 C 
BRANCH  24  25
ATOM     25  N   UNL     1       0.665  14.357  21.420  0.00  0.00    +0.000 NA
ATOM     26  C   UNL     1       2.062  13.916  21.195  0.00  0.00    +0.000 C 
ATOM     27  C   UNL     1       2.941  14.938  20.470  0.00  0.00    +0.000 C 
ATOM     28  C   UNL     1       2.300  15.395  19.171  0.00  0.00    +0.000 C 
ATOM     29  C   UNL     1       0.926  15.968  19.471  0.00  0.00    +0.000 C 
ATOM     30  C   UNL     1       0.053  14.956  20.213  0.00  0.00    +0.000 C 
ENDBRANCH  24  25
ENDBRANCH   9  24
TORSDOF 4
ENDMDL
