MODEL 1
REMARK VINA RESULT:      -7.8      0.000      0.000
REMARK  Name = 
REMARK  5 active torsions:
REMARK  status: ('A' for Active; 'I' for Inactive)
REMARK    1  A    between atoms: C_1  and  O_2
REMARK    2  A    between atoms: O_2  and  C_3
REMARK    3  A    between atoms: C_6  and  C_7
REMARK    4  A    between atoms: C_7  and  N_8
REMARK    5  A    between atoms: N_25  and  C_26
REMARK                            x       y       z     vdW  Elec       q    Type
REMARK                         _______ _______ _______ _____ _____    ______ ____
ROOT
ATOM      1  N   UNL     1       1.838   8.428  19.228  0.00  0.00    +0.000 N 
ATOM      2  C   UNL     1       1.778   7.877  20.519  0.00  0.00    +0.000 C 
ATOM      3  C   UNL     1       0.921   8.307  21.465  0.00  0.00    +0.000 C 
ATOM      4  C   UNL     1      -0.082   9.291  21.100  0.00  0.00    +0.000 C 
ATOM      5  C   UNL     1       0.034   9.942  19.944  0.00  0.00    +0.000 C 
ATOM      6  C   UNL     1       1.262   9.714  19.089  0.00  0.00    +0.000 C 
ATOM      7  N   UNL     1       1.822  10.659  18.368  0.00  0.00    +0.000 NA
ATOM      8  C   UNL     1       1.664  12.048  18.696  0.00  0.00    +0.000 A 
ATOM      9  C   UNL     1       2.403  12.986  17.978  0.00  0.00    +0.000 A 
ATOM     10  C   UNL     1       3.000  14.060  18.656  0.00  0.00    +0.000 A 
ATOM     11 CL   UNL     1       3.839  15.279  17.778  0.00  0.00    +0.000 Cl
ATOM     12  C   UNL     1       2.932  14.159  20.048  0.00  0.00    +0.000 A 
ATOM     13  C   UNL     1       2.014  13.374  20.722  0.00  0.00    +0.000 A 
ATOM     14  C   UNL     1       1.277  12.457  19.970  0.00  0.00    +0.000 A 
ATOM     15  S   UNL     1      -0.477  12.389  20.307  0.00  0.00    +0.000 S 
ATOM     16  O   UNL     1      -1.085  13.493  19.588  0.00  0.00    +0.000 OA
ATOM     17  O   UNL     1      -0.617  12.261  21.742  0.00  0.00    +0.000 OA
ATOM     18  N   UNL     1      -0.954  10.907  19.581  0.00  0.00    +0.000 N 
ATOM     19  C   UNL     1      -1.291  10.975  18.123  0.00  0.00    +0.000 C 
ENDROOT
BRANCH   1  20
ATOM     20  C   UNL     1       1.703   7.493  18.108  0.00  0.00    +0.000 C 
BRANCH  20  24
ATOM     21  C   UNL     1       5.073   4.931  17.240  0.00  0.00    +0.000 A 
ATOM     22  C   UNL     1       5.215   6.310  17.126  0.00  0.00    +0.000 A 
ATOM     23  C   UNL     1       4.157   7.164  17.414  0.00  0.00    +0.000 A 
ATOM     24  C   UNL     1       2.915   6.646  17.791  0.00  0.00    +0.000 A 
ATOM     25  C   UNL     1       2.775   5.254  17.894  0.00  0.00    +0.000 A 
ATOM     26  C   UNL     1       3.839   4.401  17.615  0.00  0.00    +0.000 A 
BRANCH  21  28
ATOM     27  C   UNL     1       7.412   4.649  17.472  0.00  0.00    +0.000 C 
ATOM     28  O   UNL     1       6.181   4.194  16.925  0.00  0.00    +0.000 OA
ENDBRANCH  21  28
ENDBRANCH  20  24
ENDBRANCH   1  20
TORSDOF 3
ENDMDL
MODEL 2
REMARK VINA RESULT:      -7.6      0.990      1.584
REMARK  Name = 
REMARK  5 active torsions:
REMARK  status: ('A' for Active; 'I' for Inactive)
REMARK    1  A    between atoms: C_1  and  O_2
REMARK    2  A    between atoms: O_2  and  C_3
REMARK    3  A    between atoms: C_6  and  C_7
REMARK    4  A    between atoms: C_7  and  N_8
REMARK    5  A    between atoms: N_25  and  C_26
REMARK                            x       y       z     vdW  Elec       q    Type
REMARK                         _______ _______ _______ _____ _____    ______ ____
ROOT
ATOM      1  N   UNL     1       1.913   8.486  19.128  0.00  0.00    +0.000 N 
ATOM      2  C   UNL     1       1.840   7.896  20.401  0.00  0.00    +0.000 C 
ATOM      3  C   UNL     1       0.947   8.270  21.338  0.00  0.00    +0.000 C 
ATOM      4  C   UNL     1      -0.078   9.232  20.977  0.00  0.00    +0.000 C 
ATOM      5  C   UNL     1       0.044   9.920  19.843  0.00  0.00    +0.000 C 
ATOM      6  C   UNL     1       1.299   9.757  19.012  0.00  0.00    +0.000 C 
ATOM      7  N   UNL     1       1.844  10.740  18.333  0.00  0.00    +0.000 NA
ATOM      8  C   UNL     1       1.632  12.113  18.696  0.00  0.00    +0.000 A 
ATOM      9  C   UNL     1       2.357  13.096  18.024  0.00  0.00    +0.000 A 
ATOM     10  C   UNL     1       2.903  14.168  18.747  0.00  0.00    +0.000 A 
ATOM     11 CL   UNL     1       3.721  15.438  17.925  0.00  0.00    +0.000 Cl
ATOM     12  C   UNL     1       2.798  14.223  20.139  0.00  0.00    +0.000 A 
ATOM     13  C   UNL     1       1.891  13.390  20.767  0.00  0.00    +0.000 A 
ATOM     14  C   UNL     1       1.202  12.472  19.971  0.00  0.00    +0.000 A 
ATOM     15  S   UNL     1      -0.556  12.338  20.263  0.00  0.00    +0.000 S 
ATOM     16  O   UNL     1      -1.183  13.442  19.562  0.00  0.00    +0.000 OA
ATOM     17  O   UNL     1      -0.725  12.163  21.690  0.00  0.00    +0.000 OA
ATOM     18  N   UNL     1      -0.967  10.863  19.483  0.00  0.00    +0.000 N 
ATOM     19  C   UNL     1      -1.271  10.963  18.021  0.00  0.00    +0.000 C 
ENDROOT
BRANCH   1  20
ATOM     20  C   UNL     1       1.835   7.581  17.980  0.00  0.00    +0.000 C 
BRANCH  20  24
ATOM     21  C   UNL     1       3.842   3.784  18.463  0.00  0.00    +0.000 A 
ATOM     22  C   UNL     1       2.454   3.819  18.380  0.00  0.00    +0.000 A 
ATOM     23  C   UNL     1       1.777   5.020  18.208  0.00  0.00    +0.000 A 
ATOM     24  C   UNL     1       2.483   6.225  18.149  0.00  0.00    +0.000 A 
ATOM     25  C   UNL     1       3.882   6.185  18.244  0.00  0.00    +0.000 A 
ATOM     26  C   UNL     1       4.558   4.980  18.407  0.00  0.00    +0.000 A 
BRANCH  21  28
ATOM     27  C   UNL     1       3.532   1.438  18.412  0.00  0.00    +0.000 C 
ATOM     28  O   UNL     1       4.394   2.546  18.639  0.00  0.00    +0.000 OA
ENDBRANCH  21  28
ENDBRANCH  20  24
ENDBRANCH   1  20
TORSDOF 3
ENDMDL
MODEL 3
REMARK VINA RESULT:      -7.0      1.028      1.330
REMARK  Name = 
REMARK  5 active torsions:
REMARK  status: ('A' for Active; 'I' for Inactive)
REMARK    1  A    between atoms: C_1  and  O_2
REMARK    2  A    between atoms: O_2  and  C_3
REMARK    3  A    between atoms: C_6  and  C_7
REMARK    4  A    between atoms: C_7  and  N_8
REMARK    5  A    between atoms: N_25  and  C_26
REMARK                            x       y       z     vdW  Elec       q    Type
REMARK                         _______ _______ _______ _____ _____    ______ ____
ROOT
ATOM      1  N   UNL     1       1.471   8.967  20.262  0.00  0.00    +0.000 N 
ATOM      2  C   UNL     1       1.391   8.674  21.633  0.00  0.00    +0.000 C 
ATOM      3  C   UNL     1       0.560   9.314  22.478  0.00  0.00    +0.000 C 
ATOM      4  C   UNL     1      -0.398  10.257  21.930  0.00  0.00    +0.000 C 
ATOM      5  C   UNL     1      -0.257  10.672  20.673  0.00  0.00    +0.000 C 
ATOM      6  C   UNL     1       0.954  10.230  19.880  0.00  0.00    +0.000 C 
ATOM      7  N   UNL     1       1.554  10.994  18.997  0.00  0.00    +0.000 NA
ATOM      8  C   UNL     1       1.462  12.426  19.055  0.00  0.00    +0.000 A 
ATOM      9  C   UNL     1       2.240  13.177  18.177  0.00  0.00    +0.000 A 
ATOM     10  C   UNL     1       2.890  14.330  18.642  0.00  0.00    +0.000 A 
ATOM     11 CL   UNL     1       3.780  15.321  17.553  0.00  0.00    +0.000 Cl
ATOM     12  C   UNL     1       2.834  14.693  19.990  0.00  0.00    +0.000 A 
ATOM     13  C   UNL     1       1.884  14.093  20.796  0.00  0.00    +0.000 A 
ATOM     14  C   UNL     1       1.101  13.086  20.228  0.00  0.00    +0.000 A 
ATOM     15  S   UNL     1      -0.652  13.165  20.565  0.00  0.00    +0.000 S 
ATOM     16  O   UNL     1      -1.212  14.141  19.649  0.00  0.00    +0.000 OA
ATOM     17  O   UNL     1      -0.790  13.317  21.998  0.00  0.00    +0.000 OA
ATOM     18  N   UNL     1      -1.202  11.596  20.130  0.00  0.00    +0.000 N 
ATOM     19  C   UNL     1      -1.542  11.404  18.685  0.00  0.00    +0.000 C 
ENDROOT
BRANCH   1  20
ATOM     20  C   UNL     1       1.286   7.845  19.338  0.00  0.00    +0.000 C 
BRANCH  20  24
ATOM     21  C   UNL     1       4.877   5.837  18.017  0.00  0.00    +0.000 A 
ATOM     22  C   UNL     1       4.222   5.387  19.159  0.00  0.00    +0.000 A 
ATOM     23  C   UNL     1       3.055   5.999  19.602  0.00  0.00    +0.000 A 
ATOM     24  C   UNL     1       2.538   7.105  18.924  0.00  0.00    +0.000 A 
ATOM     25  C   UNL     1       3.208   7.561  17.779  0.00  0.00    +0.000 A 
ATOM     26  C   UNL     1       4.371   6.941  17.331  0.00  0.00    +0.000 A 
BRANCH  21  28
ATOM     27  C   UNL     1       7.234   5.695  18.188  0.00  0.00    +0.000 C 
ATOM     28  O   UNL     1       6.017   5.160  17.683  0.00  0.00    +0.000 OA
ENDBRANCH  21  28
ENDBRANCH  20  24
ENDBRANCH   1  20
TORSDOF 3
ENDMDL
MODEL 4
REMARK VINA RESULT:      -6.6      1.437      1.712
REMARK  Name = 
REMARK  5 active torsions:
REMARK  status: ('A' for Active; 'I' for Inactive)
REMARK    1  A    between atoms: C_1  and  O_2
REMARK    2  A    between atoms: O_2  and  C_3
REMARK    3  A    between atoms: C_6  and  C_7
REMARK    4  A    between atoms: C_7  and  N_8
REMARK    5  A    between atoms: N_25  and  C_26
REMARK                            x       y       z     vdW  Elec       q    Type
REMARK                         _______ _______ _______ _____ _____    ______ ____
ROOT
ATOM      1  N   UNL     1       1.163   9.084  20.787  0.00  0.00    +0.000 N 
ATOM      2  C   UNL     1       1.165   8.834  22.169  0.00  0.00    +0.000 C 
ATOM      3  C   UNL     1       0.452   9.562  23.051  0.00  0.00    +0.000 C 
ATOM      4  C   UNL     1      -0.467  10.564  22.544  0.00  0.00    +0.000 C 
ATOM      5  C   UNL     1      -0.390  10.932  21.267  0.00  0.00    +0.000 C 
ATOM      6  C   UNL     1       0.720  10.373  20.402  0.00  0.00    +0.000 C 
ATOM      7  N   UNL     1       1.310  11.062  19.453  0.00  0.00    +0.000 NA
ATOM      8  C   UNL     1       1.335  12.498  19.471  0.00  0.00    +0.000 A 
ATOM      9  C   UNL     1       2.100  13.160  18.513  0.00  0.00    +0.000 A 
ATOM     10  C   UNL     1       2.872  14.269  18.891  0.00  0.00    +0.000 A 
ATOM     11 CL   UNL     1       3.752  15.155  17.708  0.00  0.00    +0.000 Cl
ATOM     12  C   UNL     1       2.946  14.672  20.227  0.00  0.00    +0.000 A 
ATOM     13  C   UNL     1       2.015  14.172  21.120  0.00  0.00    +0.000 A 
ATOM     14  C   UNL     1       1.116  13.216  20.644  0.00  0.00    +0.000 A 
ATOM     15  S   UNL     1      -0.595  13.445  21.106  0.00  0.00    +0.000 S 
ATOM     16  O   UNL     1      -1.145  14.438  20.201  0.00  0.00    +0.000 OA
ATOM     17  O   UNL     1      -0.613  13.646  22.539  0.00  0.00    +0.000 OA
ATOM     18  N   UNL     1      -1.297  11.914  20.764  0.00  0.00    +0.000 N 
ATOM     19  C   UNL     1      -1.760  11.711  19.355  0.00  0.00    +0.000 C 
ENDROOT
BRANCH   1  20
ATOM     20  C   UNL     1       0.823   7.955  19.917  0.00  0.00    +0.000 C 
BRANCH  20  24
ATOM     21  C   UNL     1       3.907   4.991  19.304  0.00  0.00    +0.000 A 
ATOM     22  C   UNL     1       3.885   6.130  18.506  0.00  0.00    +0.000 A 
ATOM     23  C   UNL     1       2.918   7.112  18.687  0.00  0.00    +0.000 A 
ATOM     24  C   UNL     1       1.924   6.952  19.657  0.00  0.00    +0.000 A 
ATOM     25  C   UNL     1       1.944   5.796  20.451  0.00  0.00    +0.000 A 
ATOM     26  C   UNL     1       2.920   4.819  20.275  0.00  0.00    +0.000 A 
BRANCH  21  28
ATOM     27  C   UNL     1       6.007   4.594  18.288  0.00  0.00    +0.000 C 
ATOM     28  O   UNL     1       4.901   4.095  19.028  0.00  0.00    +0.000 OA
ENDBRANCH  21  28
ENDBRANCH  20  24
ENDBRANCH   1  20
TORSDOF 3
ENDMDL
MODEL 5
REMARK VINA RESULT:      -6.5      4.570      8.897
REMARK  Name = 
REMARK  5 active torsions:
REMARK  status: ('A' for Active; 'I' for Inactive)
REMARK    1  A    between atoms: C_1  and  O_2
REMARK    2  A    between atoms: O_2  and  C_3
REMARK    3  A    between atoms: C_6  and  C_7
REMARK    4  A    between atoms: C_7  and  N_8
REMARK    5  A    between atoms: N_25  and  C_26
REMARK                            x       y       z     vdW  Elec       q    Type
REMARK                         _______ _______ _______ _____ _____    ______ ____
ROOT
ATOM      1  N   UNL     1      -1.398  11.521  22.506  0.00  0.00    +0.000 N 
ATOM      2  C   UNL     1      -1.081  10.366  23.240  0.00  0.00    +0.000 C 
ATOM      3  C   UNL     1      -0.017   9.586  22.967  0.00  0.00    +0.000 C 
ATOM      4  C   UNL     1       0.927  10.027  21.956  0.00  0.00    +0.000 C 
ATOM      5  C   UNL     1       0.590  11.025  21.142  0.00  0.00    +0.000 C 
ATOM      6  C   UNL     1      -0.805  11.607  21.223  0.00  0.00    +0.000 C 
ATOM      7  N   UNL     1      -1.464  12.045  20.175  0.00  0.00    +0.000 NA
ATOM      8  C   UNL     1      -1.171  11.572  18.851  0.00  0.00    +0.000 A 
ATOM      9  C   UNL     1      -2.003  11.968  17.806  0.00  0.00    +0.000 A 
ATOM     10  C   UNL     1      -2.384  11.032  16.833  0.00  0.00    +0.000 A 
ATOM     11 CL   UNL     1      -3.336  11.522  15.486  0.00  0.00    +0.000 Cl
ATOM     12  C   UNL     1      -2.007   9.691  16.939  0.00  0.00    +0.000 A 
ATOM     13  C   UNL     1      -1.002   9.356  17.828  0.00  0.00    +0.000 A 
ATOM     14  C   UNL     1      -0.494  10.373  18.638  0.00  0.00    +0.000 A 
ATOM     15  S   UNL     1       1.286  10.451  18.782  0.00  0.00    +0.000 S 
ATOM     16  O   UNL     1       1.774  11.128  17.595  0.00  0.00    +0.000 OA
ATOM     17  O   UNL     1       1.732   9.117  19.120  0.00  0.00    +0.000 OA
ATOM     18  N   UNL     1       1.520  11.464  20.150  0.00  0.00    +0.000 N 
ATOM     19  C   UNL     1       1.531  12.936  19.875  0.00  0.00    +0.000 C 
ENDROOT
BRANCH   1  20
ATOM     20  C   UNL     1      -1.557  12.761  23.270  0.00  0.00    +0.000 C 
BRANCH  20  24
ATOM     21  C   UNL     1      -5.547  14.371  23.669  0.00  0.00    +0.000 A 
ATOM     22  C   UNL     1      -5.286  13.075  24.101  0.00  0.00    +0.000 A 
ATOM     23  C   UNL     1      -4.011  12.531  24.003  0.00  0.00    +0.000 A 
ATOM     24  C   UNL     1      -2.971  13.271  23.434  0.00  0.00    +0.000 A 
ATOM     25  C   UNL     1      -3.242  14.574  22.990  0.00  0.00    +0.000 A 
ATOM     26  C   UNL     1      -4.519  15.120  23.098  0.00  0.00    +0.000 A 
BRANCH  21  28
ATOM     27  C   UNL     1      -7.764  13.828  24.296  0.00  0.00    +0.000 C 
ATOM     28  O   UNL     1      -6.840  14.793  23.810  0.00  0.00    +0.000 OA
ENDBRANCH  21  28
ENDBRANCH  20  24
ENDBRANCH   1  20
TORSDOF 3
ENDMDL
MODEL 6
REMARK VINA RESULT:      -6.5      6.737     10.505
REMARK  Name = 
REMARK  5 active torsions:
REMARK  status: ('A' for Active; 'I' for Inactive)
REMARK    1  A    between atoms: C_1  and  O_2
REMARK    2  A    between atoms: O_2  and  C_3
REMARK    3  A    between atoms: C_6  and  C_7
REMARK    4  A    between atoms: C_7  and  N_8
REMARK    5  A    between atoms: N_25  and  C_26
REMARK                            x       y       z     vdW  Elec       q    Type
REMARK                         _______ _______ _______ _____ _____    ______ ____
ROOT
ATOM      1  N   UNL     1       7.492  15.742  19.606  0.00  0.00    +0.000 N 
ATOM      2  C   UNL     1       7.901  16.295  20.830  0.00  0.00    +0.000 C 
ATOM      3  C   UNL     1       9.191  16.362  21.216  0.00  0.00    +0.000 C 
ATOM      4  C   UNL     1      10.221  15.972  20.269  0.00  0.00    +0.000 C 
ATOM      5  C   UNL     1       9.875  15.309  19.168  0.00  0.00    +0.000 C 
ATOM      6  C   UNL     1       8.433  14.889  18.979  0.00  0.00    +0.000 C 
ATOM      7  N   UNL     1       8.081  13.769  18.391  0.00  0.00    +0.000 NA
ATOM      8  C   UNL     1       8.966  12.640  18.333  0.00  0.00    +0.000 A 
ATOM      9  C   UNL     1       8.477  11.439  17.824  0.00  0.00    +0.000 A 
ATOM     10  C   UNL     1       8.808  10.232  18.459  0.00  0.00    +0.000 A 
ATOM     11 CL   UNL     1       8.289   8.733  17.795  0.00  0.00    +0.000 Cl
ATOM     12  C   UNL     1       9.556  10.223  19.639  0.00  0.00    +0.000 A 
ATOM     13  C   UNL     1      10.231  11.375  20.002  0.00  0.00    +0.000 A 
ATOM     14  C   UNL     1      10.040  12.509  19.211  0.00  0.00    +0.000 A 
ATOM     15  S   UNL     1      11.512  13.425  18.778  0.00  0.00    +0.000 S 
ATOM     16  O   UNL     1      12.127  12.729  17.663  0.00  0.00    +0.000 OA
ATOM     17  O   UNL     1      12.236  13.651  20.011  0.00  0.00    +0.000 OA
ATOM     18  N   UNL     1      10.886  14.930  18.233  0.00  0.00    +0.000 N 
ATOM     19  C   UNL     1      10.491  14.985  16.789  0.00  0.00    +0.000 C 
ENDROOT
BRANCH   1  20
ATOM     20  C   UNL     1       6.660  16.590  18.748  0.00  0.00    +0.000 C 
BRANCH  20  24
ATOM     21  C   UNL     1       2.415  15.783  18.788  0.00  0.00    +0.000 A 
ATOM     22  C   UNL     1       3.232  15.101  17.892  0.00  0.00    +0.000 A 
ATOM     23  C   UNL     1       4.604  15.324  17.864  0.00  0.00    +0.000 A 
ATOM     24  C   UNL     1       5.183  16.267  18.717  0.00  0.00    +0.000 A 
ATOM     25  C   UNL     1       4.352  16.959  19.611  0.00  0.00    +0.000 A 
ATOM     26  C   UNL     1       2.980  16.727  19.644  0.00  0.00    +0.000 A 
BRANCH  21  28
ATOM     27  C   UNL     1       0.201  16.587  18.548  0.00  0.00    +0.000 C 
ATOM     28  O   UNL     1       1.083  15.484  18.718  0.00  0.00    +0.000 OA
ENDBRANCH  21  28
ENDBRANCH  20  24
ENDBRANCH   1  20
TORSDOF 3
ENDMDL
MODEL 7
REMARK VINA RESULT:      -6.3      4.868      6.212
REMARK  Name = 
REMARK  5 active torsions:
REMARK  status: ('A' for Active; 'I' for Inactive)
REMARK    1  A    between atoms: C_1  and  O_2
REMARK    2  A    between atoms: O_2  and  C_3
REMARK    3  A    between atoms: C_6  and  C_7
REMARK    4  A    between atoms: C_7  and  N_8
REMARK    5  A    between atoms: N_25  and  C_26
REMARK                            x       y       z     vdW  Elec       q    Type
REMARK                         _______ _______ _______ _____ _____    ______ ____
ROOT
ATOM      1  N   UNL     1      -0.770  11.669  19.241  0.00  0.00    +0.000 N 
ATOM      2  C   UNL     1       0.197  10.698  19.551  0.00  0.00    +0.000 C 
ATOM      3  C   UNL     1       1.050  10.809  20.588  0.00  0.00    +0.000 C 
ATOM      4  C   UNL     1       0.879  11.915  21.513  0.00  0.00    +0.000 C 
ATOM      5  C   UNL     1       0.082  12.927  21.178  0.00  0.00    +0.000 C 
ATOM      6  C   UNL     1      -0.543  12.951  19.799  0.00  0.00    +0.000 C 
ATOM      7  N   UNL     1      -0.751  14.056  19.122  0.00  0.00    +0.000 NA
ATOM      8  C   UNL     1       0.019  15.244  19.366  0.00  0.00    +0.000 A 
ATOM      9  C   UNL     1      -0.154  16.333  18.514  0.00  0.00    +0.000 A 
ATOM     10  C   UNL     1       0.968  17.057  18.083  0.00  0.00    +0.000 A 
ATOM     11 CL   UNL     1       0.769  18.459  17.105  0.00  0.00    +0.000 Cl
ATOM     12  C   UNL     1       2.261  16.657  18.431  0.00  0.00    +0.000 A 
ATOM     13  C   UNL     1       2.414  15.737  19.452  0.00  0.00    +0.000 A 
ATOM     14  C   UNL     1       1.255  15.192  20.008  0.00  0.00    +0.000 A 
ATOM     15  S   UNL     1       1.199  15.109  21.792  0.00  0.00    +0.000 S 
ATOM     16  O   UNL     1       0.825  16.430  22.262  0.00  0.00    +0.000 OA
ATOM     17  O   UNL     1       2.434  14.485  22.215  0.00  0.00    +0.000 OA
ATOM     18  N   UNL     1      -0.092  14.014  22.089  0.00  0.00    +0.000 N 
ATOM     19  C   UNL     1      -1.461  14.617  22.127  0.00  0.00    +0.000 C 
ENDROOT
BRANCH   1  20
ATOM     20  C   UNL     1      -2.155  11.204  19.134  0.00  0.00    +0.000 C 
BRANCH  20  24
ATOM     21  C   UNL     1      -3.693  10.366  15.183  0.00  0.00    +0.000 A 
ATOM     22  C   UNL     1      -2.518   9.751  15.605  0.00  0.00    +0.000 A 
ATOM     23  C   UNL     1      -2.004   9.985  16.875  0.00  0.00    +0.000 A 
ATOM     24  C   UNL     1      -2.645  10.874  17.742  0.00  0.00    +0.000 A 
ATOM     25  C   UNL     1      -3.824  11.499  17.308  0.00  0.00    +0.000 A 
ATOM     26  C   UNL     1      -4.342  11.256  16.039  0.00  0.00    +0.000 A 
BRANCH  21  28
ATOM     27  C   UNL     1      -3.086   9.592  13.030  0.00  0.00    +0.000 C 
ATOM     28  O   UNL     1      -4.096  10.063  13.913  0.00  0.00    +0.000 OA
ENDBRANCH  21  28
ENDBRANCH  20  24
ENDBRANCH   1  20
TORSDOF 3
ENDMDL
MODEL 8
REMARK VINA RESULT:      -6.3      1.340      1.712
REMARK  Name = 
REMARK  5 active torsions:
REMARK  status: ('A' for Active; 'I' for Inactive)
REMARK    1  A    between atoms: C_1  and  O_2
REMARK    2  A    between atoms: O_2  and  C_3
REMARK    3  A    between atoms: C_6  and  C_7
REMARK    4  A    between atoms: C_7  and  N_8
REMARK    5  A    between atoms: N_25  and  C_26
REMARK                            x       y       z     vdW  Elec       q    Type
REMARK                         _______ _______ _______ _____ _____    ______ ____
ROOT
ATOM      1  N   UNL     1       1.464   9.669  19.462  0.00  0.00    +0.000 N 
ATOM      2  C   UNL     1       1.153   9.041  20.680  0.00  0.00    +0.000 C 
ATOM      3  C   UNL     1       0.223   9.508  21.536  0.00  0.00    +0.000 C 
ATOM      4  C   UNL     1      -0.596  10.635  21.125  0.00  0.00    +0.000 C 
ATOM      5  C   UNL     1      -0.238  11.345  20.057  0.00  0.00    +0.000 C 
ATOM      6  C   UNL     1       1.067  11.024  19.359  0.00  0.00    +0.000 C 
ATOM      7  N   UNL     1       1.831  11.938  18.807  0.00  0.00    +0.000 NA
ATOM      8  C   UNL     1       1.788  13.310  19.230  0.00  0.00    +0.000 A 
ATOM      9  C   UNL     1       2.727  14.195  18.704  0.00  0.00    +0.000 A 
ATOM     10  C   UNL     1       3.340  15.135  19.547  0.00  0.00    +0.000 A 
ATOM     11 CL   UNL     1       4.432  16.296  18.901  0.00  0.00    +0.000 Cl
ATOM     12  C   UNL     1       3.081  15.144  20.921  0.00  0.00    +0.000 A 
ATOM     13  C   UNL     1       1.991  14.436  21.392  0.00  0.00    +0.000 A 
ATOM     14  C   UNL     1       1.270  13.674  20.470  0.00  0.00    +0.000 A 
ATOM     15  S   UNL     1      -0.510  13.806  20.559  0.00  0.00    +0.000 S 
ATOM     16  O   UNL     1      -0.876  15.026  19.864  0.00  0.00    +0.000 OA
ATOM     17  O   UNL     1      -0.871  13.597  21.945  0.00  0.00    +0.000 OA
ATOM     18  N   UNL     1      -1.045  12.451  19.648  0.00  0.00    +0.000 N 
ATOM     19  C   UNL     1      -1.156  12.663  18.170  0.00  0.00    +0.000 C 
ENDROOT
BRANCH   1  20
ATOM     20  C   UNL     1       1.386   8.839  18.258  0.00  0.00    +0.000 C 
BRANCH  20  24
ATOM     21  C   UNL     1       4.295   5.665  17.885  0.00  0.00    +0.000 A 
ATOM     22  C   UNL     1       3.182   5.481  18.700  0.00  0.00    +0.000 A 
ATOM     23  C   UNL     1       2.219   6.475  18.829  0.00  0.00    +0.000 A 
ATOM     24  C   UNL     1       2.370   7.695  18.166  0.00  0.00    +0.000 A 
ATOM     25  C   UNL     1       3.500   7.879  17.354  0.00  0.00    +0.000 A 
ATOM     26  C   UNL     1       4.458   6.879  17.218  0.00  0.00    +0.000 A 
BRANCH  21  28
ATOM     27  C   UNL     1       4.780   3.499  17.064  0.00  0.00    +0.000 C 
ATOM     28  O   UNL     1       5.176   4.621  17.842  0.00  0.00    +0.000 OA
ENDBRANCH  21  28
ENDBRANCH  20  24
ENDBRANCH   1  20
TORSDOF 3
ENDMDL
MODEL 9
REMARK VINA RESULT:      -6.3      5.413      6.418
REMARK  Name = 
REMARK  5 active torsions:
REMARK  status: ('A' for Active; 'I' for Inactive)
REMARK    1  A    between atoms: C_1  and  O_2
REMARK    2  A    between atoms: O_2  and  C_3
REMARK    3  A    between atoms: C_6  and  C_7
REMARK    4  A    between atoms: C_7  and  N_8
REMARK    5  A    between atoms: N_25  and  C_26
REMARK                            x       y       z     vdW  Elec       q    Type
REMARK                         _______ _______ _______ _____ _____    ______ ____
ROOT
ATOM      1  N   UNL     1      -1.766  12.414  20.532  0.00  0.00    +0.000 N 
ATOM      2  C   UNL     1      -1.479  11.634  21.664  0.00  0.00    +0.000 C 
ATOM      3  C   UNL     1      -1.166  12.161  22.864  0.00  0.00    +0.000 C 
ATOM      4  C   UNL     1      -1.261  13.599  23.038  0.00  0.00    +0.000 C 
ATOM      5  C   UNL     1      -1.383  14.378  21.965  0.00  0.00    +0.000 C 
ATOM      6  C   UNL     1      -1.314  13.755  20.587  0.00  0.00    +0.000 C 
ATOM      7  N   UNL     1      -0.772  14.355  19.552  0.00  0.00    +0.000 NA
ATOM      8  C   UNL     1       0.221  15.380  19.712  0.00  0.00    +0.000 A 
ATOM      9  C   UNL     1       0.858  15.870  18.573  0.00  0.00    +0.000 A 
ATOM     10  C   UNL     1       2.241  16.104  18.602  0.00  0.00    +0.000 A 
ATOM     11 CL   UNL     1       3.030  16.794  17.238  0.00  0.00    +0.000 Cl
ATOM     12  C   UNL     1       3.002  15.781  19.728  0.00  0.00    +0.000 A 
ATOM     13  C   UNL     1       2.345  15.525  20.918  0.00  0.00    +0.000 A 
ATOM     14  C   UNL     1       0.949  15.512  20.893  0.00  0.00    +0.000 A 
ATOM     15  S   UNL     1       0.128  16.388  22.216  0.00  0.00    +0.000 S 
ATOM     16  O   UNL     1       0.139  17.794  21.859  0.00  0.00    +0.000 OA
ATOM     17  O   UNL     1       0.724  15.924  23.450  0.00  0.00    +0.000 OA
ATOM     18  N   UNL     1      -1.482  15.793  22.134  0.00  0.00    +0.000 N 
ATOM     19  C   UNL     1      -2.389  16.501  21.175  0.00  0.00    +0.000 C 
ENDROOT
BRANCH   1  20
ATOM     20  C   UNL     1      -3.040  12.149  19.859  0.00  0.00    +0.000 C 
BRANCH  20  24
ATOM     21  C   UNL     1      -2.959  10.252  15.977  0.00  0.00    +0.000 A 
ATOM     22  C   UNL     1      -1.927  10.010  16.879  0.00  0.00    +0.000 A 
ATOM     23  C   UNL     1      -1.930  10.590  18.142  0.00  0.00    +0.000 A 
ATOM     24  C   UNL     1      -2.959  11.459  18.516  0.00  0.00    +0.000 A 
ATOM     25  C   UNL     1      -3.991  11.707  17.599  0.00  0.00    +0.000 A 
ATOM     26  C   UNL     1      -3.991  11.117  16.338  0.00  0.00    +0.000 A 
BRANCH  21  28
ATOM     27  C   UNL     1      -3.792  10.006  13.775  0.00  0.00    +0.000 C 
ATOM     28  O   UNL     1      -2.843   9.630  14.765  0.00  0.00    +0.000 OA
ENDBRANCH  21  28
ENDBRANCH  20  24
ENDBRANCH   1  20
TORSDOF 3
ENDMDL
