MODEL 1
REMARK VINA RESULT:      -8.9      0.000      0.000
REMARK  Name = 
REMARK  8 active torsions:
REMARK  status: ('A' for Active; 'I' for Inactive)
REMARK    1  A    between atoms: C_1  and  C_2
REMARK    2  A    between atoms: C_5  and  N_6
REMARK    3  A    between atoms: C_8  and  C_9
REMARK    4  A    between atoms: C_9  and  O_11
REMARK    5  A    between atoms: O_11  and  C_12
REMARK    6  A    between atoms: C_12  and  C_13
REMARK    7  A    between atoms: C_18  and  C_19
REMARK    8  A    between atoms: C_25  and  C_26
REMARK                            x       y       z     vdW  Elec       q    Type
REMARK                         _______ _______ _______ _____ _____    ______ ____
ROOT
ATOM      1  N   UNL     1       5.547   4.677  18.370  0.00  0.00    +0.000 N 
ATOM      2  C   UNL     1       6.708   5.261  18.993  0.00  0.00    +0.000 C 
ATOM      3  C   UNL     1       7.533   5.748  17.821  0.00  0.00    +0.000 C 
ATOM      4  C   UNL     1       7.146   4.834  16.662  0.00  0.00    +0.000 C 
ATOM      5  C   UNL     1       5.783   4.308  17.048  0.00  0.00    +0.000 C 
ATOM      6  O   UNL     1       5.062   3.670  16.297  0.00  0.00    +0.000 OA
ENDROOT
BRANCH   1  11
ATOM      7  C   UNL     1       1.241   2.797  21.623  0.00  0.00    +0.000 C 
ATOM      8  C   UNL     1       2.366   3.289  20.763  0.00  0.00    +0.000 A 
ATOM      9  C   UNL     1       3.471   2.483  20.488  0.00  0.00    +0.000 A 
ATOM     10  C   UNL     1       4.503   2.959  19.677  0.00  0.00    +0.000 A 
ATOM     11  C   UNL     1       4.453   4.253  19.142  0.00  0.00    +0.000 A 
ATOM     12  C   UNL     1       3.334   5.068  19.382  0.00  0.00    +0.000 A 
ATOM     13  C   UNL     1       3.151   6.431  18.777  0.00  0.00    +0.000 C 
ATOM     14  C   UNL     1       2.306   4.575  20.206  0.00  0.00    +0.000 A 
ENDBRANCH   1  11
BRANCH   3  15
ATOM     15  C   UNL     1       7.248   7.207  17.550  0.00  0.00    +0.000 C 
ATOM     16  O   UNL     1       6.387   7.595  16.768  0.00  0.00    +0.000 OA
BRANCH  15  17
ATOM     17  O   UNL     1       8.104   8.027  18.207  0.00  0.00    +0.000 OA
BRANCH  17  18
ATOM     18  C   UNL     1       8.287   9.332  17.652  0.00  0.00    +0.000 C 
BRANCH  18  19
ATOM     19  C   UNL     1       9.059  10.302  18.556  0.00  0.00    +0.000 C 
ATOM     20  O   UNL     1       9.365   9.974  19.697  0.00  0.00    +0.000 OA
ATOM     21  N   UNL     1       9.305  11.522  17.953  0.00  0.00    +0.000 N 
ATOM     22  C   UNL     1      10.069  12.526  18.516  0.00  0.00    +0.000 A 
ATOM     23  C   UNL     1      10.222  13.817  17.947  0.00  0.00    +0.000 A 
ATOM     24  C   UNL     1      11.042  14.487  18.822  0.00  0.00    +0.000 A 
ATOM     25  C   UNL     1      11.590  15.850  18.898  0.00  0.00    +0.000 C 
ATOM     26  O   UNL     1      11.387  13.647  19.831  0.00  0.00    +0.000 OA
ATOM     27  N   UNL     1      10.779  12.426  19.642  0.00  0.00    +0.000 NA
ATOM     28  H   UNL     1       8.913  11.702  17.034  0.00  0.00    +0.000 HD
ENDBRANCH  18  19
ENDBRANCH  17  18
ENDBRANCH  15  17
ENDBRANCH   3  15
TORSDOF 5
ENDMDL
MODEL 2
REMARK VINA RESULT:      -8.9      5.303      7.107
REMARK  Name = 
REMARK  8 active torsions:
REMARK  status: ('A' for Active; 'I' for Inactive)
REMARK    1  A    between atoms: C_1  and  C_2
REMARK    2  A    between atoms: C_5  and  N_6
REMARK    3  A    between atoms: C_8  and  C_9
REMARK    4  A    between atoms: C_9  and  O_11
REMARK    5  A    between atoms: O_11  and  C_12
REMARK    6  A    between atoms: C_12  and  C_13
REMARK    7  A    between atoms: C_18  and  C_19
REMARK    8  A    between atoms: C_25  and  C_26
REMARK                            x       y       z     vdW  Elec       q    Type
REMARK                         _______ _______ _______ _____ _____    ______ ____
ROOT
ATOM      1  N   UNL     1       2.134   4.642  19.760  0.00  0.00    +0.000 N 
ATOM      2  C   UNL     1       2.629   3.934  20.913  0.00  0.00    +0.000 C 
ATOM      3  C   UNL     1       2.950   2.556  20.375  0.00  0.00    +0.000 C 
ATOM      4  C   UNL     1       2.010   2.371  19.187  0.00  0.00    +0.000 C 
ATOM      5  C   UNL     1       1.658   3.781  18.774  0.00  0.00    +0.000 C 
ATOM      6  O   UNL     1       1.054   4.059  17.750  0.00  0.00    +0.000 OA
ENDROOT
BRANCH   1  11
ATOM      7  C   UNL     1       1.059  10.235  20.226  0.00  0.00    +0.000 C 
ATOM      8  C   UNL     1       1.336   8.768  20.097  0.00  0.00    +0.000 A 
ATOM      9  C   UNL     1       0.802   7.849  21.003  0.00  0.00    +0.000 A 
ATOM     10  C   UNL     1       1.066   6.486  20.858  0.00  0.00    +0.000 A 
ATOM     11  C   UNL     1       1.880   6.022  19.816  0.00  0.00    +0.000 A 
ATOM     12  C   UNL     1       2.400   6.927  18.877  0.00  0.00    +0.000 A 
ATOM     13  C   UNL     1       3.205   6.513  17.677  0.00  0.00    +0.000 C 
ATOM     14  C   UNL     1       2.129   8.298  19.041  0.00  0.00    +0.000 A 
ENDBRANCH   1  11
BRANCH   3  15
ATOM     15  C   UNL     1       4.410   2.468  19.999  0.00  0.00    +0.000 C 
ATOM     16  O   UNL     1       5.223   1.771  20.600  0.00  0.00    +0.000 OA
BRANCH  15  17
ATOM     17  O   UNL     1       4.730   3.302  18.981  0.00  0.00    +0.000 OA
BRANCH  17  18
ATOM     18  C   UNL     1       5.716   4.300  19.261  0.00  0.00    +0.000 C 
BRANCH  18  19
ATOM     19  C   UNL     1       6.366   4.916  18.016  0.00  0.00    +0.000 C 
ATOM     20  O   UNL     1       7.041   5.935  18.111  0.00  0.00    +0.000 OA
ATOM     21  N   UNL     1       6.070   4.226  16.854  0.00  0.00    +0.000 N 
ATOM     22  C   UNL     1       6.615   4.517  15.618  0.00  0.00    +0.000 A 
ATOM     23  C   UNL     1       6.220   3.885  14.412  0.00  0.00    +0.000 A 
ATOM     24  C   UNL     1       6.998   4.470  13.442  0.00  0.00    +0.000 A 
ATOM     25  C   UNL     1       7.110   4.342  11.981  0.00  0.00    +0.000 C 
ATOM     26  O   UNL     1       7.828   5.370  14.029  0.00  0.00    +0.000 OA
ATOM     27  N   UNL     1       7.588   5.401  15.386  0.00  0.00    +0.000 NA
ATOM     28  H   UNL     1       5.418   3.450  16.899  0.00  0.00    +0.000 HD
ENDBRANCH  18  19
ENDBRANCH  17  18
ENDBRANCH  15  17
ENDBRANCH   3  15
TORSDOF 5
ENDMDL
MODEL 3
REMARK VINA RESULT:      -8.7      2.128      3.827
REMARK  Name = 
REMARK  8 active torsions:
REMARK  status: ('A' for Active; 'I' for Inactive)
REMARK    1  A    between atoms: C_1  and  C_2
REMARK    2  A    between atoms: C_5  and  N_6
REMARK    3  A    between atoms: C_8  and  C_9
REMARK    4  A    between atoms: C_9  and  O_11
REMARK    5  A    between atoms: O_11  and  C_12
REMARK    6  A    between atoms: C_12  and  C_13
REMARK    7  A    between atoms: C_18  and  C_19
REMARK    8  A    between atoms: C_25  and  C_26
REMARK                            x       y       z     vdW  Elec       q    Type
REMARK                         _______ _______ _______ _____ _____    ______ ____
ROOT
ATOM      1  N   UNL     1       3.046   4.980  18.578  0.00  0.00    +0.000 N 
ATOM      2  C   UNL     1       4.365   4.518  18.928  0.00  0.00    +0.000 C 
ATOM      3  C   UNL     1       4.683   3.503  17.852  0.00  0.00    +0.000 C 
ATOM      4  C   UNL     1       3.327   2.973  17.398  0.00  0.00    +0.000 C 
ATOM      5  C   UNL     1       2.358   4.068  17.782  0.00  0.00    +0.000 C 
ATOM      6  O   UNL     1       1.188   4.093  17.435  0.00  0.00    +0.000 OA
ENDROOT
BRANCH   1  11
ATOM      7  C   UNL     1       0.675   9.258  21.534  0.00  0.00    +0.000 C 
ATOM      8  C   UNL     1       1.290   8.137  20.753  0.00  0.00    +0.000 A 
ATOM      9  C   UNL     1       1.210   6.816  21.198  0.00  0.00    +0.000 A 
ATOM     10  C   UNL     1       1.783   5.787  20.450  0.00  0.00    +0.000 A 
ATOM     11  C   UNL     1       2.459   6.062  19.254  0.00  0.00    +0.000 A 
ATOM     12  C   UNL     1       2.524   7.381  18.774  0.00  0.00    +0.000 A 
ATOM     13  C   UNL     1       3.146   7.759  17.459  0.00  0.00    +0.000 C 
ATOM     14  C   UNL     1       1.945   8.407  19.543  0.00  0.00    +0.000 A 
ENDBRANCH   1  11
BRANCH   3  15
ATOM     15  C   UNL     1       5.474   4.150  16.739  0.00  0.00    +0.000 C 
ATOM     16  O   UNL     1       5.164   4.072  15.555  0.00  0.00    +0.000 OA
BRANCH  15  17
ATOM     17  O   UNL     1       6.599   4.753  17.192  0.00  0.00    +0.000 OA
BRANCH  17  18
ATOM     18  C   UNL     1       6.817   6.100  16.763  0.00  0.00    +0.000 C 
BRANCH  18  19
ATOM     19  C   UNL     1       7.516   6.990  17.798  0.00  0.00    +0.000 C 
ATOM     20  O   UNL     1       7.855   6.529  18.882  0.00  0.00    +0.000 OA
ATOM     21  N   UNL     1       7.660   8.299  17.376  0.00  0.00    +0.000 N 
ATOM     22  C   UNL     1       8.346   9.271  18.079  0.00  0.00    +0.000 A 
ATOM     23  C   UNL     1       8.392  10.637  17.701  0.00  0.00    +0.000 A 
ATOM     24  C   UNL     1       9.163  11.239  18.665  0.00  0.00    +0.000 A 
ATOM     25  C   UNL     1       9.601  12.617  18.937  0.00  0.00    +0.000 C 
ATOM     26  O   UNL     1       9.580  10.294  19.546  0.00  0.00    +0.000 OA
ATOM     27  N   UNL     1       9.070   9.068  19.183  0.00  0.00    +0.000 NA
ATOM     28  H   UNL     1       7.248   8.576  16.491  0.00  0.00    +0.000 HD
ENDBRANCH  18  19
ENDBRANCH  17  18
ENDBRANCH  15  17
ENDBRANCH   3  15
TORSDOF 5
ENDMDL
MODEL 4
REMARK VINA RESULT:      -8.4      2.004      3.795
REMARK  Name = 
REMARK  8 active torsions:
REMARK  status: ('A' for Active; 'I' for Inactive)
REMARK    1  A    between atoms: C_1  and  C_2
REMARK    2  A    between atoms: C_5  and  N_6
REMARK    3  A    between atoms: C_8  and  C_9
REMARK    4  A    between atoms: C_9  and  O_11
REMARK    5  A    between atoms: O_11  and  C_12
REMARK    6  A    between atoms: C_12  and  C_13
REMARK    7  A    between atoms: C_18  and  C_19
REMARK    8  A    between atoms: C_25  and  C_26
REMARK                            x       y       z     vdW  Elec       q    Type
REMARK                         _______ _______ _______ _____ _____    ______ ____
ROOT
ATOM      1  N   UNL     1       3.616   5.487  18.212  0.00  0.00    +0.000 N 
ATOM      2  C   UNL     1       4.959   5.256  18.681  0.00  0.00    +0.000 C 
ATOM      3  C   UNL     1       5.405   4.040  17.898  0.00  0.00    +0.000 C 
ATOM      4  C   UNL     1       4.119   3.286  17.578  0.00  0.00    +0.000 C 
ATOM      5  C   UNL     1       3.042   4.344  17.664  0.00  0.00    +0.000 C 
ATOM      6  O   UNL     1       1.887   4.168  17.309  0.00  0.00    +0.000 OA
ENDROOT
BRANCH   1  11
ATOM      7  C   UNL     1       0.742  10.254  19.509  0.00  0.00    +0.000 C 
ATOM      8  C   UNL     1       1.502   9.005  19.175  0.00  0.00    +0.000 A 
ATOM      9  C   UNL     1       2.296   8.926  18.030  0.00  0.00    +0.000 A 
ATOM     10  C   UNL     1       3.001   7.757  17.743  0.00  0.00    +0.000 A 
ATOM     11  C   UNL     1       2.912   6.642  18.588  0.00  0.00    +0.000 A 
ATOM     12  C   UNL     1       2.143   6.713  19.762  0.00  0.00    +0.000 A 
ATOM     13  C   UNL     1       2.061   5.603  20.772  0.00  0.00    +0.000 C 
ATOM     14  C   UNL     1       1.434   7.897  20.033  0.00  0.00    +0.000 A 
ENDBRANCH   1  11
BRANCH   3  15
ATOM     15  C   UNL     1       6.172   4.463  16.667  0.00  0.00    +0.000 C 
ATOM     16  O   UNL     1       5.860   4.130  15.528  0.00  0.00    +0.000 OA
BRANCH  15  17
ATOM     17  O   UNL     1       7.280   5.179  16.972  0.00  0.00    +0.000 OA
BRANCH  17  18
ATOM     18  C   UNL     1       7.228   6.582  16.697  0.00  0.00    +0.000 C 
BRANCH  18  19
ATOM     19  C   UNL     1       7.859   7.465  17.781  0.00  0.00    +0.000 C 
ATOM     20  O   UNL     1       8.212   6.977  18.848  0.00  0.00    +0.000 OA
ATOM     21  N   UNL     1       7.928   8.798  17.419  0.00  0.00    +0.000 N 
ATOM     22  C   UNL     1       8.545   9.776  18.175  0.00  0.00    +0.000 A 
ATOM     23  C   UNL     1       8.512  11.158  17.858  0.00  0.00    +0.000 A 
ATOM     24  C   UNL     1       9.232  11.762  18.860  0.00  0.00    +0.000 A 
ATOM     25  C   UNL     1       9.583  13.150  19.198  0.00  0.00    +0.000 C 
ATOM     26  O   UNL     1       9.696  10.806  19.704  0.00  0.00    +0.000 OA
ATOM     27  N   UNL     1       9.266   9.568  19.279  0.00  0.00    +0.000 NA
ATOM     28  H   UNL     1       7.511   9.089  16.541  0.00  0.00    +0.000 HD
ENDBRANCH  18  19
ENDBRANCH  17  18
ENDBRANCH  15  17
ENDBRANCH   3  15
TORSDOF 5
ENDMDL
MODEL 5
REMARK VINA RESULT:      -8.4      5.036      7.131
REMARK  Name = 
REMARK  8 active torsions:
REMARK  status: ('A' for Active; 'I' for Inactive)
REMARK    1  A    between atoms: C_1  and  C_2
REMARK    2  A    between atoms: C_5  and  N_6
REMARK    3  A    between atoms: C_8  and  C_9
REMARK    4  A    between atoms: C_9  and  O_11
REMARK    5  A    between atoms: O_11  and  C_12
REMARK    6  A    between atoms: C_12  and  C_13
REMARK    7  A    between atoms: C_18  and  C_19
REMARK    8  A    between atoms: C_25  and  C_26
REMARK                            x       y       z     vdW  Elec       q    Type
REMARK                         _______ _______ _______ _____ _____    ______ ____
ROOT
ATOM      1  N   UNL     1       2.493   4.840  19.285  0.00  0.00    +0.000 N 
ATOM      2  C   UNL     1       2.870   4.378  20.596  0.00  0.00    +0.000 C 
ATOM      3  C   UNL     1       3.006   2.881  20.420  0.00  0.00    +0.000 C 
ATOM      4  C   UNL     1       2.067   2.534  19.269  0.00  0.00    +0.000 C 
ATOM      5  C   UNL     1       1.918   3.834  18.512  0.00  0.00    +0.000 C 
ATOM      6  O   UNL     1       1.372   3.929  17.424  0.00  0.00    +0.000 OA
ENDROOT
BRANCH   1  11
ATOM      7  C   UNL     1       2.279  10.376  17.879  0.00  0.00    +0.000 C 
ATOM      8  C   UNL     1       2.340   8.925  18.254  0.00  0.00    +0.000 A 
ATOM      9  C   UNL     1       3.065   8.011  17.489  0.00  0.00    +0.000 A 
ATOM     10  C   UNL     1       3.115   6.667  17.862  0.00  0.00    +0.000 A 
ATOM     11  C   UNL     1       2.429   6.213  18.996  0.00  0.00    +0.000 A 
ATOM     12  C   UNL     1       1.720   7.124  19.796  0.00  0.00    +0.000 A 
ATOM     13  C   UNL     1       1.032   6.747  21.078  0.00  0.00    +0.000 C 
ATOM     14  C   UNL     1       1.675   8.474  19.403  0.00  0.00    +0.000 A 
ENDBRANCH   1  11
BRANCH   3  15
ATOM     15  C   UNL     1       4.446   2.514  20.146  0.00  0.00    +0.000 C 
ATOM     16  O   UNL     1       5.105   1.774  20.869  0.00  0.00    +0.000 OA
BRANCH  15  17
ATOM     17  O   UNL     1       4.942   3.158  19.062  0.00  0.00    +0.000 OA
BRANCH  17  18
ATOM     18  C   UNL     1       5.808   4.266  19.321  0.00  0.00    +0.000 C 
BRANCH  18  19
ATOM     19  C   UNL     1       6.394   4.919  18.063  0.00  0.00    +0.000 C 
ATOM     20  O   UNL     1       6.995   5.985  18.142  0.00  0.00    +0.000 OA
ATOM     21  N   UNL     1       6.131   4.203  16.909  0.00  0.00    +0.000 N 
ATOM     22  C   UNL     1       6.636   4.524  15.664  0.00  0.00    +0.000 A 
ATOM     23  C   UNL     1       6.271   3.858  14.466  0.00  0.00    +0.000 A 
ATOM     24  C   UNL     1       6.990   4.492  13.482  0.00  0.00    +0.000 A 
ATOM     25  C   UNL     1       7.090   4.363  12.020  0.00  0.00    +0.000 C 
ATOM     26  O   UNL     1       7.761   5.452  14.052  0.00  0.00    +0.000 OA
ATOM     27  N   UNL     1       7.539   5.475  15.412  0.00  0.00    +0.000 NA
ATOM     28  H   UNL     1       5.538   3.382  16.967  0.00  0.00    +0.000 HD
ENDBRANCH  18  19
ENDBRANCH  17  18
ENDBRANCH  15  17
ENDBRANCH   3  15
TORSDOF 5
ENDMDL
MODEL 6
REMARK VINA RESULT:      -8.4      1.731      2.447
REMARK  Name = 
REMARK  8 active torsions:
REMARK  status: ('A' for Active; 'I' for Inactive)
REMARK    1  A    between atoms: C_1  and  C_2
REMARK    2  A    between atoms: C_5  and  N_6
REMARK    3  A    between atoms: C_8  and  C_9
REMARK    4  A    between atoms: C_9  and  O_11
REMARK    5  A    between atoms: O_11  and  C_12
REMARK    6  A    between atoms: C_12  and  C_13
REMARK    7  A    between atoms: C_18  and  C_19
REMARK    8  A    between atoms: C_25  and  C_26
REMARK                            x       y       z     vdW  Elec       q    Type
REMARK                         _______ _______ _______ _____ _____    ______ ____
ROOT
ATOM      1  N   UNL     1       4.234   4.996  17.696  0.00  0.00    +0.000 N 
ATOM      2  C   UNL     1       4.958   4.246  16.701  0.00  0.00    +0.000 C 
ATOM      3  C   UNL     1       5.797   5.296  16.004  0.00  0.00    +0.000 C 
ATOM      4  C   UNL     1       5.014   6.595  16.168  0.00  0.00    +0.000 C 
ATOM      5  C   UNL     1       4.141   6.348  17.377  0.00  0.00    +0.000 C 
ATOM      6  O   UNL     1       3.484   7.216  17.930  0.00  0.00    +0.000 OA
ENDROOT
BRANCH   1  11
ATOM      7  C   UNL     1       1.248   2.392  21.815  0.00  0.00    +0.000 C 
ATOM      8  C   UNL     1       2.031   3.068  20.730  0.00  0.00    +0.000 A 
ATOM      9  C   UNL     1       3.414   3.225  20.826  0.00  0.00    +0.000 A 
ATOM     10  C   UNL     1       4.123   3.851  19.799  0.00  0.00    +0.000 A 
ATOM     11  C   UNL     1       3.459   4.342  18.667  0.00  0.00    +0.000 A 
ATOM     12  C   UNL     1       2.072   4.165  18.538  0.00  0.00    +0.000 A 
ATOM     13  C   UNL     1       1.290   4.575  17.322  0.00  0.00    +0.000 C 
ATOM     14  C   UNL     1       1.372   3.538  19.584  0.00  0.00    +0.000 A 
ENDBRANCH   1  11
BRANCH   3  15
ATOM     15  C   UNL     1       7.178   5.351  16.613  0.00  0.00    +0.000 C 
ATOM     16  O   UNL     1       7.747   4.375  17.093  0.00  0.00    +0.000 OA
BRANCH  15  17
ATOM     17  O   UNL     1       7.678   6.610  16.640  0.00  0.00    +0.000 OA
BRANCH  17  18
ATOM     18  C   UNL     1       7.800   7.220  17.927  0.00  0.00    +0.000 C 
BRANCH  18  19
ATOM     19  C   UNL     1       8.028   8.737  17.892  0.00  0.00    +0.000 C 
ATOM     20  O   UNL     1       7.447   9.430  17.065  0.00  0.00    +0.000 OA
ATOM     21  N   UNL     1       8.946   9.167  18.833  0.00  0.00    +0.000 N 
ATOM     22  C   UNL     1       9.247  10.494  19.072  0.00  0.00    +0.000 A 
ATOM     23  C   UNL     1      10.271  10.926  19.954  0.00  0.00    +0.000 A 
ATOM     24  C   UNL     1      10.232  12.297  19.887  0.00  0.00    +0.000 A 
ATOM     25  C   UNL     1      11.008  13.391  20.492  0.00  0.00    +0.000 C 
ATOM     26  O   UNL     1       9.232  12.667  19.047  0.00  0.00    +0.000 OA
ATOM     27  N   UNL     1       8.618  11.544  18.538  0.00  0.00    +0.000 NA
ATOM     28  H   UNL     1       9.430   8.476  19.397  0.00  0.00    +0.000 HD
ENDBRANCH  18  19
ENDBRANCH  17  18
ENDBRANCH  15  17
ENDBRANCH   3  15
TORSDOF 5
ENDMDL
MODEL 7
REMARK VINA RESULT:      -8.3      2.160      3.536
REMARK  Name = 
REMARK  8 active torsions:
REMARK  status: ('A' for Active; 'I' for Inactive)
REMARK    1  A    between atoms: C_1  and  C_2
REMARK    2  A    between atoms: C_5  and  N_6
REMARK    3  A    between atoms: C_8  and  C_9
REMARK    4  A    between atoms: C_9  and  O_11
REMARK    5  A    between atoms: O_11  and  C_12
REMARK    6  A    between atoms: C_12  and  C_13
REMARK    7  A    between atoms: C_18  and  C_19
REMARK    8  A    between atoms: C_25  and  C_26
REMARK                            x       y       z     vdW  Elec       q    Type
REMARK                         _______ _______ _______ _____ _____    ______ ____
ROOT
ATOM      1  N   UNL     1       3.319   5.416  18.903  0.00  0.00    +0.000 N 
ATOM      2  C   UNL     1       4.571   5.055  19.518  0.00  0.00    +0.000 C 
ATOM      3  C   UNL     1       5.188   4.091  18.528  0.00  0.00    +0.000 C 
ATOM      4  C   UNL     1       4.004   3.462  17.802  0.00  0.00    +0.000 C 
ATOM      5  C   UNL     1       2.889   4.467  17.980  0.00  0.00    +0.000 C 
ATOM      6  O   UNL     1       1.817   4.404  17.397  0.00  0.00    +0.000 OA
ENDROOT
BRANCH   1  11
ATOM      7  C   UNL     1       0.080   9.452  21.327  0.00  0.00    +0.000 C 
ATOM      8  C   UNL     1       0.923   8.392  20.685  0.00  0.00    +0.000 A 
ATOM      9  C   UNL     1       1.027   7.116  21.240  0.00  0.00    +0.000 A 
ATOM     10  C   UNL     1       1.812   6.142  20.621  0.00  0.00    +0.000 A 
ATOM     11  C   UNL     1       2.518   6.434  19.445  0.00  0.00    +0.000 A 
ATOM     12  C   UNL     1       2.401   7.703  18.855  0.00  0.00    +0.000 A 
ATOM     13  C   UNL     1       3.045   8.077  17.549  0.00  0.00    +0.000 C 
ATOM     14  C   UNL     1       1.610   8.674  19.495  0.00  0.00    +0.000 A 
ENDBRANCH   1  11
BRANCH   3  15
ATOM     15  C   UNL     1       6.135   4.822  17.605  0.00  0.00    +0.000 C 
ATOM     16  O   UNL     1       6.733   4.280  16.681  0.00  0.00    +0.000 OA
BRANCH  15  17
ATOM     17  O   UNL     1       6.304   6.117  17.964  0.00  0.00    +0.000 OA
BRANCH  17  18
ATOM     18  C   UNL     1       7.613   6.491  18.401  0.00  0.00    +0.000 C 
BRANCH  18  19
ATOM     19  C   UNL     1       8.023   7.921  18.026  0.00  0.00    +0.000 C 
ATOM     20  O   UNL     1       7.773   8.363  16.910  0.00  0.00    +0.000 OA
ATOM     21  N   UNL     1       8.699   8.573  19.041  0.00  0.00    +0.000 N 
ATOM     22  C   UNL     1       9.082   9.900  18.991  0.00  0.00    +0.000 A 
ATOM     23  C   UNL     1       9.876  10.532  19.981  0.00  0.00    +0.000 A 
ATOM     24  C   UNL     1      10.022  11.823  19.539  0.00  0.00    +0.000 A 
ATOM     25  C   UNL     1      10.733  13.016  20.025  0.00  0.00    +0.000 C 
ATOM     26  O   UNL     1       9.336  11.969  18.377  0.00  0.00    +0.000 OA
ATOM     27  N   UNL     1       8.751  10.770  18.033  0.00  0.00    +0.000 NA
ATOM     28  H   UNL     1       8.927   8.060  19.886  0.00  0.00    +0.000 HD
ENDBRANCH  18  19
ENDBRANCH  17  18
ENDBRANCH  15  17
ENDBRANCH   3  15
TORSDOF 5
ENDMDL
MODEL 8
REMARK VINA RESULT:      -8.3      1.413      1.468
REMARK  Name = 
REMARK  8 active torsions:
REMARK  status: ('A' for Active; 'I' for Inactive)
REMARK    1  A    between atoms: C_1  and  C_2
REMARK    2  A    between atoms: C_5  and  N_6
REMARK    3  A    between atoms: C_8  and  C_9
REMARK    4  A    between atoms: C_9  and  O_11
REMARK    5  A    between atoms: O_11  and  C_12
REMARK    6  A    between atoms: C_12  and  C_13
REMARK    7  A    between atoms: C_18  and  C_19
REMARK    8  A    between atoms: C_25  and  C_26
REMARK                            x       y       z     vdW  Elec       q    Type
REMARK                         _______ _______ _______ _____ _____    ______ ____
ROOT
ATOM      1  N   UNL     1       5.490   4.785  18.169  0.00  0.00    +0.000 N 
ATOM      2  C   UNL     1       6.589   5.461  18.811  0.00  0.00    +0.000 C 
ATOM      3  C   UNL     1       7.444   5.928  17.653  0.00  0.00    +0.000 C 
ATOM      4  C   UNL     1       7.160   4.937  16.529  0.00  0.00    +0.000 C 
ATOM      5  C   UNL     1       5.807   4.361  16.881  0.00  0.00    +0.000 C 
ATOM      6  O   UNL     1       5.157   3.648  16.134  0.00  0.00    +0.000 OA
ENDROOT
BRANCH   1  11
ATOM      7  C   UNL     1       1.134   2.865  21.331  0.00  0.00    +0.000 C 
ATOM      8  C   UNL     1       2.272   3.366  20.494  0.00  0.00    +0.000 A 
ATOM      9  C   UNL     1       3.458   2.639  20.376  0.00  0.00    +0.000 A 
ATOM     10  C   UNL     1       4.501   3.121  19.585  0.00  0.00    +0.000 A 
ATOM     11  C   UNL     1       4.383   4.345  18.912  0.00  0.00    +0.000 A 
ATOM     12  C   UNL     1       3.186   5.076  18.993  0.00  0.00    +0.000 A 
ATOM     13  C   UNL     1       2.933   6.349  18.235  0.00  0.00    +0.000 C 
ATOM     14  C   UNL     1       2.146   4.578  19.800  0.00  0.00    +0.000 A 
ENDBRANCH   1  11
BRANCH   3  15
ATOM     15  C   UNL     1       7.100   7.354  17.291  0.00  0.00    +0.000 C 
ATOM     16  O   UNL     1       5.973   7.719  16.972  0.00  0.00    +0.000 OA
BRANCH  15  17
ATOM     17  O   UNL     1       8.190   8.159  17.283  0.00  0.00    +0.000 OA
BRANCH  17  18
ATOM     18  C   UNL     1       8.596   8.694  18.545  0.00  0.00    +0.000 C 
BRANCH  18  19
ATOM     19  C   UNL     1       8.733  10.221  18.572  0.00  0.00    +0.000 C 
ATOM     20  O   UNL     1       8.441  10.886  17.585  0.00  0.00    +0.000 OA
ATOM     21  N   UNL     1       9.234  10.698  19.771  0.00  0.00    +0.000 N 
ATOM     22  C   UNL     1       9.354  12.038  20.083  0.00  0.00    +0.000 A 
ATOM     23  C   UNL     1       9.975  12.522  21.263  0.00  0.00    +0.000 A 
ATOM     24  C   UNL     1       9.883  13.889  21.169  0.00  0.00    +0.000 A 
ATOM     25  C   UNL     1      10.331  15.022  21.994  0.00  0.00    +0.000 C 
ATOM     26  O   UNL     1       9.222  14.207  20.027  0.00  0.00    +0.000 OA
ATOM     27  N   UNL     1       8.894  13.053  19.348  0.00  0.00    +0.000 NA
ATOM     28  H   UNL     1       9.528  10.032  20.477  0.00  0.00    +0.000 HD
ENDBRANCH  18  19
ENDBRANCH  17  18
ENDBRANCH  15  17
ENDBRANCH   3  15
TORSDOF 5
ENDMDL
MODEL 9
REMARK VINA RESULT:      -8.2      2.893      5.118
REMARK  Name = 
REMARK  8 active torsions:
REMARK  status: ('A' for Active; 'I' for Inactive)
REMARK    1  A    between atoms: C_1  and  C_2
REMARK    2  A    between atoms: C_5  and  N_6
REMARK    3  A    between atoms: C_8  and  C_9
REMARK    4  A    between atoms: C_9  and  O_11
REMARK    5  A    between atoms: O_11  and  C_12
REMARK    6  A    between atoms: C_12  and  C_13
REMARK    7  A    between atoms: C_18  and  C_19
REMARK    8  A    between atoms: C_25  and  C_26
REMARK                            x       y       z     vdW  Elec       q    Type
REMARK                         _______ _______ _______ _____ _____    ______ ____
ROOT
ATOM      1  N   UNL     1       2.644   5.208  19.105  0.00  0.00    +0.000 N 
ATOM      2  C   UNL     1       3.595   4.499  19.923  0.00  0.00    +0.000 C 
ATOM      3  C   UNL     1       4.030   3.346  19.043  0.00  0.00    +0.000 C 
ATOM      4  C   UNL     1       2.846   3.091  18.116  0.00  0.00    +0.000 C 
ATOM      5  C   UNL     1       2.096   4.404  18.110  0.00  0.00    +0.000 C 
ATOM      6  O   UNL     1       1.174   4.656  17.351  0.00  0.00    +0.000 OA
ENDROOT
BRANCH   1  11
ATOM      7  C   UNL     1       0.542  10.177  20.990  0.00  0.00    +0.000 C 
ATOM      8  C   UNL     1       1.087   8.873  20.489  0.00  0.00    +0.000 A 
ATOM      9  C   UNL     1       0.856   7.681  21.177  0.00  0.00    +0.000 A 
ATOM     10  C   UNL     1       1.367   6.478  20.688  0.00  0.00    +0.000 A 
ATOM     11  C   UNL     1       2.129   6.450  19.512  0.00  0.00    +0.000 A 
ATOM     12  C   UNL     1       2.347   7.634  18.790  0.00  0.00    +0.000 A 
ATOM     13  C   UNL     1       3.072   7.687  17.475  0.00  0.00    +0.000 C 
ATOM     14  C   UNL     1       1.829   8.839  19.300  0.00  0.00    +0.000 A 
ENDBRANCH   1  11
BRANCH   3  15
ATOM     15  C   UNL     1       5.300   3.700  18.306  0.00  0.00    +0.000 C 
ATOM     16  O   UNL     1       6.340   4.029  18.868  0.00  0.00    +0.000 OA
BRANCH  15  17
ATOM     17  O   UNL     1       5.134   3.690  16.962  0.00  0.00    +0.000 OA
BRANCH  17  18
ATOM     18  C   UNL     1       6.233   4.165  16.180  0.00  0.00    +0.000 C 
BRANCH  18  19
ATOM     19  C   UNL     1       6.442   5.683  16.236  0.00  0.00    +0.000 C 
ATOM     20  O   UNL     1       5.889   6.414  15.423  0.00  0.00    +0.000 OA
ATOM     21  N   UNL     1       7.312   6.072  17.240  0.00  0.00    +0.000 N 
ATOM     22  C   UNL     1       7.585   7.387  17.564  0.00  0.00    +0.000 A 
ATOM     23  C   UNL     1       8.563   7.781  18.512  0.00  0.00    +0.000 A 
ATOM     24  C   UNL     1       8.509   9.153  18.518  0.00  0.00    +0.000 A 
ATOM     25  C   UNL     1       9.243  10.220  19.215  0.00  0.00    +0.000 C 
ATOM     26  O   UNL     1       7.542   9.558  17.655  0.00  0.00    +0.000 OA
ATOM     27  N   UNL     1       6.967   8.457  17.059  0.00  0.00    +0.000 NA
ATOM     28  H   UNL     1       7.779   5.356  17.787  0.00  0.00    +0.000 HD
ENDBRANCH  18  19
ENDBRANCH  17  18
ENDBRANCH  15  17
ENDBRANCH   3  15
TORSDOF 5
ENDMDL
