MODEL 1
REMARK VINA RESULT:      -7.7      0.000      0.000
REMARK  Name = 
REMARK  4 active torsions:
REMARK  status: ('A' for Active; 'I' for Inactive)
REMARK    1  A    between atoms: C_2  and  C_18
REMARK    2  A    between atoms: N_3  and  C_4
REMARK    3  A    between atoms: C_7  and  C_8
REMARK    4  A    between atoms: C_22  and  N_23
REMARK                            x       y       z     vdW  Elec       q    Type
REMARK                         _______ _______ _______ _____ _____    ______ ____
ROOT
ATOM      1  C   UNL     1       1.078   9.270  19.363  0.00  0.00    +0.000 A 
ATOM      2  C   UNL     1       1.417   8.240  20.242  0.00  0.00    +0.000 A 
ATOM      3  C   UNL     1       2.255   7.200  19.829  0.00  0.00    +0.000 A 
ATOM      4  C   UNL     1       2.755   7.165  18.523  0.00  0.00    +0.000 A 
ATOM      5  C   UNL     1       2.353   8.156  17.624  0.00  0.00    +0.000 A 
ATOM      6  C   UNL     1       1.554   9.221  18.049  0.00  0.00    +0.000 A 
ENDROOT
BRANCH   4   7
ATOM      7  C   UNL     1       3.585   5.997  18.125  0.00  0.00    +0.000 C 
ATOM      8  O   UNL     1       4.802   6.178  18.061  0.00  0.00    +0.000 OA
ATOM      9  N   UNL     1       3.016   4.756  17.866  0.00  0.00    +0.000 N 
ATOM     10  C   UNL     1       1.600   4.407  17.699  0.00  0.00    +0.000 C 
ATOM     11  C   UNL     1       1.236   3.292  18.689  0.00  0.00    +0.000 C 
ATOM     12  O   UNL     1       2.086   2.145  18.505  0.00  0.00    +0.000 OA
ATOM     13  C   UNL     1       3.473   2.493  18.675  0.00  0.00    +0.000 C 
ATOM     14  C   UNL     1       3.895   3.598  17.700  0.00  0.00    +0.000 C 
ENDBRANCH   4   7
BRANCH   1  17
ATOM     15  O   UNL     1       1.504  11.393  21.368  0.00  0.00    +0.000 OA
ATOM     16  C   UNL     1       0.485  11.282  20.697  0.00  0.00    +0.000 C 
ATOM     17  N   UNL     1       0.242  10.351  19.710  0.00  0.00    +0.000 N 
ATOM     18  H   UNL     1      -0.571  10.490  19.123  0.00  0.00    +0.000 HD
BRANCH  16  19
ATOM     19  C   UNL     1      -0.594  12.275  20.926  0.00  0.00    +0.000 A 
ATOM     20  C   UNL     1      -0.602  13.527  20.296  0.00  0.00    +0.000 A 
ATOM     21  C   UNL     1      -1.671  14.404  20.507  0.00  0.00    +0.000 A 
ATOM     22  C   UNL     1      -2.730  14.033  21.337  0.00  0.00    +0.000 A 
ATOM     23  C   UNL     1      -2.722  12.777  21.956  0.00  0.00    +0.000 A 
ATOM     24  C   UNL     1      -1.658  11.891  21.751  0.00  0.00    +0.000 A 
BRANCH  23  25
ATOM     25  N   UNL     1      -3.839  12.373  22.819  0.00  0.00    +0.000 N 
ATOM     26  O   UNL     1      -4.984  12.492  22.363  0.00  0.00    +0.000 OA
ATOM     27  O   UNL     1      -3.571  11.951  23.951  0.00  0.00    +0.000 OA
ENDBRANCH  23  25
ENDBRANCH  16  19
ENDBRANCH   1  17
TORSDOF 4
ENDMDL
MODEL 2
REMARK VINA RESULT:      -7.7      0.851      1.400
REMARK  Name = 
REMARK  4 active torsions:
REMARK  status: ('A' for Active; 'I' for Inactive)
REMARK    1  A    between atoms: C_2  and  C_18
REMARK    2  A    between atoms: N_3  and  C_4
REMARK    3  A    between atoms: C_7  and  C_8
REMARK    4  A    between atoms: C_22  and  N_23
REMARK                            x       y       z     vdW  Elec       q    Type
REMARK                         _______ _______ _______ _____ _____    ______ ____
ROOT
ATOM      1  C   UNL     1       1.132   9.329  19.807  0.00  0.00    +0.000 A 
ATOM      2  C   UNL     1       1.509   9.390  18.465  0.00  0.00    +0.000 A 
ATOM      3  C   UNL     1       2.205   8.332  17.872  0.00  0.00    +0.000 A 
ATOM      4  C   UNL     1       2.550   7.200  18.619  0.00  0.00    +0.000 A 
ATOM      5  C   UNL     1       2.237   7.175  19.981  0.00  0.00    +0.000 A 
ATOM      6  C   UNL     1       1.501   8.210  20.561  0.00  0.00    +0.000 A 
ENDROOT
BRANCH   4   7
ATOM      7  C   UNL     1       3.349   6.139  17.950  0.00  0.00    +0.000 C 
ATOM      8  O   UNL     1       4.515   6.418  17.667  0.00  0.00    +0.000 OA
ATOM      9  N   UNL     1       2.810   4.887  17.682  0.00  0.00    +0.000 N 
ATOM     10  C   UNL     1       1.412   4.446  17.761  0.00  0.00    +0.000 C 
ATOM     11  C   UNL     1       1.321   3.223  18.684  0.00  0.00    +0.000 C 
ATOM     12  O   UNL     1       2.180   2.165  18.222  0.00  0.00    +0.000 OA
ATOM     13  C   UNL     1       3.551   2.602  18.152  0.00  0.00    +0.000 C 
ATOM     14  C   UNL     1       3.703   3.818  17.230  0.00  0.00    +0.000 C 
ENDBRANCH   4   7
BRANCH   1  17
ATOM     15  O   UNL     1       1.853  12.170  20.145  0.00  0.00    +0.000 OA
ATOM     16  C   UNL     1       0.851  11.657  20.631  0.00  0.00    +0.000 C 
ATOM     17  N   UNL     1       0.428  10.354  20.469  0.00  0.00    +0.000 N 
ATOM     18  H   UNL     1      -0.506  10.122  20.784  0.00  0.00    +0.000 HD
BRANCH  16  19
ATOM     19  C   UNL     1      -0.035  12.526  21.444  0.00  0.00    +0.000 A 
ATOM     20  C   UNL     1       0.321  13.836  21.794  0.00  0.00    +0.000 A 
ATOM     21  C   UNL     1      -0.575  14.629  22.518  0.00  0.00    +0.000 A 
ATOM     22  C   UNL     1      -1.823  14.122  22.886  0.00  0.00    +0.000 A 
ATOM     23  C   UNL     1      -2.177  12.817  22.526  0.00  0.00    +0.000 A 
ATOM     24  C   UNL     1      -1.289  12.014  21.801  0.00  0.00    +0.000 A 
BRANCH  23  25
ATOM     25  N   UNL     1      -3.492  12.280  22.897  0.00  0.00    +0.000 N 
ATOM     26  O   UNL     1      -3.607  11.781  24.024  0.00  0.00    +0.000 OA
ATOM     27  O   UNL     1      -4.401  12.347  22.059  0.00  0.00    +0.000 OA
ENDBRANCH  23  25
ENDBRANCH  16  19
ENDBRANCH   1  17
TORSDOF 4
ENDMDL
MODEL 3
REMARK VINA RESULT:      -7.7      7.242      9.324
REMARK  Name = 
REMARK  4 active torsions:
REMARK  status: ('A' for Active; 'I' for Inactive)
REMARK    1  A    between atoms: C_2  and  C_18
REMARK    2  A    between atoms: N_3  and  C_4
REMARK    3  A    between atoms: C_7  and  C_8
REMARK    4  A    between atoms: C_22  and  N_23
REMARK                            x       y       z     vdW  Elec       q    Type
REMARK                         _______ _______ _______ _____ _____    ______ ____
ROOT
ATOM      1  C   UNL     1       8.099   7.758  18.406  0.00  0.00    +0.000 A 
ATOM      2  C   UNL     1       8.183   6.508  19.020  0.00  0.00    +0.000 A 
ATOM      3  C   UNL     1       7.410   5.437  18.562  0.00  0.00    +0.000 A 
ATOM      4  C   UNL     1       6.525   5.605  17.491  0.00  0.00    +0.000 A 
ATOM      5  C   UNL     1       6.388   6.876  16.927  0.00  0.00    +0.000 A 
ATOM      6  C   UNL     1       7.196   7.934  17.353  0.00  0.00    +0.000 A 
ENDROOT
BRANCH   4   7
ATOM      7  C   UNL     1       5.681   4.446  17.095  0.00  0.00    +0.000 C 
ATOM      8  O   UNL     1       6.124   3.715  16.208  0.00  0.00    +0.000 OA
ATOM      9  N   UNL     1       4.466   4.188  17.717  0.00  0.00    +0.000 N 
ATOM     10  C   UNL     1       3.698   5.040  18.633  0.00  0.00    +0.000 C 
ATOM     11  C   UNL     1       3.429   4.269  19.933  0.00  0.00    +0.000 C 
ATOM     12  O   UNL     1       2.742   3.034  19.664  0.00  0.00    +0.000 OA
ATOM     13  C   UNL     1       3.503   2.199  18.769  0.00  0.00    +0.000 C 
ATOM     14  C   UNL     1       3.791   2.918  17.446  0.00  0.00    +0.000 C 
ENDBRANCH   4   7
BRANCH   1  17
ATOM     15  O   UNL     1       7.879  10.566  17.526  0.00  0.00    +0.000 OA
ATOM     16  C   UNL     1       8.723  10.163  18.318  0.00  0.00    +0.000 C 
ATOM     17  N   UNL     1       8.849   8.881  18.810  0.00  0.00    +0.000 N 
ATOM     18  H   UNL     1       9.482   8.737  19.588  0.00  0.00    +0.000 HD
BRANCH  16  19
ATOM     19  C   UNL     1       9.691  11.155  18.848  0.00  0.00    +0.000 A 
ATOM     20  C   UNL     1      10.311  11.000  20.095  0.00  0.00    +0.000 A 
ATOM     21  C   UNL     1      11.255  11.939  20.523  0.00  0.00    +0.000 A 
ATOM     22  C   UNL     1      11.586  13.024  19.709  0.00  0.00    +0.000 A 
ATOM     23  C   UNL     1      10.971  13.169  18.459  0.00  0.00    +0.000 A 
ATOM     24  C   UNL     1      10.025  12.235  18.021  0.00  0.00    +0.000 A 
BRANCH  23  25
ATOM     25  N   UNL     1      11.323  14.298  17.590  0.00  0.00    +0.000 N 
ATOM     26  O   UNL     1      10.579  15.287  17.612  0.00  0.00    +0.000 OA
ATOM     27  O   UNL     1      12.332  14.189  16.881  0.00  0.00    +0.000 OA
ENDBRANCH  23  25
ENDBRANCH  16  19
ENDBRANCH   1  17
TORSDOF 4
ENDMDL
MODEL 4
REMARK VINA RESULT:      -7.6      1.047      1.467
REMARK  Name = 
REMARK  4 active torsions:
REMARK  status: ('A' for Active; 'I' for Inactive)
REMARK    1  A    between atoms: C_2  and  C_18
REMARK    2  A    between atoms: N_3  and  C_4
REMARK    3  A    between atoms: C_7  and  C_8
REMARK    4  A    between atoms: C_22  and  N_23
REMARK                            x       y       z     vdW  Elec       q    Type
REMARK                         _______ _______ _______ _____ _____    ______ ____
ROOT
ATOM      1  C   UNL     1       1.352   9.265  19.459  0.00  0.00    +0.000 A 
ATOM      2  C   UNL     1       1.864   9.228  18.162  0.00  0.00    +0.000 A 
ATOM      3  C   UNL     1       2.542   8.097  17.695  0.00  0.00    +0.000 A 
ATOM      4  C   UNL     1       2.733   6.989  18.528  0.00  0.00    +0.000 A 
ATOM      5  C   UNL     1       2.287   7.058  19.850  0.00  0.00    +0.000 A 
ATOM      6  C   UNL     1       1.568   8.169  20.301  0.00  0.00    +0.000 A 
ENDROOT
BRANCH   4   7
ATOM      7  C   UNL     1       3.521   5.845  17.996  0.00  0.00    +0.000 C 
ATOM      8  O   UNL     1       4.727   6.032  17.829  0.00  0.00    +0.000 OA
ATOM      9  N   UNL     1       2.926   4.618  17.728  0.00  0.00    +0.000 N 
ATOM     10  C   UNL     1       1.500   4.274  17.675  0.00  0.00    +0.000 C 
ATOM     11  C   UNL     1       1.226   3.110  18.637  0.00  0.00    +0.000 C 
ATOM     12  O   UNL     1       2.052   1.976  18.317  0.00  0.00    +0.000 OA
ATOM     13  C   UNL     1       3.451   2.317  18.375  0.00  0.00    +0.000 C 
ATOM     14  C   UNL     1       3.783   3.471  17.423  0.00  0.00    +0.000 C 
ENDBRANCH   4   7
BRANCH   1  17
ATOM     15  O   UNL     1      -1.402  10.177  18.921  0.00  0.00    +0.000 OA
ATOM     16  C   UNL     1      -0.619  10.764  19.659  0.00  0.00    +0.000 C 
ATOM     17  N   UNL     1       0.657  10.367  19.995  0.00  0.00    +0.000 N 
ATOM     18  H   UNL     1       1.118  10.859  20.751  0.00  0.00    +0.000 HD
BRANCH  16  19
ATOM     19  C   UNL     1      -1.097  12.013  20.304  0.00  0.00    +0.000 A 
ATOM     20  C   UNL     1      -1.011  13.260  19.671  0.00  0.00    +0.000 A 
ATOM     21  C   UNL     1      -1.524  14.397  20.303  0.00  0.00    +0.000 A 
ATOM     22  C   UNL     1      -2.125  14.292  21.558  0.00  0.00    +0.000 A 
ATOM     23  C   UNL     1      -2.217  13.042  22.183  0.00  0.00    +0.000 A 
ATOM     24  C   UNL     1      -1.708  11.897  21.559  0.00  0.00    +0.000 A 
BRANCH  23  25
ATOM     25  N   UNL     1      -2.861  12.919  23.496  0.00  0.00    +0.000 N 
ATOM     26  O   UNL     1      -3.410  11.842  23.763  0.00  0.00    +0.000 OA
ATOM     27  O   UNL     1      -2.827  13.900  24.250  0.00  0.00    +0.000 OA
ENDBRANCH  23  25
ENDBRANCH  16  19
ENDBRANCH   1  17
TORSDOF 4
ENDMDL
MODEL 5
REMARK VINA RESULT:      -7.6      1.309      1.459
REMARK  Name = 
REMARK  4 active torsions:
REMARK  status: ('A' for Active; 'I' for Inactive)
REMARK    1  A    between atoms: C_2  and  C_18
REMARK    2  A    between atoms: N_3  and  C_4
REMARK    3  A    between atoms: C_7  and  C_8
REMARK    4  A    between atoms: C_22  and  N_23
REMARK                            x       y       z     vdW  Elec       q    Type
REMARK                         _______ _______ _______ _____ _____    ______ ____
ROOT
ATOM      1  C   UNL     1       0.947   9.200  19.553  0.00  0.00    +0.000 A 
ATOM      2  C   UNL     1       1.367   8.158  20.381  0.00  0.00    +0.000 A 
ATOM      3  C   UNL     1       2.243   7.178  19.904  0.00  0.00    +0.000 A 
ATOM      4  C   UNL     1       2.698   7.215  18.581  0.00  0.00    +0.000 A 
ATOM      5  C   UNL     1       2.217   8.215  17.733  0.00  0.00    +0.000 A 
ATOM      6  C   UNL     1       1.380   9.221  18.223  0.00  0.00    +0.000 A 
ENDROOT
BRANCH   4   7
ATOM      7  C   UNL     1       3.573   6.106  18.114  0.00  0.00    +0.000 C 
ATOM      8  O   UNL     1       4.778   6.349  18.029  0.00  0.00    +0.000 OA
ATOM      9  N   UNL     1       3.056   4.851  17.815  0.00  0.00    +0.000 N 
ATOM     10  C   UNL     1       1.655   4.441  17.666  0.00  0.00    +0.000 C 
ATOM     11  C   UNL     1       1.370   3.269  18.616  0.00  0.00    +0.000 C 
ATOM     12  O   UNL     1       2.268   2.173  18.362  0.00  0.00    +0.000 OA
ATOM     13  C   UNL     1       3.642   2.581  18.515  0.00  0.00    +0.000 C 
ATOM     14  C   UNL     1       3.985   3.745  17.579  0.00  0.00    +0.000 C 
ENDBRANCH   4   7
BRANCH   1  17
ATOM     15  O   UNL     1       1.399  11.377  21.492  0.00  0.00    +0.000 OA
ATOM     16  C   UNL     1       0.334  11.183  20.918  0.00  0.00    +0.000 C 
ATOM     17  N   UNL     1       0.070  10.222  19.966  0.00  0.00    +0.000 N 
ATOM     18  H   UNL     1      -0.802  10.294  19.455  0.00  0.00    +0.000 HD
BRANCH  16  19
ATOM     19  C   UNL     1      -0.790  12.100  21.238  0.00  0.00    +0.000 A 
ATOM     20  C   UNL     1      -1.916  12.216  20.411  0.00  0.00    +0.000 A 
ATOM     21  C   UNL     1      -2.969  13.056  20.787  0.00  0.00    +0.000 A 
ATOM     22  C   UNL     1      -2.903  13.773  21.983  0.00  0.00    +0.000 A 
ATOM     23  C   UNL     1      -1.780  13.646  22.809  0.00  0.00    +0.000 A 
ATOM     24  C   UNL     1      -0.721  12.808  22.444  0.00  0.00    +0.000 A 
BRANCH  23  25
ATOM     25  N   UNL     1      -1.709  14.385  24.076  0.00  0.00    +0.000 N 
ATOM     26  O   UNL     1      -2.734  14.428  24.769  0.00  0.00    +0.000 OA
ATOM     27  O   UNL     1      -0.636  14.929  24.368  0.00  0.00    +0.000 OA
ENDBRANCH  23  25
ENDBRANCH  16  19
ENDBRANCH   1  17
TORSDOF 4
ENDMDL
MODEL 6
REMARK VINA RESULT:      -7.6      7.243      9.392
REMARK  Name = 
REMARK  4 active torsions:
REMARK  status: ('A' for Active; 'I' for Inactive)
REMARK    1  A    between atoms: C_2  and  C_18
REMARK    2  A    between atoms: N_3  and  C_4
REMARK    3  A    between atoms: C_7  and  C_8
REMARK    4  A    between atoms: C_22  and  N_23
REMARK                            x       y       z     vdW  Elec       q    Type
REMARK                         _______ _______ _______ _____ _____    ______ ____
ROOT
ATOM      1  C   UNL     1       8.044   7.945  18.263  0.00  0.00    +0.000 A 
ATOM      2  C   UNL     1       7.107   8.002  17.231  0.00  0.00    +0.000 A 
ATOM      3  C   UNL     1       6.334   6.882  16.908  0.00  0.00    +0.000 A 
ATOM      4  C   UNL     1       6.500   5.679  17.603  0.00  0.00    +0.000 A 
ATOM      5  C   UNL     1       7.491   5.603  18.585  0.00  0.00    +0.000 A 
ATOM      6  C   UNL     1       8.230   6.735  18.940  0.00  0.00    +0.000 A 
ENDROOT
BRANCH   4   7
ATOM      7  C   UNL     1       5.697   4.505  17.167  0.00  0.00    +0.000 C 
ATOM      8  O   UNL     1       6.179   3.804  16.277  0.00  0.00    +0.000 OA
ATOM      9  N   UNL     1       4.476   4.203  17.758  0.00  0.00    +0.000 N 
ATOM     10  C   UNL     1       3.665   5.016  18.672  0.00  0.00    +0.000 C 
ATOM     11  C   UNL     1       3.390   4.213  19.951  0.00  0.00    +0.000 C 
ATOM     12  O   UNL     1       2.743   2.965  19.644  0.00  0.00    +0.000 OA
ATOM     13  C   UNL     1       3.546   2.169  18.751  0.00  0.00    +0.000 C 
ATOM     14  C   UNL     1       3.842   2.920  17.448  0.00  0.00    +0.000 C 
ENDBRANCH   4   7
BRANCH   1  17
ATOM     15  O   UNL     1       7.842  10.785  17.490  0.00  0.00    +0.000 OA
ATOM     16  C   UNL     1       8.730  10.333  18.204  0.00  0.00    +0.000 C 
ATOM     17  N   UNL     1       8.854   9.032  18.646  0.00  0.00    +0.000 N 
ATOM     18  H   UNL     1       9.538   8.846  19.369  0.00  0.00    +0.000 HD
BRANCH  16  19
ATOM     19  C   UNL     1       9.764  11.280  18.691  0.00  0.00    +0.000 A 
ATOM     20  C   UNL     1      10.554  11.009  19.816  0.00  0.00    +0.000 A 
ATOM     21  C   UNL     1      11.549  11.913  20.200  0.00  0.00    +0.000 A 
ATOM     22  C   UNL     1      11.762  13.079  19.462  0.00  0.00    +0.000 A 
ATOM     23  C   UNL     1      10.976  13.341  18.333  0.00  0.00    +0.000 A 
ATOM     24  C   UNL     1       9.978  12.442  17.939  0.00  0.00    +0.000 A 
BRANCH  23  25
ATOM     25  N   UNL     1      11.202  14.557  17.543  0.00  0.00    +0.000 N 
ATOM     26  O   UNL     1      12.331  14.725  17.065  0.00  0.00    +0.000 OA
ATOM     27  O   UNL     1      10.256  15.345  17.413  0.00  0.00    +0.000 OA
ENDBRANCH  23  25
ENDBRANCH  16  19
ENDBRANCH   1  17
TORSDOF 4
ENDMDL
MODEL 7
REMARK VINA RESULT:      -7.6      1.741      2.228
REMARK  Name = 
REMARK  4 active torsions:
REMARK  status: ('A' for Active; 'I' for Inactive)
REMARK    1  A    between atoms: C_2  and  C_18
REMARK    2  A    between atoms: N_3  and  C_4
REMARK    3  A    between atoms: C_7  and  C_8
REMARK    4  A    between atoms: C_22  and  N_23
REMARK                            x       y       z     vdW  Elec       q    Type
REMARK                         _______ _______ _______ _____ _____    ______ ____
ROOT
ATOM      1  C   UNL     1       1.219   9.270  19.451  0.00  0.00    +0.000 A 
ATOM      2  C   UNL     1       1.773   9.260  18.171  0.00  0.00    +0.000 A 
ATOM      3  C   UNL     1       2.524   8.166  17.728  0.00  0.00    +0.000 A 
ATOM      4  C   UNL     1       2.747   7.071  18.569  0.00  0.00    +0.000 A 
ATOM      5  C   UNL     1       2.255   7.116  19.876  0.00  0.00    +0.000 A 
ATOM      6  C   UNL     1       1.465   8.187  20.302  0.00  0.00    +0.000 A 
ENDROOT
BRANCH   4   7
ATOM      7  C   UNL     1       3.610   5.969  18.064  0.00  0.00    +0.000 C 
ATOM      8  O   UNL     1       4.814   6.208  17.969  0.00  0.00    +0.000 OA
ATOM      9  N   UNL     1       3.083   4.725  17.742  0.00  0.00    +0.000 N 
ATOM     10  C   UNL     1       1.677   4.325  17.601  0.00  0.00    +0.000 C 
ATOM     11  C   UNL     1       1.398   3.132  18.526  0.00  0.00    +0.000 C 
ATOM     12  O   UNL     1       2.287   2.038  18.235  0.00  0.00    +0.000 OA
ATOM     13  C   UNL     1       3.664   2.435  18.380  0.00  0.00    +0.000 C 
ATOM     14  C   UNL     1       4.002   3.619  17.467  0.00  0.00    +0.000 C 
ENDBRANCH   4   7
BRANCH   1  17
ATOM     15  O   UNL     1      -1.532  10.086  18.764  0.00  0.00    +0.000 OA
ATOM     16  C   UNL     1      -0.819  10.688  19.558  0.00  0.00    +0.000 C 
ATOM     17  N   UNL     1       0.450  10.334  19.963  0.00  0.00    +0.000 N 
ATOM     18  H   UNL     1       0.846  10.830  20.753  0.00  0.00    +0.000 HD
BRANCH  16  19
ATOM     19  C   UNL     1      -1.383  11.905  20.194  0.00  0.00    +0.000 A 
ATOM     20  C   UNL     1      -2.660  12.389  19.878  0.00  0.00    +0.000 A 
ATOM     21  C   UNL     1      -3.163  13.510  20.546  0.00  0.00    +0.000 A 
ATOM     22  C   UNL     1      -2.399  14.143  21.529  0.00  0.00    +0.000 A 
ATOM     23  C   UNL     1      -1.128  13.651  21.847  0.00  0.00    +0.000 A 
ATOM     24  C   UNL     1      -0.615  12.529  21.185  0.00  0.00    +0.000 A 
BRANCH  23  25
ATOM     25  N   UNL     1      -0.324  14.302  22.888  0.00  0.00    +0.000 N 
ATOM     26  O   UNL     1      -0.742  14.241  24.052  0.00  0.00    +0.000 OA
ATOM     27  O   UNL     1       0.714  14.880  22.540  0.00  0.00    +0.000 OA
ENDBRANCH  23  25
ENDBRANCH  16  19
ENDBRANCH   1  17
TORSDOF 4
ENDMDL
MODEL 8
REMARK VINA RESULT:      -7.6      2.281      9.756
REMARK  Name = 
REMARK  4 active torsions:
REMARK  status: ('A' for Active; 'I' for Inactive)
REMARK    1  A    between atoms: C_2  and  C_18
REMARK    2  A    between atoms: N_3  and  C_4
REMARK    3  A    between atoms: C_7  and  C_8
REMARK    4  A    between atoms: C_22  and  N_23
REMARK                            x       y       z     vdW  Elec       q    Type
REMARK                         _______ _______ _______ _____ _____    ______ ____
ROOT
ATOM      1  C   UNL     1       1.819   9.324  18.058  0.00  0.00    +0.000 A 
ATOM      2  C   UNL     1       2.452  10.565  18.139  0.00  0.00    +0.000 A 
ATOM      3  C   UNL     1       1.733  11.708  18.501  0.00  0.00    +0.000 A 
ATOM      4  C   UNL     1       0.362  11.630  18.771  0.00  0.00    +0.000 A 
ATOM      5  C   UNL     1      -0.284  10.402  18.616  0.00  0.00    +0.000 A 
ATOM      6  C   UNL     1       0.443   9.250  18.301  0.00  0.00    +0.000 A 
ENDROOT
BRANCH   4   7
ATOM      7  C   UNL     1      -0.359  12.893  19.085  0.00  0.00    +0.000 C 
ATOM      8  O   UNL     1      -0.616  13.635  18.136  0.00  0.00    +0.000 OA
ATOM      9  N   UNL     1      -0.746  13.204  20.383  0.00  0.00    +0.000 N 
ATOM     10  C   UNL     1      -0.361  12.555  21.642  0.00  0.00    +0.000 C 
ATOM     11  C   UNL     1      -1.627  12.125  22.395  0.00  0.00    +0.000 C 
ATOM     12  O   UNL     1      -2.494  13.250  22.627  0.00  0.00    +0.000 OA
ATOM     13  C   UNL     1      -2.873  13.879  21.387  0.00  0.00    +0.000 C 
ATOM     14  C   UNL     1      -1.643  14.340  20.597  0.00  0.00    +0.000 C 
ENDBRANCH   4   7
BRANCH   1  17
ATOM     15  O   UNL     1       2.480   6.986  19.732  0.00  0.00    +0.000 OA
ATOM     16  C   UNL     1       2.799   7.094  18.554  0.00  0.00    +0.000 C 
ATOM     17  N   UNL     1       2.478   8.130  17.702  0.00  0.00    +0.000 N 
ATOM     18  H   UNL     1       2.661   8.000  16.715  0.00  0.00    +0.000 HD
BRANCH  16  19
ATOM     19  C   UNL     1       3.573   5.981  17.952  0.00  0.00    +0.000 A 
ATOM     20  C   UNL     1       2.979   4.759  17.608  0.00  0.00    +0.000 A 
ATOM     21  C   UNL     1       3.745   3.762  16.994  0.00  0.00    +0.000 A 
ATOM     22  C   UNL     1       5.095   3.984  16.719  0.00  0.00    +0.000 A 
ATOM     23  C   UNL     1       5.682   5.210  17.056  0.00  0.00    +0.000 A 
ATOM     24  C   UNL     1       4.925   6.215  17.669  0.00  0.00    +0.000 A 
BRANCH  23  25
ATOM     25  N   UNL     1       7.098   5.457  16.757  0.00  0.00    +0.000 N 
ATOM     26  O   UNL     1       7.878   4.503  16.866  0.00  0.00    +0.000 OA
ATOM     27  O   UNL     1       7.427   6.604  16.428  0.00  0.00    +0.000 OA
ENDBRANCH  23  25
ENDBRANCH  16  19
ENDBRANCH   1  17
TORSDOF 4
ENDMDL
MODEL 9
REMARK VINA RESULT:      -7.6      1.034      1.500
REMARK  Name = 
REMARK  4 active torsions:
REMARK  status: ('A' for Active; 'I' for Inactive)
REMARK    1  A    between atoms: C_2  and  C_18
REMARK    2  A    between atoms: N_3  and  C_4
REMARK    3  A    between atoms: C_7  and  C_8
REMARK    4  A    between atoms: C_22  and  N_23
REMARK                            x       y       z     vdW  Elec       q    Type
REMARK                         _______ _______ _______ _____ _____    ______ ____
ROOT
ATOM      1  C   UNL     1       0.725   9.522  19.728  0.00  0.00    +0.000 A 
ATOM      2  C   UNL     1       1.090   9.599  18.383  0.00  0.00    +0.000 A 
ATOM      3  C   UNL     1       1.917   8.626  17.812  0.00  0.00    +0.000 A 
ATOM      4  C   UNL     1       2.407   7.568  18.586  0.00  0.00    +0.000 A 
ATOM      5  C   UNL     1       2.103   7.536  19.949  0.00  0.00    +0.000 A 
ATOM      6  C   UNL     1       1.238   8.481  20.508  0.00  0.00    +0.000 A 
ENDROOT
BRANCH   4   7
ATOM      7  C   UNL     1       3.336   6.604  17.938  0.00  0.00    +0.000 C 
ATOM      8  O   UNL     1       4.450   7.030  17.628  0.00  0.00    +0.000 OA
ATOM      9  N   UNL     1       2.972   5.281  17.721  0.00  0.00    +0.000 N 
ATOM     10  C   UNL     1       1.649   4.655  17.837  0.00  0.00    +0.000 C 
ATOM     11  C   UNL     1       1.738   3.465  18.801  0.00  0.00    +0.000 C 
ATOM     12  O   UNL     1       2.729   2.519  18.360  0.00  0.00    +0.000 OA
ATOM     13  C   UNL     1       4.026   3.137  18.253  0.00  0.00    +0.000 C 
ATOM     14  C   UNL     1       3.998   4.330  17.290  0.00  0.00    +0.000 C 
ENDBRANCH   4   7
BRANCH   1  17
ATOM     15  O   UNL     1       1.460  12.017  21.122  0.00  0.00    +0.000 OA
ATOM     16  C   UNL     1       0.314  11.589  21.046  0.00  0.00    +0.000 C 
ATOM     17  N   UNL     1      -0.105  10.464  20.368  0.00  0.00    +0.000 N 
ATOM     18  H   UNL     1      -1.102  10.332  20.248  0.00  0.00    +0.000 HD
BRANCH  16  19
ATOM     19  C   UNL     1      -0.754  12.377  21.710  0.00  0.00    +0.000 A 
ATOM     20  C   UNL     1      -0.468  13.407  22.616  0.00  0.00    +0.000 A 
ATOM     21  C   UNL     1      -1.513  14.153  23.172  0.00  0.00    +0.000 A 
ATOM     22  C   UNL     1      -2.836  13.877  22.823  0.00  0.00    +0.000 A 
ATOM     23  C   UNL     1      -3.116  12.853  21.911  0.00  0.00    +0.000 A 
ATOM     24  C   UNL     1      -2.078  12.101  21.347  0.00  0.00    +0.000 A 
BRANCH  23  25
ATOM     25  N   UNL     1      -4.503  12.565  21.527  0.00  0.00    +0.000 N 
ATOM     26  O   UNL     1      -4.756  12.491  20.318  0.00  0.00    +0.000 OA
ATOM     27  O   UNL     1      -5.336  12.427  22.432  0.00  0.00    +0.000 OA
ENDBRANCH  23  25
ENDBRANCH  16  19
ENDBRANCH   1  17
TORSDOF 4
ENDMDL
