MODEL 1
REMARK VINA RESULT:      -7.7      0.000      0.000
REMARK  Name = 
REMARK  6 active torsions:
REMARK  status: ('A' for Active; 'I' for Inactive)
REMARK    1  A    between atoms: C_1  and  C_2
REMARK    2  A    between atoms: N_4  and  C_5
REMARK    3  A    between atoms: C_8  and  N_9
REMARK    4  A    between atoms: N_12  and  C_13
REMARK    5  A    between atoms: C_17  and  C_18
REMARK    6  A    between atoms: C_19  and  C_20
REMARK                            x       y       z     vdW  Elec       q    Type
REMARK                         _______ _______ _______ _____ _____    ______ ____
ROOT
ATOM      1  N   UNL     1       8.706   8.311  18.888  0.00  0.00    +0.000 N 
ATOM      2  C   UNL     1       7.876   7.670  17.984  0.00  0.00    +0.000 C 
ATOM      3  O   UNL     1       7.293   8.219  17.053  0.00  0.00    +0.000 OA
ATOM      4  N   UNL     1       7.742   6.315  18.250  0.00  0.00    +0.000 N 
ATOM      5  H   UNL     1       9.307   7.727  19.444  0.00  0.00    +0.000 HD
ATOM      6  H   UNL     1       7.752   6.088  19.232  0.00  0.00    +0.000 HD
ENDROOT
BRANCH   4   7
ATOM      7  C   UNL     1       6.908   5.519  17.415  0.00  0.00    +0.000 A 
ATOM      8  C   UNL     1       7.334   5.213  16.113  0.00  0.00    +0.000 A 
ATOM      9  C   UNL     1       6.515   4.502  15.243  0.00  0.00    +0.000 A 
ATOM     10  C   UNL     1       5.263   4.080  15.671  0.00  0.00    +0.000 A 
ATOM     11  C   UNL     1       4.816   4.353  16.977  0.00  0.00    +0.000 A 
ATOM     12  C   UNL     1       3.431   3.906  17.356  0.00  0.00    +0.000 C 
ATOM     13  C   UNL     1       5.646   5.077  17.869  0.00  0.00    +0.000 A 
ATOM     14  C   UNL     1       5.175   5.436  19.255  0.00  0.00    +0.000 C 
ENDBRANCH   4   7
BRANCH   1  18
ATOM     15  C   UNL     1       9.436  12.497  19.035  0.00  0.00    +0.000 A 
ATOM     16  C   UNL     1       8.972  11.900  17.869  0.00  0.00    +0.000 A 
ATOM     17  C   UNL     1       8.717  10.533  17.823  0.00  0.00    +0.000 A 
ATOM     18  C   UNL     1       8.936   9.707  18.926  0.00  0.00    +0.000 A 
ATOM     19  C   UNL     1       9.400  10.301  20.104  0.00  0.00    +0.000 A 
ATOM     20  C   UNL     1       9.660  11.686  20.155  0.00  0.00    +0.000 A 
BRANCH  15  24
ATOM     21  C   UNL     1      10.923  15.963  19.067  0.00  0.00    +0.000 C 
ATOM     22  C   UNL     1      10.891  14.496  18.729  0.00  0.00    +0.000 C 
ATOM     23  O   UNL     1      11.852  13.973  18.179  0.00  0.00    +0.000 OA
ATOM     24  N   UNL     1       9.704  13.882  19.112  0.00  0.00    +0.000 N 
ATOM     25  H   UNL     1       8.944  14.477  19.410  0.00  0.00    +0.000 HD
ENDBRANCH  15  24
ENDBRANCH   1  18
TORSDOF 3
ENDMDL
MODEL 2
REMARK VINA RESULT:      -7.7      2.233      8.916
REMARK  Name = 
REMARK  6 active torsions:
REMARK  status: ('A' for Active; 'I' for Inactive)
REMARK    1  A    between atoms: C_1  and  C_2
REMARK    2  A    between atoms: N_4  and  C_5
REMARK    3  A    between atoms: C_8  and  N_9
REMARK    4  A    between atoms: N_12  and  C_13
REMARK    5  A    between atoms: C_17  and  C_18
REMARK    6  A    between atoms: C_19  and  C_20
REMARK                            x       y       z     vdW  Elec       q    Type
REMARK                         _______ _______ _______ _____ _____    ______ ____
ROOT
ATOM      1  N   UNL     1       8.046   8.838  17.398  0.00  0.00    +0.000 N 
ATOM      2  C   UNL     1       8.721   9.666  18.278  0.00  0.00    +0.000 C 
ATOM      3  O   UNL     1       8.970   9.393  19.450  0.00  0.00    +0.000 OA
ATOM      4  N   UNL     1       9.079  10.877  17.705  0.00  0.00    +0.000 N 
ATOM      5  H   UNL     1       8.116   9.062  16.420  0.00  0.00    +0.000 HD
ATOM      6  H   UNL     1       8.410  11.226  17.036  0.00  0.00    +0.000 HD
ENDROOT
BRANCH   4   7
ATOM      7  C   UNL     1       9.769  11.843  18.489  0.00  0.00    +0.000 A 
ATOM      8  C   UNL     1      10.933  11.465  19.176  0.00  0.00    +0.000 A 
ATOM      9  C   UNL     1      11.593  12.359  20.011  0.00  0.00    +0.000 A 
ATOM     10  C   UNL     1      11.099  13.649  20.159  0.00  0.00    +0.000 A 
ATOM     11  C   UNL     1       9.947  14.065  19.468  0.00  0.00    +0.000 A 
ATOM     12  C   UNL     1       9.443  15.461  19.714  0.00  0.00    +0.000 C 
ATOM     13  C   UNL     1       9.270  13.158  18.614  0.00  0.00    +0.000 A 
ATOM     14  C   UNL     1       8.001  13.554  17.905  0.00  0.00    +0.000 C 
ENDBRANCH   4   7
BRANCH   1  18
ATOM     15  C   UNL     1       6.288   5.093  18.379  0.00  0.00    +0.000 A 
ATOM     16  C   UNL     1       7.481   5.491  18.970  0.00  0.00    +0.000 A 
ATOM     17  C   UNL     1       8.050   6.723  18.663  0.00  0.00    +0.000 A 
ATOM     18  C   UNL     1       7.467   7.592  17.741  0.00  0.00    +0.000 A 
ATOM     19  C   UNL     1       6.264   7.200  17.145  0.00  0.00    +0.000 A 
ATOM     20  C   UNL     1       5.685   5.952  17.453  0.00  0.00    +0.000 A 
BRANCH  15  24
ATOM     21  C   UNL     1       4.203   2.219  19.651  0.00  0.00    +0.000 C 
ATOM     22  C   UNL     1       4.506   3.668  19.381  0.00  0.00    +0.000 C 
ATOM     23  O   UNL     1       3.743   4.539  19.783  0.00  0.00    +0.000 OA
ATOM     24  N   UNL     1       5.687   3.848  18.671  0.00  0.00    +0.000 N 
ATOM     25  H   UNL     1       6.123   3.028  18.273  0.00  0.00    +0.000 HD
ENDBRANCH  15  24
ENDBRANCH   1  18
TORSDOF 3
ENDMDL
MODEL 3
REMARK VINA RESULT:      -7.7      0.120      1.027
REMARK  Name = 
REMARK  6 active torsions:
REMARK  status: ('A' for Active; 'I' for Inactive)
REMARK    1  A    between atoms: C_1  and  C_2
REMARK    2  A    between atoms: N_4  and  C_5
REMARK    3  A    between atoms: C_8  and  N_9
REMARK    4  A    between atoms: N_12  and  C_13
REMARK    5  A    between atoms: C_17  and  C_18
REMARK    6  A    between atoms: C_19  and  C_20
REMARK                            x       y       z     vdW  Elec       q    Type
REMARK                         _______ _______ _______ _____ _____    ______ ____
ROOT
ATOM      1  N   UNL     1       8.715   8.298  18.893  0.00  0.00    +0.000 N 
ATOM      2  C   UNL     1       7.870   7.678  17.990  0.00  0.00    +0.000 C 
ATOM      3  O   UNL     1       7.263   8.249  17.087  0.00  0.00    +0.000 OA
ATOM      4  N   UNL     1       7.751   6.315  18.218  0.00  0.00    +0.000 N 
ATOM      5  H   UNL     1       9.332   7.703  19.420  0.00  0.00    +0.000 HD
ATOM      6  H   UNL     1       7.784   6.060  19.193  0.00  0.00    +0.000 HD
ENDROOT
BRANCH   4   7
ATOM      7  C   UNL     1       6.905   5.538  17.379  0.00  0.00    +0.000 A 
ATOM      8  C   UNL     1       7.307   5.267  16.062  0.00  0.00    +0.000 A 
ATOM      9  C   UNL     1       6.475   4.576  15.188  0.00  0.00    +0.000 A 
ATOM     10  C   UNL     1       5.233   4.137  15.629  0.00  0.00    +0.000 A 
ATOM     11  C   UNL     1       4.809   4.375  16.949  0.00  0.00    +0.000 A 
ATOM     12  C   UNL     1       3.432   3.913  17.341  0.00  0.00    +0.000 C 
ATOM     13  C   UNL     1       5.653   5.078  17.844  0.00  0.00    +0.000 A 
ATOM     14  C   UNL     1       5.206   5.400  19.248  0.00  0.00    +0.000 C 
ENDBRANCH   4   7
BRANCH   1  18
ATOM     15  C   UNL     1       9.347  12.499  19.080  0.00  0.00    +0.000 A 
ATOM     16  C   UNL     1       9.512  11.707  20.211  0.00  0.00    +0.000 A 
ATOM     17  C   UNL     1       9.322  10.331  20.148  0.00  0.00    +0.000 A 
ATOM     18  C   UNL     1       8.937   9.695  18.967  0.00  0.00    +0.000 A 
ATOM     19  C   UNL     1       8.773  10.484  17.825  0.00  0.00    +0.000 A 
ATOM     20  C   UNL     1       8.964  11.880  17.884  0.00  0.00    +0.000 A 
BRANCH  15  24
ATOM     21  C   UNL     1      10.638  16.042  19.088  0.00  0.00    +0.000 C 
ATOM     22  C   UNL     1      10.719  14.563  18.824  0.00  0.00    +0.000 C 
ATOM     23  O   UNL     1      11.760  14.072  18.402  0.00  0.00    +0.000 OA
ATOM     24  N   UNL     1       9.533  13.899  19.113  0.00  0.00    +0.000 N 
ATOM     25  H   UNL     1       8.715  14.462  19.301  0.00  0.00    +0.000 HD
ENDBRANCH  15  24
ENDBRANCH   1  18
TORSDOF 3
ENDMDL
MODEL 4
REMARK VINA RESULT:      -7.6      2.240      8.854
REMARK  Name = 
REMARK  6 active torsions:
REMARK  status: ('A' for Active; 'I' for Inactive)
REMARK    1  A    between atoms: C_1  and  C_2
REMARK    2  A    between atoms: N_4  and  C_5
REMARK    3  A    between atoms: C_8  and  N_9
REMARK    4  A    between atoms: N_12  and  C_13
REMARK    5  A    between atoms: C_17  and  C_18
REMARK    6  A    between atoms: C_19  and  C_20
REMARK                            x       y       z     vdW  Elec       q    Type
REMARK                         _______ _______ _______ _____ _____    ______ ____
ROOT
ATOM      1  N   UNL     1       8.024   8.871  17.376  0.00  0.00    +0.000 N 
ATOM      2  C   UNL     1       8.707   9.681  18.266  0.00  0.00    +0.000 C 
ATOM      3  O   UNL     1       8.965   9.385  19.431  0.00  0.00    +0.000 OA
ATOM      4  N   UNL     1       9.064  10.901  17.713  0.00  0.00    +0.000 N 
ATOM      5  H   UNL     1       8.087   9.113  16.401  0.00  0.00    +0.000 HD
ATOM      6  H   UNL     1       8.391  11.264  17.056  0.00  0.00    +0.000 HD
ENDROOT
BRANCH   4   7
ATOM      7  C   UNL     1       9.762  11.851  18.509  0.00  0.00    +0.000 A 
ATOM      8  C   UNL     1      10.928  11.456  19.183  0.00  0.00    +0.000 A 
ATOM      9  C   UNL     1      11.596  12.334  20.030  0.00  0.00    +0.000 A 
ATOM     10  C   UNL     1      11.109  13.623  20.203  0.00  0.00    +0.000 A 
ATOM     11  C   UNL     1       9.954  14.055  19.525  0.00  0.00    +0.000 A 
ATOM     12  C   UNL     1       9.458  15.449  19.797  0.00  0.00    +0.000 C 
ATOM     13  C   UNL     1       9.269  13.166  18.660  0.00  0.00    +0.000 A 
ATOM     14  C   UNL     1       7.998  13.579  17.963  0.00  0.00    +0.000 C 
ENDBRANCH   4   7
BRANCH   1  18
ATOM     15  C   UNL     1       6.302   5.119  18.394  0.00  0.00    +0.000 A 
ATOM     16  C   UNL     1       5.691   5.948  17.461  0.00  0.00    +0.000 A 
ATOM     17  C   UNL     1       6.261   7.169  17.114  0.00  0.00    +0.000 A 
ATOM     18  C   UNL     1       7.444   7.619  17.699  0.00  0.00    +0.000 A 
ATOM     19  C   UNL     1       8.067   6.790  18.636  0.00  0.00    +0.000 A 
ATOM     20  C   UNL     1       7.492   5.551  18.991  0.00  0.00    +0.000 A 
BRANCH  15  24
ATOM     21  C   UNL     1       4.300   2.261  19.826  0.00  0.00    +0.000 C 
ATOM     22  C   UNL     1       4.548   3.697  19.448  0.00  0.00    +0.000 C 
ATOM     23  O   UNL     1       3.733   4.560  19.751  0.00  0.00    +0.000 OA
ATOM     24  N   UNL     1       5.746   3.874  18.766  0.00  0.00    +0.000 N 
ATOM     25  H   UNL     1       6.233   3.046  18.452  0.00  0.00    +0.000 HD
ENDBRANCH  15  24
ENDBRANCH   1  18
TORSDOF 3
ENDMDL
MODEL 5
REMARK VINA RESULT:      -7.5      1.151      1.151
REMARK  Name = 
REMARK  6 active torsions:
REMARK  status: ('A' for Active; 'I' for Inactive)
REMARK    1  A    between atoms: C_1  and  C_2
REMARK    2  A    between atoms: N_4  and  C_5
REMARK    3  A    between atoms: C_8  and  N_9
REMARK    4  A    between atoms: N_12  and  C_13
REMARK    5  A    between atoms: C_17  and  C_18
REMARK    6  A    between atoms: C_19  and  C_20
REMARK                            x       y       z     vdW  Elec       q    Type
REMARK                         _______ _______ _______ _____ _____    ______ ____
ROOT
ATOM      1  N   UNL     1       8.715   8.318  18.882  0.00  0.00    +0.000 N 
ATOM      2  C   UNL     1       7.878   7.686  17.979  0.00  0.00    +0.000 C 
ATOM      3  O   UNL     1       7.282   8.246  17.062  0.00  0.00    +0.000 OA
ATOM      4  N   UNL     1       7.752   6.328  18.227  0.00  0.00    +0.000 N 
ATOM      5  H   UNL     1       9.325   7.730  19.424  0.00  0.00    +0.000 HD
ATOM      6  H   UNL     1       7.775   6.087  19.206  0.00  0.00    +0.000 HD
ENDROOT
BRANCH   4   7
ATOM      7  C   UNL     1       6.913   5.540  17.391  0.00  0.00    +0.000 A 
ATOM      8  C   UNL     1       7.322   5.260  16.077  0.00  0.00    +0.000 A 
ATOM      9  C   UNL     1       6.496   4.558  15.206  0.00  0.00    +0.000 A 
ATOM     10  C   UNL     1       5.255   4.118  15.645  0.00  0.00    +0.000 A 
ATOM     11  C   UNL     1       4.825   4.364  16.962  0.00  0.00    +0.000 A 
ATOM     12  C   UNL     1       3.449   3.898  17.353  0.00  0.00    +0.000 C 
ATOM     13  C   UNL     1       5.662   5.078  17.855  0.00  0.00    +0.000 A 
ATOM     14  C   UNL     1       5.209   5.408  19.254  0.00  0.00    +0.000 C 
ENDBRANCH   4   7
BRANCH   1  18
ATOM     15  C   UNL     1       9.425  12.506  19.084  0.00  0.00    +0.000 A 
ATOM     16  C   UNL     1       9.038  11.910  17.889  0.00  0.00    +0.000 A 
ATOM     17  C   UNL     1       8.789  10.543  17.824  0.00  0.00    +0.000 A 
ATOM     18  C   UNL     1       8.940   9.716  18.938  0.00  0.00    +0.000 A 
ATOM     19  C   UNL     1       9.325  10.308  20.144  0.00  0.00    +0.000 A 
ATOM     20  C   UNL     1       9.579  11.693  20.213  0.00  0.00    +0.000 A 
BRANCH  15  24
ATOM     21  C   UNL     1       9.304  16.271  19.262  0.00  0.00    +0.000 C 
ATOM     22  C   UNL     1       8.725  14.883  19.339  0.00  0.00    +0.000 C 
ATOM     23  O   UNL     1       7.524  14.730  19.521  0.00  0.00    +0.000 OA
ATOM     24  N   UNL     1       9.685  13.891  19.180  0.00  0.00    +0.000 N 
ATOM     25  H   UNL     1      10.656  14.172  19.198  0.00  0.00    +0.000 HD
ENDBRANCH  15  24
ENDBRANCH   1  18
TORSDOF 3
ENDMDL
MODEL 6
REMARK VINA RESULT:      -7.5      1.228      1.596
REMARK  Name = 
REMARK  6 active torsions:
REMARK  status: ('A' for Active; 'I' for Inactive)
REMARK    1  A    between atoms: C_1  and  C_2
REMARK    2  A    between atoms: N_4  and  C_5
REMARK    3  A    between atoms: C_8  and  N_9
REMARK    4  A    between atoms: N_12  and  C_13
REMARK    5  A    between atoms: C_17  and  C_18
REMARK    6  A    between atoms: C_19  and  C_20
REMARK                            x       y       z     vdW  Elec       q    Type
REMARK                         _______ _______ _______ _____ _____    ______ ____
ROOT
ATOM      1  N   UNL     1       8.743   8.299  18.888  0.00  0.00    +0.000 N 
ATOM      2  C   UNL     1       7.881   7.686  17.995  0.00  0.00    +0.000 C 
ATOM      3  O   UNL     1       7.249   8.268  17.116  0.00  0.00    +0.000 OA
ATOM      4  N   UNL     1       7.776   6.320  18.205  0.00  0.00    +0.000 N 
ATOM      5  H   UNL     1       9.377   7.700  19.390  0.00  0.00    +0.000 HD
ATOM      6  H   UNL     1       7.834   6.050  19.175  0.00  0.00    +0.000 HD
ENDROOT
BRANCH   4   7
ATOM      7  C   UNL     1       6.915   5.549  17.375  0.00  0.00    +0.000 A 
ATOM      8  C   UNL     1       7.304   5.272  16.055  0.00  0.00    +0.000 A 
ATOM      9  C   UNL     1       6.458   4.587  15.190  0.00  0.00    +0.000 A 
ATOM     10  C   UNL     1       5.214   4.163  15.641  0.00  0.00    +0.000 A 
ATOM     11  C   UNL     1       4.804   4.408  16.964  0.00  0.00    +0.000 A 
ATOM     12  C   UNL     1       3.426   3.961  17.369  0.00  0.00    +0.000 C 
ATOM     13  C   UNL     1       5.663   5.104  17.851  0.00  0.00    +0.000 A 
ATOM     14  C   UNL     1       5.231   5.433  19.257  0.00  0.00    +0.000 C 
ENDBRANCH   4   7
BRANCH   1  18
ATOM     15  C   UNL     1       9.355  12.500  19.122  0.00  0.00    +0.000 A 
ATOM     16  C   UNL     1       9.474  11.703  20.255  0.00  0.00    +0.000 A 
ATOM     17  C   UNL     1       9.291  10.326  20.178  0.00  0.00    +0.000 A 
ATOM     18  C   UNL     1       8.958   9.696  18.978  0.00  0.00    +0.000 A 
ATOM     19  C   UNL     1       8.840  10.490  17.834  0.00  0.00    +0.000 A 
ATOM     20  C   UNL     1       9.024  11.886  17.908  0.00  0.00    +0.000 A 
BRANCH  15  24
ATOM     21  C   UNL     1       9.019  16.249  19.357  0.00  0.00    +0.000 C 
ATOM     22  C   UNL     1       8.569  14.826  19.548  0.00  0.00    +0.000 C 
ATOM     23  O   UNL     1       7.451  14.591  19.991  0.00  0.00    +0.000 OA
ATOM     24  N   UNL     1       9.535  13.900  19.170  0.00  0.00    +0.000 N 
ATOM     25  H   UNL     1      10.464  14.247  18.975  0.00  0.00    +0.000 HD
ENDBRANCH  15  24
ENDBRANCH   1  18
TORSDOF 3
ENDMDL
MODEL 7
REMARK VINA RESULT:      -7.5      7.457      8.597
REMARK  Name = 
REMARK  6 active torsions:
REMARK  status: ('A' for Active; 'I' for Inactive)
REMARK    1  A    between atoms: C_1  and  C_2
REMARK    2  A    between atoms: N_4  and  C_5
REMARK    3  A    between atoms: C_8  and  N_9
REMARK    4  A    between atoms: N_12  and  C_13
REMARK    5  A    between atoms: C_17  and  C_18
REMARK    6  A    between atoms: C_19  and  C_20
REMARK                            x       y       z     vdW  Elec       q    Type
REMARK                         _______ _______ _______ _____ _____    ______ ____
ROOT
ATOM      1  N   UNL     1       1.401   8.546  21.815  0.00  0.00    +0.000 N 
ATOM      2  C   UNL     1       1.617   7.864  20.631  0.00  0.00    +0.000 C 
ATOM      3  O   UNL     1       1.198   8.215  19.530  0.00  0.00    +0.000 OA
ATOM      4  N   UNL     1       2.353   6.703  20.809  0.00  0.00    +0.000 N 
ATOM      5  H   UNL     1       1.988   8.300  22.594  0.00  0.00    +0.000 HD
ATOM      6  H   UNL     1       2.166   6.231  21.681  0.00  0.00    +0.000 HD
ENDROOT
BRANCH   4   7
ATOM      7  C   UNL     1       2.648   5.882  19.685  0.00  0.00    +0.000 A 
ATOM      8  C   UNL     1       3.484   6.380  18.674  0.00  0.00    +0.000 A 
ATOM      9  C   UNL     1       3.734   5.638  17.524  0.00  0.00    +0.000 A 
ATOM     10  C   UNL     1       3.158   4.383  17.380  0.00  0.00    +0.000 A 
ATOM     11  C   UNL     1       2.331   3.848  18.385  0.00  0.00    +0.000 A 
ATOM     12  C   UNL     1       1.703   2.503  18.139  0.00  0.00    +0.000 C 
ATOM     13  C   UNL     1       2.073   4.599  19.559  0.00  0.00    +0.000 A 
ATOM     14  C   UNL     1       1.147   4.079  20.629  0.00  0.00    +0.000 C 
ENDBRANCH   4   7
BRANCH   1  18
ATOM     15  C   UNL     1      -1.033  12.003  22.266  0.00  0.00    +0.000 A 
ATOM     16  C   UNL     1      -0.027  11.966  21.308  0.00  0.00    +0.000 A 
ATOM     17  C   UNL     1       0.760  10.831  21.148  0.00  0.00    +0.000 A 
ATOM     18  C   UNL     1       0.592   9.701  21.949  0.00  0.00    +0.000 A 
ATOM     19  C   UNL     1      -0.420   9.729  22.913  0.00  0.00    +0.000 A 
ATOM     20  C   UNL     1      -1.220  10.879  23.079  0.00  0.00    +0.000 A 
BRANCH  15  24
ATOM     21  C   UNL     1      -2.749  15.151  23.440  0.00  0.00    +0.000 C 
ATOM     22  C   UNL     1      -1.628  14.148  23.388  0.00  0.00    +0.000 C 
ATOM     23  O   UNL     1      -0.659  14.272  24.128  0.00  0.00    +0.000 OA
ATOM     24  N   UNL     1      -1.848  13.143  22.453  0.00  0.00    +0.000 N 
ATOM     25  H   UNL     1      -2.616  13.264  21.808  0.00  0.00    +0.000 HD
ENDBRANCH  15  24
ENDBRANCH   1  18
TORSDOF 3
ENDMDL
MODEL 8
REMARK VINA RESULT:      -7.5      7.662      8.983
REMARK  Name = 
REMARK  6 active torsions:
REMARK  status: ('A' for Active; 'I' for Inactive)
REMARK    1  A    between atoms: C_1  and  C_2
REMARK    2  A    between atoms: N_4  and  C_5
REMARK    3  A    between atoms: C_8  and  N_9
REMARK    4  A    between atoms: N_12  and  C_13
REMARK    5  A    between atoms: C_17  and  C_18
REMARK    6  A    between atoms: C_19  and  C_20
REMARK                            x       y       z     vdW  Elec       q    Type
REMARK                         _______ _______ _______ _____ _____    ______ ____
ROOT
ATOM      1  N   UNL     1       1.659   8.440  21.154  0.00  0.00    +0.000 N 
ATOM      2  C   UNL     1       1.339   7.124  20.868  0.00  0.00    +0.000 C 
ATOM      3  O   UNL     1       0.200   6.664  20.857  0.00  0.00    +0.000 OA
ATOM      4  N   UNL     1       2.457   6.346  20.611  0.00  0.00    +0.000 N 
ATOM      5  H   UNL     1       2.581   8.749  20.897  0.00  0.00    +0.000 HD
ATOM      6  H   UNL     1       3.267   6.601  21.156  0.00  0.00    +0.000 HD
ENDROOT
BRANCH   4   7
ATOM      7  C   UNL     1       2.293   4.964  20.313  0.00  0.00    +0.000 A 
ATOM      8  C   UNL     1       2.039   4.063  21.358  0.00  0.00    +0.000 A 
ATOM      9  C   UNL     1       1.948   2.697  21.117  0.00  0.00    +0.000 A 
ATOM     10  C   UNL     1       2.099   2.218  19.822  0.00  0.00    +0.000 A 
ATOM     11  C   UNL     1       2.334   3.098  18.750  0.00  0.00    +0.000 A 
ATOM     12  C   UNL     1       2.534   2.505  17.382  0.00  0.00    +0.000 C 
ATOM     13  C   UNL     1       2.427   4.492  18.989  0.00  0.00    +0.000 A 
ATOM     14  C   UNL     1       2.735   5.456  17.872  0.00  0.00    +0.000 C 
ENDBRANCH   4   7
BRANCH   1  18
ATOM     15  C   UNL     1      -1.143  11.414  22.329  0.00  0.00    +0.000 A 
ATOM     16  C   UNL     1      -0.784  10.396  23.204  0.00  0.00    +0.000 A 
ATOM     17  C   UNL     1       0.145   9.431  22.828  0.00  0.00    +0.000 A 
ATOM     18  C   UNL     1       0.731   9.430  21.562  0.00  0.00    +0.000 A 
ATOM     19  C   UNL     1       0.377  10.452  20.677  0.00  0.00    +0.000 A 
ATOM     20  C   UNL     1      -0.565  11.432  21.054  0.00  0.00    +0.000 A 
BRANCH  15  24
ATOM     21  C   UNL     1      -3.048  14.340  23.758  0.00  0.00    +0.000 C 
ATOM     22  C   UNL     1      -1.810  13.551  23.423  0.00  0.00    +0.000 C 
ATOM     23  O   UNL     1      -0.713  13.942  23.805  0.00  0.00    +0.000 OA
ATOM     24  N   UNL     1      -2.084  12.407  22.683  0.00  0.00    +0.000 N 
ATOM     25  H   UNL     1      -3.017  12.304  22.309  0.00  0.00    +0.000 HD
ENDBRANCH  15  24
ENDBRANCH   1  18
TORSDOF 3
ENDMDL
MODEL 9
REMARK VINA RESULT:      -7.4      7.589      8.853
REMARK  Name = 
REMARK  6 active torsions:
REMARK  status: ('A' for Active; 'I' for Inactive)
REMARK    1  A    between atoms: C_1  and  C_2
REMARK    2  A    between atoms: N_4  and  C_5
REMARK    3  A    between atoms: C_8  and  N_9
REMARK    4  A    between atoms: N_12  and  C_13
REMARK    5  A    between atoms: C_17  and  C_18
REMARK    6  A    between atoms: C_19  and  C_20
REMARK                            x       y       z     vdW  Elec       q    Type
REMARK                         _______ _______ _______ _____ _____    ______ ____
ROOT
ATOM      1  N   UNL     1       1.695   8.318  21.321  0.00  0.00    +0.000 N 
ATOM      2  C   UNL     1       1.335   7.040  20.929  0.00  0.00    +0.000 C 
ATOM      3  O   UNL     1       0.181   6.659  20.750  0.00  0.00    +0.000 OA
ATOM      4  N   UNL     1       2.428   6.201  20.774  0.00  0.00    +0.000 N 
ATOM      5  H   UNL     1       2.660   8.575  21.199  0.00  0.00    +0.000 HD
ATOM      6  H   UNL     1       3.174   6.377  21.428  0.00  0.00    +0.000 HD
ENDROOT
BRANCH   4   7
ATOM      7  C   UNL     1       2.219   4.848  20.386  0.00  0.00    +0.000 A 
ATOM      8  C   UNL     1       1.860   3.903  21.359  0.00  0.00    +0.000 A 
ATOM      9  C   UNL     1       1.722   2.558  21.033  0.00  0.00    +0.000 A 
ATOM     10  C   UNL     1       1.931   2.147  19.723  0.00  0.00    +0.000 A 
ATOM     11  C   UNL     1       2.271   3.072  18.720  0.00  0.00    +0.000 A 
ATOM     12  C   UNL     1       2.529   2.548  17.334  0.00  0.00    +0.000 C 
ATOM     13  C   UNL     1       2.414   4.445  19.046  0.00  0.00    +0.000 A 
ATOM     14  C   UNL     1       2.834   5.454  18.008  0.00  0.00    +0.000 C 
ENDBRANCH   4   7
BRANCH   1  18
ATOM     15  C   UNL     1      -1.026  11.406  22.386  0.00  0.00    +0.000 A 
ATOM     16  C   UNL     1      -0.369  11.433  21.162  0.00  0.00    +0.000 A 
ATOM     17  C   UNL     1       0.509  10.415  20.804  0.00  0.00    +0.000 A 
ATOM     18  C   UNL     1       0.784   9.348  21.660  0.00  0.00    +0.000 A 
ATOM     19  C   UNL     1       0.125   9.313  22.892  0.00  0.00    +0.000 A 
ATOM     20  C   UNL     1      -0.766  10.343  23.258  0.00  0.00    +0.000 A 
BRANCH  15  24
ATOM     21  C   UNL     1      -2.743  14.483  23.732  0.00  0.00    +0.000 C 
ATOM     22  C   UNL     1      -1.561  13.674  23.269  0.00  0.00    +0.000 C 
ATOM     23  O   UNL     1      -0.430  14.138  23.354  0.00  0.00    +0.000 OA
ATOM     24  N   UNL     1      -1.923  12.426  22.776  0.00  0.00    +0.000 N 
ATOM     25  H   UNL     1      -2.907  12.251  22.623  0.00  0.00    +0.000 HD
ENDBRANCH  15  24
ENDBRANCH   1  18
TORSDOF 3
ENDMDL
