MODEL 1
REMARK VINA RESULT:      -7.9      0.000      0.000
REMARK  Name = 
REMARK  6 active torsions:
REMARK  status: ('A' for Active; 'I' for Inactive)
REMARK    1  A    between atoms: C_1  and  O_2
REMARK    2  A    between atoms: O_2  and  C_3
REMARK    3  A    between atoms: C_6  and  C_7
REMARK    4  A    between atoms: C_7  and  C_8
REMARK    5  A    between atoms: C_10  and  C_11
REMARK    6  A    between atoms: C_15  and  C_17
REMARK                            x       y       z     vdW  Elec       q    Type
REMARK                         _______ _______ _______ _____ _____    ______ ____
ROOT
ATOM      1  C   UNL     1       0.826  13.110  20.496  0.00  0.00    +0.000 A 
ATOM      2  C   UNL     1       0.175  12.019  20.090  0.00  0.00    +0.000 A 
ATOM      3  C   UNL     1       0.811  11.275  18.983  0.00  0.00    +0.000 A 
ATOM      4  N   UNL     1       1.840  11.704  18.320  0.00  0.00    +0.000 NA
ATOM      5  C   UNL     1       2.424  12.883  18.691  0.00  0.00    +0.000 A 
ATOM      6  O   UNL     1       3.384  13.370  18.089  0.00  0.00    +0.000 OA
ATOM      7  N   UNL     1       1.930  13.524  19.796  0.00  0.00    +0.000 N 
ATOM      8  H   UNL     1       2.432  14.360  20.057  0.00  0.00    +0.000 HD
ENDROOT
BRANCH   3   9
ATOM      9  C   UNL     1       0.206   9.907  18.650  0.00  0.00    +0.000 C 
ATOM     10  C   UNL     1      -0.107   9.094  19.920  0.00  0.00    +0.000 C 
ATOM     11  C   UNL     1       1.162   8.581  20.591  0.00  0.00    +0.000 C 
ATOM     12  N   UNL     1       1.965   7.829  19.634  0.00  0.00    +0.000 N 
ATOM     13  C   UNL     1       2.218   6.490  19.901  0.00  0.00    +0.000 C 
ATOM     14  O   UNL     1       1.696   5.900  20.849  0.00  0.00    +0.000 OA
ATOM     15  C   UNL     1       2.328   8.553  18.419  0.00  0.00    +0.000 C 
ATOM     16  C   UNL     1       1.095   9.093  17.709  0.00  0.00    +0.000 C 
BRANCH  13  17
ATOM     17  C   UNL     1       3.162   5.712  19.060  0.00  0.00    +0.000 A 
ATOM     18  C   UNL     1       2.737   4.938  17.950  0.00  0.00    +0.000 A 
ATOM     19  C   UNL     1       3.653   4.359  17.076  0.00  0.00    +0.000 A 
ATOM     20  C   UNL     1       4.967   4.709  17.256  0.00  0.00    +0.000 A 
ATOM     21  C   UNL     1       5.391   5.463  18.334  0.00  0.00    +0.000 A 
ATOM     22  C   UNL     1       4.525   5.936  19.284  0.00  0.00    +0.000 A 
ATOM     23  O   UNL     1       6.703   5.816  18.216  0.00  0.00    +0.000 OA
ATOM     24  C   UNL     1       6.850   5.585  16.802  0.00  0.00    +0.000 C 
ATOM     25  O   UNL     1       5.961   4.547  16.337  0.00  0.00    +0.000 OA
ENDBRANCH  13  17
ENDBRANCH   3   9
BRANCH   1  26
ATOM     26  C   UNL     1       0.372  13.925  21.675  0.00  0.00    +0.000 C 
BRANCH  26  30
ATOM     27  C   UNL     1      -3.541  12.730  23.077  0.00  0.00    +0.000 A 
ATOM     28  C   UNL     1      -3.357  13.968  22.460  0.00  0.00    +0.000 A 
ATOM     29  C   UNL     1      -2.096  14.355  22.003  0.00  0.00    +0.000 A 
ATOM     30  C   UNL     1      -0.994  13.510  22.171  0.00  0.00    +0.000 A 
ATOM     31  C   UNL     1      -1.174  12.288  22.837  0.00  0.00    +0.000 A 
ATOM     32  C   UNL     1      -2.443  11.898  23.281  0.00  0.00    +0.000 A 
BRANCH  27  34
ATOM     33  C   UNL     1      -5.844  12.858  22.567  0.00  0.00    +0.000 C 
ATOM     34  O   UNL     1      -4.822  12.460  23.474  0.00  0.00    +0.000 OA
ENDBRANCH  27  34
ENDBRANCH  26  30
ENDBRANCH   1  26
TORSDOF 5
ENDMDL
MODEL 2
REMARK VINA RESULT:      -7.9      3.037      5.066
REMARK  Name = 
REMARK  6 active torsions:
REMARK  status: ('A' for Active; 'I' for Inactive)
REMARK    1  A    between atoms: C_1  and  O_2
REMARK    2  A    between atoms: O_2  and  C_3
REMARK    3  A    between atoms: C_6  and  C_7
REMARK    4  A    between atoms: C_7  and  C_8
REMARK    5  A    between atoms: C_10  and  C_11
REMARK    6  A    between atoms: C_15  and  C_17
REMARK                            x       y       z     vdW  Elec       q    Type
REMARK                         _______ _______ _______ _____ _____    ______ ____
ROOT
ATOM      1  C   UNL     1       1.381   9.099  19.087  0.00  0.00    +0.000 A 
ATOM      2  C   UNL     1       1.870   7.931  18.667  0.00  0.00    +0.000 A 
ATOM      3  C   UNL     1       2.029   6.898  19.711  0.00  0.00    +0.000 A 
ATOM      4  N   UNL     1       1.869   7.119  20.979  0.00  0.00    +0.000 NA
ATOM      5  C   UNL     1       1.470   8.361  21.392  0.00  0.00    +0.000 A 
ATOM      6  O   UNL     1       1.330   8.655  22.581  0.00  0.00    +0.000 OA
ATOM      7  N   UNL     1       1.192   9.296  20.431  0.00  0.00    +0.000 N 
ATOM      8  H   UNL     1       0.851  10.176  20.788  0.00  0.00    +0.000 HD
ENDROOT
BRANCH   3   9
ATOM      9  C   UNL     1       2.373   5.487  19.222  0.00  0.00    +0.000 C 
ATOM     10  C   UNL     1       3.634   4.933  19.911  0.00  0.00    +0.000 C 
ATOM     11  C   UNL     1       4.900   5.620  19.413  0.00  0.00    +0.000 C 
ATOM     12  N   UNL     1       4.978   5.533  17.961  0.00  0.00    +0.000 N 
ATOM     13  C   UNL     1       6.059   4.863  17.403  0.00  0.00    +0.000 C 
ATOM     14  O   UNL     1       6.880   4.253  18.091  0.00  0.00    +0.000 OA
ATOM     15  C   UNL     1       3.828   6.073  17.240  0.00  0.00    +0.000 C 
ATOM     16  C   UNL     1       2.533   5.424  17.703  0.00  0.00    +0.000 C 
BRANCH  13  17
ATOM     17  C   UNL     1       6.289   4.881  15.936  0.00  0.00    +0.000 A 
ATOM     18  C   UNL     1       7.558   5.149  15.364  0.00  0.00    +0.000 A 
ATOM     19  C   UNL     1       7.789   4.991  14.000  0.00  0.00    +0.000 A 
ATOM     20  C   UNL     1       6.774   4.415  13.278  0.00  0.00    +0.000 A 
ATOM     21  C   UNL     1       5.534   4.149  13.825  0.00  0.00    +0.000 A 
ATOM     22  C   UNL     1       5.238   4.418  15.136  0.00  0.00    +0.000 A 
ATOM     23  O   UNL     1       4.748   3.435  12.970  0.00  0.00    +0.000 OA
ATOM     24  C   UNL     1       5.787   2.948  12.098  0.00  0.00    +0.000 C 
ATOM     25  O   UNL     1       6.903   3.861  12.038  0.00  0.00    +0.000 OA
ENDBRANCH  13  17
ENDBRANCH   3   9
BRANCH   1  26
ATOM     26  C   UNL     1       1.062  10.225  18.141  0.00  0.00    +0.000 C 
BRANCH  26  30
ATOM     27  C   UNL     1      -3.122  11.312  18.253  0.00  0.00    +0.000 A 
ATOM     28  C   UNL     1      -2.702  10.183  17.549  0.00  0.00    +0.000 A 
ATOM     29  C   UNL     1      -1.352   9.828  17.514  0.00  0.00    +0.000 A 
ATOM     30  C   UNL     1      -0.399  10.608  18.176  0.00  0.00    +0.000 A 
ATOM     31  C   UNL     1      -0.820  11.770  18.841  0.00  0.00    +0.000 A 
ATOM     32  C   UNL     1      -2.175  12.116  18.884  0.00  0.00    +0.000 A 
BRANCH  27  34
ATOM     33  C   UNL     1      -5.013  11.827  16.934  0.00  0.00    +0.000 C 
ATOM     34  O   UNL     1      -4.468  11.553  18.220  0.00  0.00    +0.000 OA
ENDBRANCH  27  34
ENDBRANCH  26  30
ENDBRANCH   1  26
TORSDOF 5
ENDMDL
MODEL 3
REMARK VINA RESULT:      -7.8      2.740      9.860
REMARK  Name = 
REMARK  6 active torsions:
REMARK  status: ('A' for Active; 'I' for Inactive)
REMARK    1  A    between atoms: C_1  and  O_2
REMARK    2  A    between atoms: O_2  and  C_3
REMARK    3  A    between atoms: C_6  and  C_7
REMARK    4  A    between atoms: C_7  and  C_8
REMARK    5  A    between atoms: C_10  and  C_11
REMARK    6  A    between atoms: C_15  and  C_17
REMARK                            x       y       z     vdW  Elec       q    Type
REMARK                         _______ _______ _______ _____ _____    ______ ____
ROOT
ATOM      1  C   UNL     1       1.001  10.224  18.143  0.00  0.00    +0.000 A 
ATOM      2  C   UNL     1       0.954  11.487  18.570  0.00  0.00    +0.000 A 
ATOM      3  C   UNL     1      -0.397  12.081  18.644  0.00  0.00    +0.000 A 
ATOM      4  N   UNL     1      -1.466  11.508  18.186  0.00  0.00    +0.000 NA
ATOM      5  C   UNL     1      -1.370  10.252  17.653  0.00  0.00    +0.000 A 
ATOM      6  O   UNL     1      -2.335   9.657  17.169  0.00  0.00    +0.000 OA
ATOM      7  N   UNL     1      -0.150   9.631  17.693  0.00  0.00    +0.000 N 
ATOM      8  H   UNL     1      -0.148   8.687  17.336  0.00  0.00    +0.000 HD
ENDROOT
BRANCH   3   9
ATOM      9  C   UNL     1      -0.500  13.443  19.338  0.00  0.00    +0.000 C 
ATOM     10  C   UNL     1       0.392  13.518  20.591  0.00  0.00    +0.000 C 
ATOM     11  C   UNL     1      -0.167  12.680  21.736  0.00  0.00    +0.000 C 
ATOM     12  N   UNL     1      -1.544  13.067  22.012  0.00  0.00    +0.000 N 
ATOM     13  C   UNL     1      -1.843  13.570  23.271  0.00  0.00    +0.000 C 
ATOM     14  O   UNL     1      -0.970  13.801  24.109  0.00  0.00    +0.000 OA
ATOM     15  C   UNL     1      -2.456  12.986  20.873  0.00  0.00    +0.000 C 
ATOM     16  C   UNL     1      -1.942  13.803  19.697  0.00  0.00    +0.000 C 
BRANCH  13  17
ATOM     17  C   UNL     1      -3.249  13.825  23.674  0.00  0.00    +0.000 A 
ATOM     18  C   UNL     1      -3.877  15.085  23.501  0.00  0.00    +0.000 A 
ATOM     19  C   UNL     1      -5.241  15.253  23.726  0.00  0.00    +0.000 A 
ATOM     20  C   UNL     1      -5.961  14.110  23.965  0.00  0.00    +0.000 A 
ATOM     21  C   UNL     1      -5.359  12.878  24.134  0.00  0.00    +0.000 A 
ATOM     22  C   UNL     1      -4.002  12.707  24.050  0.00  0.00    +0.000 A 
ATOM     23  O   UNL     1      -6.278  11.873  24.200  0.00  0.00    +0.000 OA
ATOM     24  C   UNL     1      -7.391  12.576  23.615  0.00  0.00    +0.000 C 
ATOM     25  O   UNL     1      -7.316  13.996  23.869  0.00  0.00    +0.000 OA
ENDBRANCH  13  17
ENDBRANCH   3   9
BRANCH   1  26
ATOM     26  C   UNL     1       2.282   9.436  18.103  0.00  0.00    +0.000 C 
BRANCH  26  30
ATOM     27  C   UNL     1       1.930   5.644  20.153  0.00  0.00    +0.000 A 
ATOM     28  C   UNL     1       1.597   6.833  20.801  0.00  0.00    +0.000 A 
ATOM     29  C   UNL     1       1.706   8.058  20.141  0.00  0.00    +0.000 A 
ATOM     30  C   UNL     1       2.165   8.111  18.820  0.00  0.00    +0.000 A 
ATOM     31  C   UNL     1       2.545   6.917  18.188  0.00  0.00    +0.000 A 
ATOM     32  C   UNL     1       2.422   5.690  18.849  0.00  0.00    +0.000 A 
BRANCH  27  34
ATOM     33  C   UNL     1       2.690   3.456  20.615  0.00  0.00    +0.000 C 
ATOM     34  O   UNL     1       1.774   4.508  20.898  0.00  0.00    +0.000 OA
ENDBRANCH  27  34
ENDBRANCH  26  30
ENDBRANCH   1  26
TORSDOF 5
ENDMDL
MODEL 4
REMARK VINA RESULT:      -7.8      2.917     10.452
REMARK  Name = 
REMARK  6 active torsions:
REMARK  status: ('A' for Active; 'I' for Inactive)
REMARK    1  A    between atoms: C_1  and  O_2
REMARK    2  A    between atoms: O_2  and  C_3
REMARK    3  A    between atoms: C_6  and  C_7
REMARK    4  A    between atoms: C_7  and  C_8
REMARK    5  A    between atoms: C_10  and  C_11
REMARK    6  A    between atoms: C_15  and  C_17
REMARK                            x       y       z     vdW  Elec       q    Type
REMARK                         _______ _______ _______ _____ _____    ______ ____
ROOT
ATOM      1  C   UNL     1       5.440   4.309  18.535  0.00  0.00    +0.000 A 
ATOM      2  C   UNL     1       4.184   4.699  18.313  0.00  0.00    +0.000 A 
ATOM      3  C   UNL     1       3.168   4.105  19.207  0.00  0.00    +0.000 A 
ATOM      4  N   UNL     1       3.415   3.152  20.051  0.00  0.00    +0.000 NA
ATOM      5  C   UNL     1       4.697   2.696  20.181  0.00  0.00    +0.000 A 
ATOM      6  O   UNL     1       5.003   1.772  20.938  0.00  0.00    +0.000 OA
ATOM      7  N   UNL     1       5.677   3.321  19.455  0.00  0.00    +0.000 N 
ATOM      8  H   UNL     1       6.611   2.981  19.630  0.00  0.00    +0.000 HD
ENDROOT
BRANCH   3   9
ATOM      9  C   UNL     1       1.759   4.701  19.121  0.00  0.00    +0.000 C 
ATOM     10  C   UNL     1       1.547   5.486  17.813  0.00  0.00    +0.000 C 
ATOM     11  C   UNL     1       2.309   6.806  17.815  0.00  0.00    +0.000 C 
ATOM     12  N   UNL     1       1.956   7.586  18.994  0.00  0.00    +0.000 N 
ATOM     13  C   UNL     1       1.364   8.828  18.804  0.00  0.00    +0.000 C 
ATOM     14  O   UNL     1       1.031   9.232  17.688  0.00  0.00    +0.000 OA
ATOM     15  C   UNL     1       2.165   6.913  20.273  0.00  0.00    +0.000 C 
ATOM     16  C   UNL     1       1.428   5.584  20.325  0.00  0.00    +0.000 C 
BRANCH  13  17
ATOM     17  C   UNL     1       1.132   9.743  19.950  0.00  0.00    +0.000 A 
ATOM     18  C   UNL     1       1.320  11.146  19.859  0.00  0.00    +0.000 A 
ATOM     19  C   UNL     1       0.933  11.999  20.889  0.00  0.00    +0.000 A 
ATOM     20  C   UNL     1       0.224  11.426  21.914  0.00  0.00    +0.000 A 
ATOM     21  C   UNL     1       0.036  10.061  22.013  0.00  0.00    +0.000 A 
ATOM     22  C   UNL     1       0.522   9.185  21.079  0.00  0.00    +0.000 A 
ATOM     23  O   UNL     1      -0.828   9.743  23.019  0.00  0.00    +0.000 OA
ATOM     24  C   UNL     1      -1.440  11.037  23.179  0.00  0.00    +0.000 C 
ATOM     25  O   UNL     1      -0.532  12.103  22.825  0.00  0.00    +0.000 OA
ENDBRANCH  13  17
ENDBRANCH   3   9
BRANCH   1  26
ATOM     26  C   UNL     1       6.607   4.890  17.784  0.00  0.00    +0.000 C 
BRANCH  26  30
ATOM     27  C   UNL     1       6.418   4.045  13.547  0.00  0.00    +0.000 A 
ATOM     28  C   UNL     1       5.582   3.375  14.441  0.00  0.00    +0.000 A 
ATOM     29  C   UNL     1       5.638   3.648  15.809  0.00  0.00    +0.000 A 
ATOM     30  C   UNL     1       6.546   4.591  16.304  0.00  0.00    +0.000 A 
ATOM     31  C   UNL     1       7.418   5.226  15.407  0.00  0.00    +0.000 A 
ATOM     32  C   UNL     1       7.350   4.958  14.035  0.00  0.00    +0.000 A 
BRANCH  27  34
ATOM     33  C   UNL     1       4.959   3.277  11.855  0.00  0.00    +0.000 C 
ATOM     34  O   UNL     1       6.265   3.698  12.233  0.00  0.00    +0.000 OA
ENDBRANCH  27  34
ENDBRANCH  26  30
ENDBRANCH   1  26
TORSDOF 5
ENDMDL
MODEL 5
REMARK VINA RESULT:      -7.7      2.046     10.180
REMARK  Name = 
REMARK  6 active torsions:
REMARK  status: ('A' for Active; 'I' for Inactive)
REMARK    1  A    between atoms: C_1  and  O_2
REMARK    2  A    between atoms: O_2  and  C_3
REMARK    3  A    between atoms: C_6  and  C_7
REMARK    4  A    between atoms: C_7  and  C_8
REMARK    5  A    between atoms: C_10  and  C_11
REMARK    6  A    between atoms: C_15  and  C_17
REMARK                            x       y       z     vdW  Elec       q    Type
REMARK                         _______ _______ _______ _____ _____    ______ ____
ROOT
ATOM      1  C   UNL     1       2.121   8.418  18.420  0.00  0.00    +0.000 A 
ATOM      2  C   UNL     1       1.363   9.428  17.991  0.00  0.00    +0.000 A 
ATOM      3  C   UNL     1       0.573  10.116  19.034  0.00  0.00    +0.000 A 
ATOM      4  N   UNL     1       0.472   9.700  20.258  0.00  0.00    +0.000 NA
ATOM      5  C   UNL     1       1.178   8.594  20.644  0.00  0.00    +0.000 A 
ATOM      6  O   UNL     1       1.107   8.120  21.780  0.00  0.00    +0.000 OA
ATOM      7  N   UNL     1       2.017   8.018  19.727  0.00  0.00    +0.000 N 
ATOM      8  H   UNL     1       2.553   7.239  20.081  0.00  0.00    +0.000 HD
ENDROOT
BRANCH   3   9
ATOM      9  C   UNL     1      -0.127  11.411  18.609  0.00  0.00    +0.000 C 
ATOM     10  C   UNL     1       0.714  12.656  18.949  0.00  0.00    +0.000 C 
ATOM     11  C   UNL     1       0.733  12.935  20.448  0.00  0.00    +0.000 C 
ATOM     12  N   UNL     1      -0.630  13.030  20.956  0.00  0.00    +0.000 N 
ATOM     13  C   UNL     1      -1.032  14.228  21.530  0.00  0.00    +0.000 C 
ATOM     14  O   UNL     1      -0.318  15.233  21.519  0.00  0.00    +0.000 OA
ATOM     15  C   UNL     1      -1.474  11.867  20.698  0.00  0.00    +0.000 C 
ATOM     16  C   UNL     1      -1.525  11.540  19.213  0.00  0.00    +0.000 C 
BRANCH  13  17
ATOM     17  C   UNL     1      -2.344  14.340  22.215  0.00  0.00    +0.000 A 
ATOM     18  C   UNL     1      -3.479  14.929  21.601  0.00  0.00    +0.000 A 
ATOM     19  C   UNL     1      -4.738  14.869  22.193  0.00  0.00    +0.000 A 
ATOM     20  C   UNL     1      -4.844  14.079  23.310  0.00  0.00    +0.000 A 
ATOM     21  C   UNL     1      -3.746  13.501  23.916  0.00  0.00    +0.000 A 
ATOM     22  C   UNL     1      -2.474  13.654  23.428  0.00  0.00    +0.000 A 
ATOM     23  O   UNL     1      -4.112  12.638  24.906  0.00  0.00    +0.000 OA
ATOM     24  C   UNL     1      -5.484  12.446  24.511  0.00  0.00    +0.000 C 
ATOM     25  O   UNL     1      -6.011  13.608  23.836  0.00  0.00    +0.000 OA
ENDBRANCH  13  17
ENDBRANCH   3   9
BRANCH   1  26
ATOM     26  C   UNL     1       3.061   7.675  17.511  0.00  0.00    +0.000 C 
BRANCH  26  30
ATOM     27  C   UNL     1       3.789   3.632  18.865  0.00  0.00    +0.000 A 
ATOM     28  C   UNL     1       4.804   4.588  18.911  0.00  0.00    +0.000 A 
ATOM     29  C   UNL     1       4.571   5.895  18.477  0.00  0.00    +0.000 A 
ATOM     30  C   UNL     1       3.317   6.261  17.978  0.00  0.00    +0.000 A 
ATOM     31  C   UNL     1       2.313   5.284  17.889  0.00  0.00    +0.000 A 
ATOM     32  C   UNL     1       2.547   3.979  18.336  0.00  0.00    +0.000 A 
BRANCH  27  34
ATOM     33  C   UNL     1       3.641   1.295  18.560  0.00  0.00    +0.000 C 
ATOM     34  O   UNL     1       4.134   2.391  19.323  0.00  0.00    +0.000 OA
ENDBRANCH  27  34
ENDBRANCH  26  30
ENDBRANCH   1  26
TORSDOF 5
ENDMDL
MODEL 6
REMARK VINA RESULT:      -7.6      1.273      2.018
REMARK  Name = 
REMARK  6 active torsions:
REMARK  status: ('A' for Active; 'I' for Inactive)
REMARK    1  A    between atoms: C_1  and  O_2
REMARK    2  A    between atoms: O_2  and  C_3
REMARK    3  A    between atoms: C_6  and  C_7
REMARK    4  A    between atoms: C_7  and  C_8
REMARK    5  A    between atoms: C_10  and  C_11
REMARK    6  A    between atoms: C_15  and  C_17
REMARK                            x       y       z     vdW  Elec       q    Type
REMARK                         _______ _______ _______ _____ _____    ______ ____
ROOT
ATOM      1  C   UNL     1       1.062  13.689  20.583  0.00  0.00    +0.000 A 
ATOM      2  C   UNL     1       0.288  12.655  20.249  0.00  0.00    +0.000 A 
ATOM      3  C   UNL     1       0.816  11.787  19.177  0.00  0.00    +0.000 A 
ATOM      4  N   UNL     1       1.872  12.063  18.476  0.00  0.00    +0.000 NA
ATOM      5  C   UNL     1       2.589  13.190  18.771  0.00  0.00    +0.000 A 
ATOM      6  O   UNL     1       3.583  13.535  18.128  0.00  0.00    +0.000 OA
ATOM      7  N   UNL     1       2.190  13.940  19.845  0.00  0.00    +0.000 N 
ATOM      8  H   UNL     1       2.785  14.729  20.050  0.00  0.00    +0.000 HD
ENDROOT
BRANCH   3   9
ATOM      9  C   UNL     1       0.060  10.477  18.931  0.00  0.00    +0.000 C 
ATOM     10  C   UNL     1      -0.221   9.722  20.244  0.00  0.00    +0.000 C 
ATOM     11  C   UNL     1       1.046   9.102  20.823  0.00  0.00    +0.000 C 
ATOM     12  N   UNL     1       1.691   8.259  19.824  0.00  0.00    +0.000 N 
ATOM     13  C   UNL     1       1.838   6.907  20.106  0.00  0.00    +0.000 C 
ATOM     14  O   UNL     1       1.344   6.388  21.109  0.00  0.00    +0.000 OA
ATOM     15  C   UNL     1       2.017   8.922  18.564  0.00  0.00    +0.000 C 
ATOM     16  C   UNL     1       0.786   9.564  17.943  0.00  0.00    +0.000 C 
BRANCH  13  17
ATOM     17  C   UNL     1       2.631   6.026  19.211  0.00  0.00    +0.000 A 
ATOM     18  C   UNL     1       4.042   5.921  19.297  0.00  0.00    +0.000 A 
ATOM     19  C   UNL     1       4.745   4.965  18.569  0.00  0.00    +0.000 A 
ATOM     20  C   UNL     1       3.987   4.040  17.896  0.00  0.00    +0.000 A 
ATOM     21  C   UNL     1       2.612   4.133  17.806  0.00  0.00    +0.000 A 
ATOM     22  C   UNL     1       1.905   5.142  18.405  0.00  0.00    +0.000 A 
ATOM     23  O   UNL     1       2.069   3.024  17.229  0.00  0.00    +0.000 OA
ATOM     24  C   UNL     1       3.185   2.132  17.410  0.00  0.00    +0.000 C 
ATOM     25  O   UNL     1       4.440   2.846  17.418  0.00  0.00    +0.000 OA
ENDBRANCH  13  17
ENDBRANCH   3   9
BRANCH   1  26
ATOM     26  C   UNL     1       0.724  14.613  21.720  0.00  0.00    +0.000 C 
BRANCH  26  30
ATOM     27  C   UNL     1      -3.290  14.011  23.214  0.00  0.00    +0.000 A 
ATOM     28  C   UNL     1      -2.268  13.123  23.551  0.00  0.00    +0.000 A 
ATOM     29  C   UNL     1      -0.971  13.316  23.072  0.00  0.00    +0.000 A 
ATOM     30  C   UNL     1      -0.680  14.400  22.237  0.00  0.00    +0.000 A 
ATOM     31  C   UNL     1      -1.721  15.263  21.862  0.00  0.00    +0.000 A 
ATOM     32  C   UNL     1      -3.017  15.073  22.354  0.00  0.00    +0.000 A 
BRANCH  27  34
ATOM     33  C   UNL     1      -4.562  12.580  24.597  0.00  0.00    +0.000 C 
ATOM     34  O   UNL     1      -4.515  13.722  23.748  0.00  0.00    +0.000 OA
ENDBRANCH  27  34
ENDBRANCH  26  30
ENDBRANCH   1  26
TORSDOF 5
ENDMDL
MODEL 7
REMARK VINA RESULT:      -7.6      2.774      5.214
REMARK  Name = 
REMARK  6 active torsions:
REMARK  status: ('A' for Active; 'I' for Inactive)
REMARK    1  A    between atoms: C_1  and  O_2
REMARK    2  A    between atoms: O_2  and  C_3
REMARK    3  A    between atoms: C_6  and  C_7
REMARK    4  A    between atoms: C_7  and  C_8
REMARK    5  A    between atoms: C_10  and  C_11
REMARK    6  A    between atoms: C_15  and  C_17
REMARK                            x       y       z     vdW  Elec       q    Type
REMARK                         _______ _______ _______ _____ _____    ______ ____
ROOT
ATOM      1  C   UNL     1       2.472  12.988  18.567  0.00  0.00    +0.000 A 
ATOM      2  C   UNL     1       1.955  11.774  18.370  0.00  0.00    +0.000 A 
ATOM      3  C   UNL     1       1.117  11.255  19.470  0.00  0.00    +0.000 A 
ATOM      4  N   UNL     1       0.998  11.834  20.625  0.00  0.00    +0.000 NA
ATOM      5  C   UNL     1       1.628  13.029  20.837  0.00  0.00    +0.000 A 
ATOM      6  O   UNL     1       1.588  13.622  21.917  0.00  0.00    +0.000 OA
ATOM      7  N   UNL     1       2.304  13.592  19.787  0.00  0.00    +0.000 N 
ATOM      8  H   UNL     1       2.704  14.498  19.982  0.00  0.00    +0.000 HD
ENDROOT
BRANCH   3   9
ATOM      9  C   UNL     1       0.336   9.970  19.178  0.00  0.00    +0.000 C 
ATOM     10  C   UNL     1       0.068   9.157  20.459  0.00  0.00    +0.000 C 
ATOM     11  C   UNL     1       1.336   8.492  20.983  0.00  0.00    +0.000 C 
ATOM     12  N   UNL     1       1.949   7.688  19.934  0.00  0.00    +0.000 N 
ATOM     13  C   UNL     1       2.080   6.322  20.148  0.00  0.00    +0.000 C 
ATOM     14  O   UNL     1       1.598   5.764  21.135  0.00  0.00    +0.000 OA
ATOM     15  C   UNL     1       2.262   8.405  18.700  0.00  0.00    +0.000 C 
ATOM     16  C   UNL     1       1.029   9.094  18.134  0.00  0.00    +0.000 C 
BRANCH  13  17
ATOM     17  C   UNL     1       2.842   5.473  19.198  0.00  0.00    +0.000 A 
ATOM     18  C   UNL     1       2.233   4.826  18.092  0.00  0.00    +0.000 A 
ATOM     19  C   UNL     1       2.992   4.179  17.121  0.00  0.00    +0.000 A 
ATOM     20  C   UNL     1       4.352   4.340  17.209  0.00  0.00    +0.000 A 
ATOM     21  C   UNL     1       4.955   4.968  18.281  0.00  0.00    +0.000 A 
ATOM     22  C   UNL     1       4.236   5.499  19.320  0.00  0.00    +0.000 A 
ATOM     23  O   UNL     1       6.291   5.149  18.073  0.00  0.00    +0.000 OA
ATOM     24  C   UNL     1       6.298   4.980  16.643  0.00  0.00    +0.000 C 
ATOM     25  O   UNL     1       5.242   4.098  16.205  0.00  0.00    +0.000 OA
ENDBRANCH  13  17
ENDBRANCH   3   9
BRANCH   1  26
ATOM     26  C   UNL     1       3.264  13.707  17.510  0.00  0.00    +0.000 C 
BRANCH  26  30
ATOM     27  C   UNL     1       5.475  17.056  19.123  0.00  0.00    +0.000 A 
ATOM     28  C   UNL     1       4.086  17.113  19.009  0.00  0.00    +0.000 A 
ATOM     29  C   UNL     1       3.370  16.032  18.491  0.00  0.00    +0.000 A 
ATOM     30  C   UNL     1       4.038  14.879  18.068  0.00  0.00    +0.000 A 
ATOM     31  C   UNL     1       5.439  14.845  18.139  0.00  0.00    +0.000 A 
ATOM     32  C   UNL     1       6.153  15.925  18.671  0.00  0.00    +0.000 A 
BRANCH  27  34
ATOM     33  C   UNL     1       6.917  17.946  20.768  0.00  0.00    +0.000 C 
ATOM     34  O   UNL     1       6.065  18.171  19.651  0.00  0.00    +0.000 OA
ENDBRANCH  27  34
ENDBRANCH  26  30
ENDBRANCH   1  26
TORSDOF 5
ENDMDL
MODEL 8
REMARK VINA RESULT:      -7.6      5.201      7.437
REMARK  Name = 
REMARK  6 active torsions:
REMARK  status: ('A' for Active; 'I' for Inactive)
REMARK    1  A    between atoms: C_1  and  O_2
REMARK    2  A    between atoms: O_2  and  C_3
REMARK    3  A    between atoms: C_6  and  C_7
REMARK    4  A    between atoms: C_7  and  C_8
REMARK    5  A    between atoms: C_10  and  C_11
REMARK    6  A    between atoms: C_15  and  C_17
REMARK                            x       y       z     vdW  Elec       q    Type
REMARK                         _______ _______ _______ _____ _____    ______ ____
ROOT
ATOM      1  C   UNL     1      -4.452  11.518  17.318  0.00  0.00    +0.000 A 
ATOM      2  C   UNL     1      -3.611  11.385  18.345  0.00  0.00    +0.000 A 
ATOM      3  C   UNL     1      -2.253  10.921  17.997  0.00  0.00    +0.000 A 
ATOM      4  N   UNL     1      -1.909  10.509  16.816  0.00  0.00    +0.000 NA
ATOM      5  C   UNL     1      -2.826  10.557  15.803  0.00  0.00    +0.000 A 
ATOM      6  O   UNL     1      -2.583  10.153  14.663  0.00  0.00    +0.000 OA
ATOM      7  N   UNL     1      -4.052  11.105  16.074  0.00  0.00    +0.000 N 
ATOM      8  H   UNL     1      -4.670  11.164  15.278  0.00  0.00    +0.000 HD
ENDROOT
BRANCH   3   9
ATOM      9  C   UNL     1      -1.211  10.973  19.119  0.00  0.00    +0.000 C 
ATOM     10  C   UNL     1      -1.622  11.947  20.239  0.00  0.00    +0.000 C 
ATOM     11  C   UNL     1      -1.498  13.401  19.798  0.00  0.00    +0.000 C 
ATOM     12  N   UNL     1      -0.152  13.660  19.304  0.00  0.00    +0.000 N 
ATOM     13  C   UNL     1       0.616  14.611  19.963  0.00  0.00    +0.000 C 
ATOM     14  O   UNL     1       0.240  15.149  21.006  0.00  0.00    +0.000 OA
ATOM     15  C   UNL     1       0.291  12.793  18.215  0.00  0.00    +0.000 C 
ATOM     16  C   UNL     1       0.183  11.325  18.600  0.00  0.00    +0.000 C 
BRANCH  13  17
ATOM     17  C   UNL     1       1.927  15.043  19.415  0.00  0.00    +0.000 A 
ATOM     18  C   UNL     1       2.042  15.997  18.372  0.00  0.00    +0.000 A 
ATOM     19  C   UNL     1       3.278  16.513  17.993  0.00  0.00    +0.000 A 
ATOM     20  C   UNL     1       4.345  16.170  18.785  0.00  0.00    +0.000 A 
ATOM     21  C   UNL     1       4.244  15.243  19.804  0.00  0.00    +0.000 A 
ATOM     22  C   UNL     1       3.063  14.619  20.112  0.00  0.00    +0.000 A 
ATOM     23  O   UNL     1       5.385  15.185  20.548  0.00  0.00    +0.000 OA
ATOM     24  C   UNL     1       5.953  16.447  20.149  0.00  0.00    +0.000 C 
ATOM     25  O   UNL     1       5.547  16.814  18.813  0.00  0.00    +0.000 OA
ENDBRANCH  13  17
ENDBRANCH   3   9
BRANCH   1  26
ATOM     26  C   UNL     1      -5.840  12.075  17.481  0.00  0.00    +0.000 C 
BRANCH  26  30
ATOM     27  C   UNL     1      -7.439  11.421  21.446  0.00  0.00    +0.000 A 
ATOM     28  C   UNL     1      -6.840  12.637  21.116  0.00  0.00    +0.000 A 
ATOM     29  C   UNL     1      -6.326  12.852  19.835  0.00  0.00    +0.000 A 
ATOM     30  C   UNL     1      -6.393  11.844  18.868  0.00  0.00    +0.000 A 
ATOM     31  C   UNL     1      -6.952  10.605  19.220  0.00  0.00    +0.000 A 
ATOM     32  C   UNL     1      -7.478  10.398  20.500  0.00  0.00    +0.000 A 
BRANCH  27  34
ATOM     33  C   UNL     1      -7.348  12.251  23.656  0.00  0.00    +0.000 C 
ATOM     34  O   UNL     1      -7.911  11.331  22.726  0.00  0.00    +0.000 OA
ENDBRANCH  27  34
ENDBRANCH  26  30
ENDBRANCH   1  26
TORSDOF 5
ENDMDL
MODEL 9
REMARK VINA RESULT:      -7.6      0.748      1.114
REMARK  Name = 
REMARK  6 active torsions:
REMARK  status: ('A' for Active; 'I' for Inactive)
REMARK    1  A    between atoms: C_1  and  O_2
REMARK    2  A    between atoms: O_2  and  C_3
REMARK    3  A    between atoms: C_6  and  C_7
REMARK    4  A    between atoms: C_7  and  C_8
REMARK    5  A    between atoms: C_10  and  C_11
REMARK    6  A    between atoms: C_15  and  C_17
REMARK                            x       y       z     vdW  Elec       q    Type
REMARK                         _______ _______ _______ _____ _____    ______ ____
ROOT
ATOM      1  C   UNL     1       1.156  13.234  20.585  0.00  0.00    +0.000 A 
ATOM      2  C   UNL     1       0.425  12.179  20.219  0.00  0.00    +0.000 A 
ATOM      3  C   UNL     1       0.950  11.409  19.073  0.00  0.00    +0.000 A 
ATOM      4  N   UNL     1       1.955  11.788  18.347  0.00  0.00    +0.000 NA
ATOM      5  C   UNL     1       2.622  12.935  18.681  0.00  0.00    +0.000 A 
ATOM      6  O   UNL     1       3.565  13.375  18.020  0.00  0.00    +0.000 OA
ATOM      7  N   UNL     1       2.232  13.594  19.816  0.00  0.00    +0.000 N 
ATOM      8  H   UNL     1       2.792  14.403  20.045  0.00  0.00    +0.000 HD
ENDROOT
BRANCH   3   9
ATOM      9  C   UNL     1       0.256  10.076  18.778  0.00  0.00    +0.000 C 
ATOM     10  C   UNL     1      -0.059   9.295  20.068  0.00  0.00    +0.000 C 
ATOM     11  C   UNL     1       1.201   8.716  20.701  0.00  0.00    +0.000 C 
ATOM     12  N   UNL     1       1.925   7.909  19.727  0.00  0.00    +0.000 N 
ATOM     13  C   UNL     1       2.109   6.561  20.002  0.00  0.00    +0.000 C 
ATOM     14  O   UNL     1       1.588   6.012  20.974  0.00  0.00    +0.000 OA
ATOM     15  C   UNL     1       2.287   8.599  18.491  0.00  0.00    +0.000 C 
ATOM     16  C   UNL     1       1.063   9.202  17.817  0.00  0.00    +0.000 C 
BRANCH  13  17
ATOM     17  C   UNL     1       2.977   5.720  19.138  0.00  0.00    +0.000 A 
ATOM     18  C   UNL     1       2.475   4.983  18.036  0.00  0.00    +0.000 A 
ATOM     19  C   UNL     1       3.328   4.343  17.141  0.00  0.00    +0.000 A 
ATOM     20  C   UNL     1       4.667   4.598  17.294  0.00  0.00    +0.000 A 
ATOM     21  C   UNL     1       5.167   5.315  18.363  0.00  0.00    +0.000 A 
ATOM     22  C   UNL     1       4.357   5.845  19.333  0.00  0.00    +0.000 A 
ATOM     23  O   UNL     1       6.498   5.575  18.218  0.00  0.00    +0.000 OA
ATOM     24  C   UNL     1       6.598   5.339  16.801  0.00  0.00    +0.000 C 
ATOM     25  O   UNL     1       5.627   4.369  16.353  0.00  0.00    +0.000 OA
ENDBRANCH  13  17
ENDBRANCH   3   9
BRANCH   1  26
ATOM     26  C   UNL     1       0.820  14.066  21.792  0.00  0.00    +0.000 C 
BRANCH  26  30
ATOM     27  C   UNL     1      -3.424  14.154  22.624  0.00  0.00    +0.000 A 
ATOM     28  C   UNL     1      -2.568  13.360  23.388  0.00  0.00    +0.000 A 
ATOM     29  C   UNL     1      -1.197  13.332  23.124  0.00  0.00    +0.000 A 
ATOM     30  C   UNL     1      -0.663  14.093  22.078  0.00  0.00    +0.000 A 
ATOM     31  C   UNL     1      -1.535  14.851  21.281  0.00  0.00    +0.000 A 
ATOM     32  C   UNL     1      -2.906  14.887  21.557  0.00  0.00    +0.000 A 
BRANCH  27  34
ATOM     33  C   UNL     1      -5.203  15.187  23.783  0.00  0.00    +0.000 C 
ATOM     34  O   UNL     1      -4.742  14.105  22.982  0.00  0.00    +0.000 OA
ENDBRANCH  27  34
ENDBRANCH  26  30
ENDBRANCH   1  26
TORSDOF 5
ENDMDL
