MODEL 1
REMARK VINA RESULT:      -9.2      0.000      0.000
REMARK  Name = 
REMARK  9 active torsions:
REMARK  status: ('A' for Active; 'I' for Inactive)
REMARK    1  A    between atoms: C_1  and  C_2
REMARK    2  A    between atoms: N_4  and  C_5
REMARK    3  A    between atoms: C_5  and  C_6
REMARK    4  A    between atoms: C_6  and  C_7
REMARK    5  A    between atoms: N_15  and  C_16
REMARK    6  A    between atoms: C_16  and  C_17
REMARK    7  A    between atoms: C_20  and  C_21
REMARK    8  A    between atoms: C_21  and  C_22
REMARK    9  A    between atoms: C_21  and  C_23
REMARK                            x       y       z     vdW  Elec       q    Type
REMARK                         _______ _______ _______ _____ _____    ______ ____
ROOT
ATOM      1  C   UNL     1       5.244   4.775  18.803  0.00  0.00    +0.000 A 
ATOM      2  N   UNL     1       5.032   3.623  19.409  0.00  0.00    +0.000 NA
ATOM      3  C   UNL     1       3.727   3.296  19.151  0.00  0.00    +0.000 A 
ATOM      4  C   UNL     1       2.989   2.186  19.584  0.00  0.00    +0.000 A 
ATOM      5  C   UNL     1       1.654   2.064  19.182  0.00  0.00    +0.000 A 
ATOM      6  C   UNL     1       1.072   3.023  18.353  0.00  0.00    +0.000 A 
ATOM      7  C   UNL     1       1.794   4.138  17.912  0.00  0.00    +0.000 A 
ATOM      8  C   UNL     1       3.122   4.256  18.346  0.00  0.00    +0.000 A 
ATOM      9  N   UNL     1       4.090   5.226  18.190  0.00  0.00    +0.000 N 
ENDROOT
BRANCH   1  10
ATOM     10  C   UNL     1       6.537   5.521  18.812  0.00  0.00    +0.000 C 
BRANCH  10  11
ATOM     11  C   UNL     1       7.592   4.839  17.936  0.00  0.00    +0.000 C 
BRANCH  11  15
ATOM     12  C   UNL     1       6.292   3.889  14.508  0.00  0.00    +0.000 C 
ATOM     13  C   UNL     1       6.982   4.732  15.542  0.00  0.00    +0.000 C 
ATOM     14  O   UNL     1       7.480   5.821  15.278  0.00  0.00    +0.000 OA
ATOM     15  N   UNL     1       7.005   4.159  16.793  0.00  0.00    +0.000 N 
ATOM     16  H   UNL     1       6.516   3.287  16.953  0.00  0.00    +0.000 HD
ENDBRANCH  11  15
ENDBRANCH  10  11
ENDBRANCH   1  10
BRANCH   9  17
ATOM     17  C   UNL     1       3.887   6.536  17.575  0.00  0.00    +0.000 C 
BRANCH  17  18
ATOM     18  C   UNL     1       2.844   7.331  18.330  0.00  0.00    +0.000 A 
ATOM     19  C   UNL     1       2.198   8.423  17.737  0.00  0.00    +0.000 A 
ATOM     20  C   UNL     1       1.365   9.255  18.496  0.00  0.00    +0.000 A 
ATOM     21  C   UNL     1       1.159   9.012  19.861  0.00  0.00    +0.000 A 
ATOM     22  C   UNL     1       1.723   7.861  20.424  0.00  0.00    +0.000 A 
ATOM     23  C   UNL     1       2.549   7.030  19.667  0.00  0.00    +0.000 A 
BRANCH  21  24
ATOM     24  C   UNL     1       0.423  10.028  20.718  0.00  0.00    +0.000 C 
ATOM     25  C   UNL     1      -0.737  10.696  19.980  0.00  0.00    +0.000 C 
ATOM     26  C   UNL     1      -0.065   9.378  22.019  0.00  0.00    +0.000 C 
ENDBRANCH  21  24
ENDBRANCH  17  18
ENDBRANCH   9  17
TORSDOF 6
ENDMDL
MODEL 2
REMARK VINA RESULT:      -9.2      0.359      1.189
REMARK  Name = 
REMARK  9 active torsions:
REMARK  status: ('A' for Active; 'I' for Inactive)
REMARK    1  A    between atoms: C_1  and  C_2
REMARK    2  A    between atoms: N_4  and  C_5
REMARK    3  A    between atoms: C_5  and  C_6
REMARK    4  A    between atoms: C_6  and  C_7
REMARK    5  A    between atoms: N_15  and  C_16
REMARK    6  A    between atoms: C_16  and  C_17
REMARK    7  A    between atoms: C_20  and  C_21
REMARK    8  A    between atoms: C_21  and  C_22
REMARK    9  A    between atoms: C_21  and  C_23
REMARK                            x       y       z     vdW  Elec       q    Type
REMARK                         _______ _______ _______ _____ _____    ______ ____
ROOT
ATOM      1  C   UNL     1       5.167   4.737  18.754  0.00  0.00    +0.000 A 
ATOM      2  N   UNL     1       4.983   3.612  19.416  0.00  0.00    +0.000 NA
ATOM      3  C   UNL     1       3.680   3.254  19.193  0.00  0.00    +0.000 A 
ATOM      4  C   UNL     1       2.965   2.154  19.688  0.00  0.00    +0.000 A 
ATOM      5  C   UNL     1       1.626   1.993  19.313  0.00  0.00    +0.000 A 
ATOM      6  C   UNL     1       1.017   2.903  18.448  0.00  0.00    +0.000 A 
ATOM      7  C   UNL     1       1.715   4.007  17.945  0.00  0.00    +0.000 A 
ATOM      8  C   UNL     1       3.047   4.166  18.354  0.00  0.00    +0.000 A 
ATOM      9  N   UNL     1       3.998   5.142  18.138  0.00  0.00    +0.000 N 
ENDROOT
BRANCH   1  10
ATOM     10  C   UNL     1       6.448   5.503  18.708  0.00  0.00    +0.000 C 
BRANCH  10  11
ATOM     11  C   UNL     1       7.484   4.822  17.809  0.00  0.00    +0.000 C 
BRANCH  11  15
ATOM     12  C   UNL     1       6.215   3.868  14.372  0.00  0.00    +0.000 C 
ATOM     13  C   UNL     1       6.946   4.682  15.400  0.00  0.00    +0.000 C 
ATOM     14  O   UNL     1       7.551   5.711  15.118  0.00  0.00    +0.000 OA
ATOM     15  N   UNL     1       6.875   4.156  16.670  0.00  0.00    +0.000 N 
ATOM     16  H   UNL     1       6.303   3.339  16.841  0.00  0.00    +0.000 HD
ENDBRANCH  11  15
ENDBRANCH  10  11
ENDBRANCH   1  10
BRANCH   9  17
ATOM     17  C   UNL     1       3.765   6.419  17.466  0.00  0.00    +0.000 C 
BRANCH  17  18
ATOM     18  C   UNL     1       2.944   7.345  18.335  0.00  0.00    +0.000 A 
ATOM     19  C   UNL     1       2.662   7.023  19.669  0.00  0.00    +0.000 A 
ATOM     20  C   UNL     1       1.763   7.797  20.413  0.00  0.00    +0.000 A 
ATOM     21  C   UNL     1       1.127   8.908  19.841  0.00  0.00    +0.000 A 
ATOM     22  C   UNL     1       1.491   9.286  18.542  0.00  0.00    +0.000 A 
ATOM     23  C   UNL     1       2.390   8.517  17.803  0.00  0.00    +0.000 A 
BRANCH  21  24
ATOM     24  C   UNL     1       0.007   9.617  20.583  0.00  0.00    +0.000 C 
ATOM     25  C   UNL     1      -0.372   8.921  21.890  0.00  0.00    +0.000 C 
ATOM     26  C   UNL     1       0.379  11.084  20.838  0.00  0.00    +0.000 C 
ENDBRANCH  21  24
ENDBRANCH  17  18
ENDBRANCH   9  17
TORSDOF 6
ENDMDL
MODEL 3
REMARK VINA RESULT:      -8.5      1.381      1.653
REMARK  Name = 
REMARK  9 active torsions:
REMARK  status: ('A' for Active; 'I' for Inactive)
REMARK    1  A    between atoms: C_1  and  C_2
REMARK    2  A    between atoms: N_4  and  C_5
REMARK    3  A    between atoms: C_5  and  C_6
REMARK    4  A    between atoms: C_6  and  C_7
REMARK    5  A    between atoms: N_15  and  C_16
REMARK    6  A    between atoms: C_16  and  C_17
REMARK    7  A    between atoms: C_20  and  C_21
REMARK    8  A    between atoms: C_21  and  C_22
REMARK    9  A    between atoms: C_21  and  C_23
REMARK                            x       y       z     vdW  Elec       q    Type
REMARK                         _______ _______ _______ _____ _____    ______ ____
ROOT
ATOM      1  C   UNL     1       4.231   4.777  17.462  0.00  0.00    +0.000 A 
ATOM      2  N   UNL     1       3.835   3.572  17.104  0.00  0.00    +0.000 NA
ATOM      3  C   UNL     1       2.789   3.258  17.931  0.00  0.00    +0.000 A 
ATOM      4  C   UNL     1       2.027   2.083  17.990  0.00  0.00    +0.000 A 
ATOM      5  C   UNL     1       0.994   1.994  18.929  0.00  0.00    +0.000 A 
ATOM      6  C   UNL     1       0.717   3.062  19.783  0.00  0.00    +0.000 A 
ATOM      7  C   UNL     1       1.467   4.242  19.738  0.00  0.00    +0.000 A 
ATOM      8  C   UNL     1       2.515   4.302  18.808  0.00  0.00    +0.000 A 
ATOM      9  N   UNL     1       3.492   5.238  18.536  0.00  0.00    +0.000 N 
ENDROOT
BRANCH   1  10
ATOM     10  C   UNL     1       5.356   5.531  16.833  0.00  0.00    +0.000 C 
BRANCH  10  11
ATOM     11  C   UNL     1       6.489   4.599  16.396  0.00  0.00    +0.000 C 
BRANCH  11  15
ATOM     12  C   UNL     1       6.194   3.541  12.772  0.00  0.00    +0.000 C 
ATOM     13  C   UNL     1       6.651   4.367  13.939  0.00  0.00    +0.000 C 
ATOM     14  O   UNL     1       7.374   5.349  13.809  0.00  0.00    +0.000 OA
ATOM     15  N   UNL     1       6.189   3.909  15.152  0.00  0.00    +0.000 N 
ATOM     16  H   UNL     1       5.542   3.131  15.179  0.00  0.00    +0.000 HD
ENDBRANCH  11  15
ENDBRANCH  10  11
ENDBRANCH   1  10
BRANCH   9  17
ATOM     17  C   UNL     1       3.752   6.445  19.318  0.00  0.00    +0.000 C 
BRANCH  17  18
ATOM     18  C   UNL     1       2.633   7.449  19.149  0.00  0.00    +0.000 A 
ATOM     19  C   UNL     1       2.376   8.044  17.906  0.00  0.00    +0.000 A 
ATOM     20  C   UNL     1       1.456   9.094  17.797  0.00  0.00    +0.000 A 
ATOM     21  C   UNL     1       0.772   9.570  18.924  0.00  0.00    +0.000 A 
ATOM     22  C   UNL     1       0.955   8.904  20.143  0.00  0.00    +0.000 A 
ATOM     23  C   UNL     1       1.868   7.856  20.251  0.00  0.00    +0.000 A 
BRANCH  21  24
ATOM     24  C   UNL     1      -0.066  10.834  18.835  0.00  0.00    +0.000 C 
ATOM     25  C   UNL     1      -1.355  10.636  18.039  0.00  0.00    +0.000 C 
ATOM     26  C   UNL     1      -0.373  11.373  20.238  0.00  0.00    +0.000 C 
ENDBRANCH  21  24
ENDBRANCH  17  18
ENDBRANCH   9  17
TORSDOF 6
ENDMDL
MODEL 4
REMARK VINA RESULT:      -8.3      1.777      2.441
REMARK  Name = 
REMARK  9 active torsions:
REMARK  status: ('A' for Active; 'I' for Inactive)
REMARK    1  A    between atoms: C_1  and  C_2
REMARK    2  A    between atoms: N_4  and  C_5
REMARK    3  A    between atoms: C_5  and  C_6
REMARK    4  A    between atoms: C_6  and  C_7
REMARK    5  A    between atoms: N_15  and  C_16
REMARK    6  A    between atoms: C_16  and  C_17
REMARK    7  A    between atoms: C_20  and  C_21
REMARK    8  A    between atoms: C_21  and  C_22
REMARK    9  A    between atoms: C_21  and  C_23
REMARK                            x       y       z     vdW  Elec       q    Type
REMARK                         _______ _______ _______ _____ _____    ______ ____
ROOT
ATOM      1  C   UNL     1       3.800   5.181  17.288  0.00  0.00    +0.000 A 
ATOM      2  N   UNL     1       3.464   3.945  16.976  0.00  0.00    +0.000 NA
ATOM      3  C   UNL     1       2.625   3.520  17.971  0.00  0.00    +0.000 A 
ATOM      4  C   UNL     1       2.005   2.275  18.137  0.00  0.00    +0.000 A 
ATOM      5  C   UNL     1       1.176   2.074  19.247  0.00  0.00    +0.000 A 
ATOM      6  C   UNL     1       0.958   3.102  20.165  0.00  0.00    +0.000 A 
ATOM      7  C   UNL     1       1.570   4.352  20.015  0.00  0.00    +0.000 A 
ATOM      8  C   UNL     1       2.417   4.524  18.912  0.00  0.00    +0.000 A 
ATOM      9  N   UNL     1       3.231   5.556  18.491  0.00  0.00    +0.000 N 
ENDROOT
BRANCH   1  10
ATOM     10  C   UNL     1       4.710   6.049  16.484  0.00  0.00    +0.000 C 
BRANCH  10  11
ATOM     11  C   UNL     1       6.161   5.949  16.963  0.00  0.00    +0.000 C 
BRANCH  11  15
ATOM     12  C   UNL     1       8.272   8.930  17.963  0.00  0.00    +0.000 C 
ATOM     13  C   UNL     1       7.765   7.516  18.003  0.00  0.00    +0.000 C 
ATOM     14  O   UNL     1       8.185   6.689  18.805  0.00  0.00    +0.000 OA
ATOM     15  N   UNL     1       6.804   7.249  17.056  0.00  0.00    +0.000 N 
ATOM     16  H   UNL     1       6.457   7.998  16.470  0.00  0.00    +0.000 HD
ENDBRANCH  11  15
ENDBRANCH  10  11
ENDBRANCH   1  10
BRANCH   9  17
ATOM     17  C   UNL     1       3.511   6.777  19.244  0.00  0.00    +0.000 C 
BRANCH  17  18
ATOM     18  C   UNL     1       2.359   7.750  19.142  0.00  0.00    +0.000 A 
ATOM     19  C   UNL     1       2.047   8.379  17.930  0.00  0.00    +0.000 A 
ATOM     20  C   UNL     1       1.093   9.403  17.884  0.00  0.00    +0.000 A 
ATOM     21  C   UNL     1       0.430   9.820  19.047  0.00  0.00    +0.000 A 
ATOM     22  C   UNL     1       0.670   9.120  20.235  0.00  0.00    +0.000 A 
ATOM     23  C   UNL     1       1.616   8.096  20.280  0.00  0.00    +0.000 A 
BRANCH  21  24
ATOM     24  C   UNL     1      -0.447  11.060  19.026  0.00  0.00    +0.000 C 
ATOM     25  C   UNL     1      -1.640  10.927  18.079  0.00  0.00    +0.000 C 
ATOM     26  C   UNL     1      -0.918  11.407  20.445  0.00  0.00    +0.000 C 
ENDBRANCH  21  24
ENDBRANCH  17  18
ENDBRANCH   9  17
TORSDOF 6
ENDMDL
MODEL 5
REMARK VINA RESULT:      -8.2      1.504      2.375
REMARK  Name = 
REMARK  9 active torsions:
REMARK  status: ('A' for Active; 'I' for Inactive)
REMARK    1  A    between atoms: C_1  and  C_2
REMARK    2  A    between atoms: N_4  and  C_5
REMARK    3  A    between atoms: C_5  and  C_6
REMARK    4  A    between atoms: C_6  and  C_7
REMARK    5  A    between atoms: N_15  and  C_16
REMARK    6  A    between atoms: C_16  and  C_17
REMARK    7  A    between atoms: C_20  and  C_21
REMARK    8  A    between atoms: C_21  and  C_22
REMARK    9  A    between atoms: C_21  and  C_23
REMARK                            x       y       z     vdW  Elec       q    Type
REMARK                         _______ _______ _______ _____ _____    ______ ____
ROOT
ATOM      1  C   UNL     1       3.602   5.919  17.804  0.00  0.00    +0.000 A 
ATOM      2  N   UNL     1       3.443   4.739  17.239  0.00  0.00    +0.000 NA
ATOM      3  C   UNL     1       2.555   4.059  18.029  0.00  0.00    +0.000 A 
ATOM      4  C   UNL     1       2.066   2.753  17.893  0.00  0.00    +0.000 A 
ATOM      5  C   UNL     1       1.150   2.272  18.836  0.00  0.00    +0.000 A 
ATOM      6  C   UNL     1       0.720   3.084  19.886  0.00  0.00    +0.000 A 
ATOM      7  C   UNL     1       1.198   4.391  20.037  0.00  0.00    +0.000 A 
ATOM      8  C   UNL     1       2.135   4.845  19.098  0.00  0.00    +0.000 A 
ATOM      9  N   UNL     1       2.867   6.007  18.971  0.00  0.00    +0.000 N 
ENDROOT
BRANCH   1  10
ATOM     10  C   UNL     1       4.489   7.003  17.287  0.00  0.00    +0.000 C 
BRANCH  10  11
ATOM     11  C   UNL     1       5.882   6.475  16.931  0.00  0.00    +0.000 C 
BRANCH  11  15
ATOM     12  C   UNL     1       6.767   4.405  13.886  0.00  0.00    +0.000 C 
ATOM     13  C   UNL     1       6.882   4.916  15.294  0.00  0.00    +0.000 C 
ATOM     14  O   UNL     1       7.758   4.534  16.064  0.00  0.00    +0.000 OA
ATOM     15  N   UNL     1       5.913   5.834  15.626  0.00  0.00    +0.000 N 
ATOM     16  H   UNL     1       5.262   6.153  14.920  0.00  0.00    +0.000 HD
ENDBRANCH  11  15
ENDBRANCH  10  11
ENDBRANCH   1  10
BRANCH   9  17
ATOM     17  C   UNL     1       2.925   7.085  19.957  0.00  0.00    +0.000 C 
BRANCH  17  18
ATOM     18  C   UNL     1       1.915   8.164  19.637  0.00  0.00    +0.000 A 
ATOM     19  C   UNL     1       1.019   8.628  20.609  0.00  0.00    +0.000 A 
ATOM     20  C   UNL     1      -0.021   9.499  20.260  0.00  0.00    +0.000 A 
ATOM     21  C   UNL     1      -0.188   9.925  18.935  0.00  0.00    +0.000 A 
ATOM     22  C   UNL     1       0.770   9.540  17.988  0.00  0.00    +0.000 A 
ATOM     23  C   UNL     1       1.808   8.677  18.336  0.00  0.00    +0.000 A 
BRANCH  21  24
ATOM     24  C   UNL     1      -1.430  10.700  18.530  0.00  0.00    +0.000 C 
ATOM     25  C   UNL     1      -1.147  12.180  18.272  0.00  0.00    +0.000 C 
ATOM     26  C   UNL     1      -2.089  10.053  17.304  0.00  0.00    +0.000 C 
ENDBRANCH  21  24
ENDBRANCH  17  18
ENDBRANCH   9  17
TORSDOF 6
ENDMDL
MODEL 6
REMARK VINA RESULT:      -8.1      2.105      4.638
REMARK  Name = 
REMARK  9 active torsions:
REMARK  status: ('A' for Active; 'I' for Inactive)
REMARK    1  A    between atoms: C_1  and  C_2
REMARK    2  A    between atoms: N_4  and  C_5
REMARK    3  A    between atoms: C_5  and  C_6
REMARK    4  A    between atoms: C_6  and  C_7
REMARK    5  A    between atoms: N_15  and  C_16
REMARK    6  A    between atoms: C_16  and  C_17
REMARK    7  A    between atoms: C_20  and  C_21
REMARK    8  A    between atoms: C_21  and  C_22
REMARK    9  A    between atoms: C_21  and  C_23
REMARK                            x       y       z     vdW  Elec       q    Type
REMARK                         _______ _______ _______ _____ _____    ______ ____
ROOT
ATOM      1  C   UNL     1       2.974   4.414  17.683  0.00  0.00    +0.000 A 
ATOM      2  N   UNL     1       3.761   4.092  16.675  0.00  0.00    +0.000 NA
ATOM      3  C   UNL     1       5.025   4.462  17.052  0.00  0.00    +0.000 A 
ATOM      4  C   UNL     1       6.227   4.367  16.338  0.00  0.00    +0.000 A 
ATOM      5  C   UNL     1       7.409   4.814  16.940  0.00  0.00    +0.000 A 
ATOM      6  C   UNL     1       7.394   5.330  18.236  0.00  0.00    +0.000 A 
ATOM      7  C   UNL     1       6.203   5.432  18.964  0.00  0.00    +0.000 A 
ATOM      8  C   UNL     1       5.026   5.005  18.333  0.00  0.00    +0.000 A 
ATOM      9  N   UNL     1       3.694   5.025  18.692  0.00  0.00    +0.000 N 
ENDROOT
BRANCH   1  10
ATOM     10  C   UNL     1       1.498   4.195  17.718  0.00  0.00    +0.000 C 
BRANCH  10  11
ATOM     11  C   UNL     1       1.141   2.820  18.290  0.00  0.00    +0.000 C 
BRANCH  11  15
ATOM     12  C   UNL     1       1.457   2.566  22.055  0.00  0.00    +0.000 C 
ATOM     13  C   UNL     1       1.900   2.499  20.622  0.00  0.00    +0.000 C 
ATOM     14  O   UNL     1       3.033   2.161  20.297  0.00  0.00    +0.000 OA
ATOM     15  N   UNL     1       0.919   2.861  19.727  0.00  0.00    +0.000 N 
ATOM     16  H   UNL     1      -0.014   3.065  20.062  0.00  0.00    +0.000 HD
ENDBRANCH  11  15
ENDBRANCH  10  11
ENDBRANCH   1  10
BRANCH   9  17
ATOM     17  C   UNL     1       3.146   5.674  19.882  0.00  0.00    +0.000 C 
BRANCH  17  18
ATOM     18  C   UNL     1       2.539   7.015  19.533  0.00  0.00    +0.000 A 
ATOM     19  C   UNL     1       1.806   7.745  20.478  0.00  0.00    +0.000 A 
ATOM     20  C   UNL     1       1.106   8.897  20.100  0.00  0.00    +0.000 A 
ATOM     21  C   UNL     1       1.125   9.346  18.772  0.00  0.00    +0.000 A 
ATOM     22  C   UNL     1       1.942   8.673  17.855  0.00  0.00    +0.000 A 
ATOM     23  C   UNL     1       2.643   7.528  18.233  0.00  0.00    +0.000 A 
BRANCH  21  24
ATOM     24  C   UNL     1       0.205  10.472  18.330  0.00  0.00    +0.000 C 
ATOM     25  C   UNL     1      -1.057   9.967  17.632  0.00  0.00    +0.000 C 
ATOM     26  C   UNL     1      -0.156  11.367  19.523  0.00  0.00    +0.000 C 
ENDBRANCH  21  24
ENDBRANCH  17  18
ENDBRANCH   9  17
TORSDOF 6
ENDMDL
MODEL 7
REMARK VINA RESULT:      -8.0      1.415      2.247
REMARK  Name = 
REMARK  9 active torsions:
REMARK  status: ('A' for Active; 'I' for Inactive)
REMARK    1  A    between atoms: C_1  and  C_2
REMARK    2  A    between atoms: N_4  and  C_5
REMARK    3  A    between atoms: C_5  and  C_6
REMARK    4  A    between atoms: C_6  and  C_7
REMARK    5  A    between atoms: N_15  and  C_16
REMARK    6  A    between atoms: C_16  and  C_17
REMARK    7  A    between atoms: C_20  and  C_21
REMARK    8  A    between atoms: C_21  and  C_22
REMARK    9  A    between atoms: C_21  and  C_23
REMARK                            x       y       z     vdW  Elec       q    Type
REMARK                         _______ _______ _______ _____ _____    ______ ____
ROOT
ATOM      1  C   UNL     1       3.701   4.746  17.217  0.00  0.00    +0.000 A 
ATOM      2  N   UNL     1       3.231   3.528  17.032  0.00  0.00    +0.000 NA
ATOM      3  C   UNL     1       2.400   3.279  18.092  0.00  0.00    +0.000 A 
ATOM      4  C   UNL     1       1.670   2.123  18.394  0.00  0.00    +0.000 A 
ATOM      5  C   UNL     1       0.877   2.105  19.548  0.00  0.00    +0.000 A 
ATOM      6  C   UNL     1       0.804   3.226  20.375  0.00  0.00    +0.000 A 
ATOM      7  C   UNL     1       1.527   4.389  20.089  0.00  0.00    +0.000 A 
ATOM      8  C   UNL     1       2.335   4.378  18.944  0.00  0.00    +0.000 A 
ATOM      9  N   UNL     1       3.226   5.280  18.400  0.00  0.00    +0.000 N 
ENDROOT
BRANCH   1  10
ATOM     10  C   UNL     1       4.654   5.443  16.304  0.00  0.00    +0.000 C 
BRANCH  10  11
ATOM     11  C   UNL     1       6.034   4.780  16.310  0.00  0.00    +0.000 C 
BRANCH  11  15
ATOM     12  C   UNL     1       8.096   6.105  19.196  0.00  0.00    +0.000 C 
ATOM     13  C   UNL     1       7.406   6.129  17.863  0.00  0.00    +0.000 C 
ATOM     14  O   UNL     1       7.444   7.103  17.118  0.00  0.00    +0.000 OA
ATOM     15  N   UNL     1       6.730   4.966  17.572  0.00  0.00    +0.000 N 
ATOM     16  H   UNL     1       6.797   4.178  18.203  0.00  0.00    +0.000 HD
ENDBRANCH  11  15
ENDBRANCH  10  11
ENDBRANCH   1  10
BRANCH   9  17
ATOM     17  C   UNL     1       3.660   6.527  19.028  0.00  0.00    +0.000 C 
BRANCH  17  18
ATOM     18  C   UNL     1       2.550   7.554  19.010  0.00  0.00    +0.000 A 
ATOM     19  C   UNL     1       2.216   8.238  17.834  0.00  0.00    +0.000 A 
ATOM     20  C   UNL     1       1.309   9.305  17.864  0.00  0.00    +0.000 A 
ATOM     21  C   UNL     1       0.716   9.711  19.068  0.00  0.00    +0.000 A 
ATOM     22  C   UNL     1       0.974   8.959  20.221  0.00  0.00    +0.000 A 
ATOM     23  C   UNL     1       1.873   7.893  20.190  0.00  0.00    +0.000 A 
BRANCH  21  24
ATOM     24  C   UNL     1      -0.103  10.988  19.127  0.00  0.00    +0.000 C 
ATOM     25  C   UNL     1       0.720  12.236  18.807  0.00  0.00    +0.000 C 
ATOM     26  C   UNL     1      -1.319  10.888  18.197  0.00  0.00    +0.000 C 
ENDBRANCH  21  24
ENDBRANCH  17  18
ENDBRANCH   9  17
TORSDOF 6
ENDMDL
MODEL 8
REMARK VINA RESULT:      -8.0      2.170      4.647
REMARK  Name = 
REMARK  9 active torsions:
REMARK  status: ('A' for Active; 'I' for Inactive)
REMARK    1  A    between atoms: C_1  and  C_2
REMARK    2  A    between atoms: N_4  and  C_5
REMARK    3  A    between atoms: C_5  and  C_6
REMARK    4  A    between atoms: C_6  and  C_7
REMARK    5  A    between atoms: N_15  and  C_16
REMARK    6  A    between atoms: C_16  and  C_17
REMARK    7  A    between atoms: C_20  and  C_21
REMARK    8  A    between atoms: C_21  and  C_22
REMARK    9  A    between atoms: C_21  and  C_23
REMARK                            x       y       z     vdW  Elec       q    Type
REMARK                         _______ _______ _______ _____ _____    ______ ____
ROOT
ATOM      1  C   UNL     1       2.943   4.386  17.722  0.00  0.00    +0.000 A 
ATOM      2  N   UNL     1       3.658   3.977  16.693  0.00  0.00    +0.000 NA
ATOM      3  C   UNL     1       4.950   4.343  16.962  0.00  0.00    +0.000 A 
ATOM      4  C   UNL     1       6.102   4.170  16.183  0.00  0.00    +0.000 A 
ATOM      5  C   UNL     1       7.328   4.630  16.677  0.00  0.00    +0.000 A 
ATOM      6  C   UNL     1       7.406   5.236  17.931  0.00  0.00    +0.000 A 
ATOM      7  C   UNL     1       6.266   5.416  18.723  0.00  0.00    +0.000 A 
ATOM      8  C   UNL     1       5.043   4.974  18.199  0.00  0.00    +0.000 A 
ATOM      9  N   UNL     1       3.738   5.050  18.639  0.00  0.00    +0.000 N 
ENDROOT
BRANCH   1  10
ATOM     10  C   UNL     1       1.468   4.205  17.865  0.00  0.00    +0.000 C 
BRANCH  10  11
ATOM     11  C   UNL     1       1.117   2.820  18.416  0.00  0.00    +0.000 C 
BRANCH  11  15
ATOM     12  C   UNL     1       1.293   2.613  22.193  0.00  0.00    +0.000 C 
ATOM     13  C   UNL     1       1.800   2.576  20.780  0.00  0.00    +0.000 C 
ATOM     14  O   UNL     1       2.970   2.333  20.506  0.00  0.00    +0.000 OA
ATOM     15  N   UNL     1       0.831   2.849  19.841  0.00  0.00    +0.000 N 
ATOM     16  H   UNL     1      -0.129   2.976  20.135  0.00  0.00    +0.000 HD
ENDBRANCH  11  15
ENDBRANCH  10  11
ENDBRANCH   1  10
BRANCH   9  17
ATOM     17  C   UNL     1       3.279   5.793  19.810  0.00  0.00    +0.000 C 
BRANCH  17  18
ATOM     18  C   UNL     1       2.527   7.039  19.399  0.00  0.00    +0.000 A 
ATOM     19  C   UNL     1       2.697   7.600  18.126  0.00  0.00    +0.000 A 
ATOM     20  C   UNL     1       2.132   8.843  17.815  0.00  0.00    +0.000 A 
ATOM     21  C   UNL     1       1.385   9.551  18.767  0.00  0.00    +0.000 A 
ATOM     22  C   UNL     1       1.131   8.939  20.001  0.00  0.00    +0.000 A 
ATOM     23  C   UNL     1       1.690   7.699  20.309  0.00  0.00    +0.000 A 
BRANCH  21  24
ATOM     24  C   UNL     1       0.950  10.980  18.491  0.00  0.00    +0.000 C 
ATOM     25  C   UNL     1      -0.066  11.498  19.509  0.00  0.00    +0.000 C 
ATOM     26  C   UNL     1       2.171  11.907  18.425  0.00  0.00    +0.000 C 
ENDBRANCH  21  24
ENDBRANCH  17  18
ENDBRANCH   9  17
TORSDOF 6
ENDMDL
MODEL 9
REMARK VINA RESULT:      -8.0      1.789      2.656
REMARK  Name = 
REMARK  9 active torsions:
REMARK  status: ('A' for Active; 'I' for Inactive)
REMARK    1  A    between atoms: C_1  and  C_2
REMARK    2  A    between atoms: N_4  and  C_5
REMARK    3  A    between atoms: C_5  and  C_6
REMARK    4  A    between atoms: C_6  and  C_7
REMARK    5  A    between atoms: N_15  and  C_16
REMARK    6  A    between atoms: C_16  and  C_17
REMARK    7  A    between atoms: C_20  and  C_21
REMARK    8  A    between atoms: C_21  and  C_22
REMARK    9  A    between atoms: C_21  and  C_23
REMARK                            x       y       z     vdW  Elec       q    Type
REMARK                         _______ _______ _______ _____ _____    ______ ____
ROOT
ATOM      1  C   UNL     1       3.686   4.922  17.226  0.00  0.00    +0.000 A 
ATOM      2  N   UNL     1       3.192   3.719  17.004  0.00  0.00    +0.000 NA
ATOM      3  C   UNL     1       2.366   3.449  18.063  0.00  0.00    +0.000 A 
ATOM      4  C   UNL     1       1.617   2.296  18.331  0.00  0.00    +0.000 A 
ATOM      5  C   UNL     1       0.834   2.253  19.491  0.00  0.00    +0.000 A 
ATOM      6  C   UNL     1       0.787   3.346  20.356  0.00  0.00    +0.000 A 
ATOM      7  C   UNL     1       1.529   4.506  20.104  0.00  0.00    +0.000 A 
ATOM      8  C   UNL     1       2.328   4.519  18.952  0.00  0.00    +0.000 A 
ATOM      9  N   UNL     1       3.230   5.424  18.431  0.00  0.00    +0.000 N 
ENDROOT
BRANCH   1  10
ATOM     10  C   UNL     1       4.643   5.633  16.329  0.00  0.00    +0.000 C 
BRANCH  10  11
ATOM     11  C   UNL     1       6.087   5.506  16.824  0.00  0.00    +0.000 C 
BRANCH  11  15
ATOM     12  C   UNL     1       8.168   8.475  17.914  0.00  0.00    +0.000 C 
ATOM     13  C   UNL     1       7.626   7.075  17.955  0.00  0.00    +0.000 C 
ATOM     14  O   UNL     1       7.951   6.268  18.820  0.00  0.00    +0.000 OA
ATOM     15  N   UNL     1       6.749   6.795  16.932  0.00  0.00    +0.000 N 
ATOM     16  H   UNL     1       6.476   7.530  16.293  0.00  0.00    +0.000 HD
ENDBRANCH  11  15
ENDBRANCH  10  11
ENDBRANCH   1  10
BRANCH   9  17
ATOM     17  C   UNL     1       3.691   6.641  19.097  0.00  0.00    +0.000 C 
BRANCH  17  18
ATOM     18  C   UNL     1       2.642   7.727  19.021  0.00  0.00    +0.000 A 
ATOM     19  C   UNL     1       1.870   8.067  20.140  0.00  0.00    +0.000 A 
ATOM     20  C   UNL     1       0.789   8.948  20.017  0.00  0.00    +0.000 A 
ATOM     21  C   UNL     1       0.456   9.510  18.777  0.00  0.00    +0.000 A 
ATOM     22  C   UNL     1       1.293   9.249  17.684  0.00  0.00    +0.000 A 
ATOM     23  C   UNL     1       2.373   8.375  17.807  0.00  0.00    +0.000 A 
BRANCH  21  24
ATOM     24  C   UNL     1      -0.831  10.300  18.612  0.00  0.00    +0.000 C 
ATOM     25  C   UNL     1      -0.606  11.811  18.633  0.00  0.00    +0.000 C 
ATOM     26  C   UNL     1      -1.558   9.877  17.329  0.00  0.00    +0.000 C 
ENDBRANCH  21  24
ENDBRANCH  17  18
ENDBRANCH   9  17
TORSDOF 6
ENDMDL
