MODEL 1
REMARK VINA RESULT:      -7.7      0.000      0.000
REMARK  Name = 
REMARK  6 active torsions:
REMARK  status: ('A' for Active; 'I' for Inactive)
REMARK    1  A    between atoms: C_1  and  O_2
REMARK    2  A    between atoms: O_2  and  C_3
REMARK    3  A    between atoms: C_6  and  C_7
REMARK    4  A    between atoms: C_7  and  C_8
REMARK    5  A    between atoms: C_8  and  C_9
REMARK    6  A    between atoms: C_9  and  N_10
REMARK                            x       y       z     vdW  Elec       q    Type
REMARK                         _______ _______ _______ _____ _____    ______ ____
ROOT
ATOM      1  N   UNL     1       3.226   5.404  17.717  0.00  0.00    +0.000 N 
ATOM      2  C   UNL     1       4.643   5.545  17.561  0.00  0.00    +0.000 A 
ATOM      3  C   UNL     1       5.215   6.797  17.243  0.00  0.00    +0.000 A 
ATOM      4  C   UNL     1       6.598   7.018  17.291  0.00  0.00    +0.000 A 
ATOM      5  C   UNL     1       7.453   5.978  17.630  0.00  0.00    +0.000 A 
ATOM      6  C   UNL     1       6.930   4.702  17.793  0.00  0.00    +0.000 A 
ATOM      7  C   UNL     1       5.550   4.491  17.699  0.00  0.00    +0.000 A 
ATOM      8  O   UNL     1       5.146   3.191  17.638  0.00  0.00    +0.000 OA
ATOM      9  S   UNL     1       4.428   2.548  18.932  0.00  0.00    +0.000 S 
ATOM     10  O   UNL     1       5.215   2.835  20.126  0.00  0.00    +0.000 OA
ATOM     11  O   UNL     1       4.087   1.173  18.592  0.00  0.00    +0.000 OA
ATOM     12  C   UNL     1       2.897   3.385  19.119  0.00  0.00    +0.000 A 
ATOM     13  C   UNL     1       1.982   2.710  19.936  0.00  0.00    +0.000 A 
ATOM     14  C   UNL     1       0.665   2.649  19.534  0.00  0.00    +0.000 A 
ATOM     15  C   UNL     1       0.329   3.328  18.379  0.00  0.00    +0.000 A 
ATOM     16  N   UNL     1       1.167   4.185  17.734  0.00  0.00    +0.000 NA
ATOM     17  C   UNL     1       2.472   4.241  18.110  0.00  0.00    +0.000 A 
ENDROOT
BRANCH   1  18
ATOM     18  C   UNL     1       2.687   6.538  18.543  0.00  0.00    +0.000 C 
BRANCH  18  19
ATOM     19  C   UNL     1       1.742   7.440  17.757  0.00  0.00    +0.000 C 
BRANCH  19  20
ATOM     20  C   UNL     1       2.083   8.918  18.022  0.00  0.00    +0.000 C 
BRANCH  20  24
ATOM     21  C   UNL     1      -0.531  10.923  20.830  0.00  0.00    +0.000 A 
ATOM     22  C   UNL     1       0.186   9.795  21.223  0.00  0.00    +0.000 A 
ATOM     23  C   UNL     1       1.049   9.156  20.334  0.00  0.00    +0.000 A 
ATOM     24  C   UNL     1       1.176   9.605  19.013  0.00  0.00    +0.000 A 
ATOM     25  C   UNL     1       0.462  10.750  18.628  0.00  0.00    +0.000 A 
ATOM     26  C   UNL     1      -0.391  11.399  19.527  0.00  0.00    +0.000 A 
BRANCH  21  28
ATOM     27  C   UNL     1      -1.212  10.884  23.085  0.00  0.00    +0.000 C 
ATOM     28  O   UNL     1      -1.367  11.433  21.783  0.00  0.00    +0.000 OA
ENDBRANCH  21  28
ENDBRANCH  20  24
ENDBRANCH  19  20
ENDBRANCH  18  19
ENDBRANCH   1  18
TORSDOF 5
ENDMDL
MODEL 2
REMARK VINA RESULT:      -7.7      1.460      1.849
REMARK  Name = 
REMARK  6 active torsions:
REMARK  status: ('A' for Active; 'I' for Inactive)
REMARK    1  A    between atoms: C_1  and  O_2
REMARK    2  A    between atoms: O_2  and  C_3
REMARK    3  A    between atoms: C_6  and  C_7
REMARK    4  A    between atoms: C_7  and  C_8
REMARK    5  A    between atoms: C_8  and  C_9
REMARK    6  A    between atoms: C_9  and  N_10
REMARK                            x       y       z     vdW  Elec       q    Type
REMARK                         _______ _______ _______ _____ _____    ______ ____
ROOT
ATOM      1  N   UNL     1       2.690   5.503  18.669  0.00  0.00    +0.000 N 
ATOM      2  C   UNL     1       3.694   5.589  17.652  0.00  0.00    +0.000 A 
ATOM      3  C   UNL     1       4.053   6.835  17.091  0.00  0.00    +0.000 A 
ATOM      4  C   UNL     1       5.168   6.984  16.257  0.00  0.00    +0.000 A 
ATOM      5  C   UNL     1       5.940   5.878  15.931  0.00  0.00    +0.000 A 
ATOM      6  C   UNL     1       5.521   4.620  16.340  0.00  0.00    +0.000 A 
ATOM      7  C   UNL     1       4.379   4.484  17.138  0.00  0.00    +0.000 A 
ATOM      8  O   UNL     1       3.906   3.217  17.298  0.00  0.00    +0.000 OA
ATOM      9  S   UNL     1       4.111   2.494  18.726  0.00  0.00    +0.000 S 
ATOM     10  O   UNL     1       5.499   2.633  19.155  0.00  0.00    +0.000 OA
ATOM     11  O   UNL     1       3.503   1.174  18.627  0.00  0.00    +0.000 OA
ATOM     12  C   UNL     1       3.131   3.384  19.878  0.00  0.00    +0.000 A 
ATOM     13  C   UNL     1       2.880   2.681  21.063  0.00  0.00    +0.000 A 
ATOM     14  C   UNL     1       1.607   2.721  21.591  0.00  0.00    +0.000 A 
ATOM     15  C   UNL     1       0.683   3.517  20.943  0.00  0.00    +0.000 A 
ATOM     16  N   UNL     1       1.001   4.388  19.946  0.00  0.00    +0.000 NA
ATOM     17  C   UNL     1       2.248   4.347  19.406  0.00  0.00    +0.000 A 
ENDROOT
BRANCH   1  18
ATOM     18  C   UNL     1       2.906   6.582  19.693  0.00  0.00    +0.000 C 
BRANCH  18  19
ATOM     19  C   UNL     1       1.755   7.582  19.743  0.00  0.00    +0.000 C 
BRANCH  19  20
ATOM     20  C   UNL     1       1.306   7.794  21.200  0.00  0.00    +0.000 C 
BRANCH  20  24
ATOM     21  C   UNL     1      -1.045  11.376  21.814  0.00  0.00    +0.000 A 
ATOM     22  C   UNL     1      -0.791  10.514  22.879  0.00  0.00    +0.000 A 
ATOM     23  C   UNL     1      -0.014   9.370  22.697  0.00  0.00    +0.000 A 
ATOM     24  C   UNL     1       0.485   9.038  21.431  0.00  0.00    +0.000 A 
ATOM     25  C   UNL     1       0.237   9.918  20.366  0.00  0.00    +0.000 A 
ATOM     26  C   UNL     1      -0.529  11.074  20.555  0.00  0.00    +0.000 A 
BRANCH  21  28
ATOM     27  C   UNL     1      -1.977  13.414  21.088  0.00  0.00    +0.000 C 
ATOM     28  O   UNL     1      -1.847  12.440  22.116  0.00  0.00    +0.000 OA
ENDBRANCH  21  28
ENDBRANCH  20  24
ENDBRANCH  19  20
ENDBRANCH  18  19
ENDBRANCH   1  18
TORSDOF 5
ENDMDL
MODEL 3
REMARK VINA RESULT:      -7.6      0.852      1.278
REMARK  Name = 
REMARK  6 active torsions:
REMARK  status: ('A' for Active; 'I' for Inactive)
REMARK    1  A    between atoms: C_1  and  O_2
REMARK    2  A    between atoms: O_2  and  C_3
REMARK    3  A    between atoms: C_6  and  C_7
REMARK    4  A    between atoms: C_7  and  C_8
REMARK    5  A    between atoms: C_8  and  C_9
REMARK    6  A    between atoms: C_9  and  N_10
REMARK                            x       y       z     vdW  Elec       q    Type
REMARK                         _______ _______ _______ _____ _____    ______ ____
ROOT
ATOM      1  N   UNL     1       3.209   5.407  17.741  0.00  0.00    +0.000 N 
ATOM      2  C   UNL     1       4.626   5.548  17.588  0.00  0.00    +0.000 A 
ATOM      3  C   UNL     1       5.198   6.799  17.264  0.00  0.00    +0.000 A 
ATOM      4  C   UNL     1       6.581   7.021  17.315  0.00  0.00    +0.000 A 
ATOM      5  C   UNL     1       7.435   5.984  17.662  0.00  0.00    +0.000 A 
ATOM      6  C   UNL     1       6.913   4.709  17.831  0.00  0.00    +0.000 A 
ATOM      7  C   UNL     1       5.533   4.496  17.734  0.00  0.00    +0.000 A 
ATOM      8  O   UNL     1       5.130   3.195  17.680  0.00  0.00    +0.000 OA
ATOM      9  S   UNL     1       4.409   2.559  18.976  0.00  0.00    +0.000 S 
ATOM     10  O   UNL     1       5.194   2.854  20.171  0.00  0.00    +0.000 OA
ATOM     11  O   UNL     1       4.070   1.182  18.643  0.00  0.00    +0.000 OA
ATOM     12  C   UNL     1       2.877   3.396  19.153  0.00  0.00    +0.000 A 
ATOM     13  C   UNL     1       1.961   2.725  19.972  0.00  0.00    +0.000 A 
ATOM     14  C   UNL     1       0.645   2.661  19.567  0.00  0.00    +0.000 A 
ATOM     15  C   UNL     1       0.312   3.333  18.408  0.00  0.00    +0.000 A 
ATOM     16  N   UNL     1       1.151   4.187  17.759  0.00  0.00    +0.000 NA
ATOM     17  C   UNL     1       2.455   4.246  18.138  0.00  0.00    +0.000 A 
ENDROOT
BRANCH   1  18
ATOM     18  C   UNL     1       2.667   6.546  18.559  0.00  0.00    +0.000 C 
BRANCH  18  19
ATOM     19  C   UNL     1       1.807   7.501  17.739  0.00  0.00    +0.000 C 
BRANCH  19  20
ATOM     20  C   UNL     1       2.101   8.956  18.147  0.00  0.00    +0.000 C 
BRANCH  20  24
ATOM     21  C   UNL     1      -1.336  11.198  19.522  0.00  0.00    +0.000 A 
ATOM     22  C   UNL     1      -1.314  10.672  18.232  0.00  0.00    +0.000 A 
ATOM     23  C   UNL     1      -0.222   9.928  17.788  0.00  0.00    +0.000 A 
ATOM     24  C   UNL     1       0.895   9.736  18.611  0.00  0.00    +0.000 A 
ATOM     25  C   UNL     1       0.860  10.256  19.913  0.00  0.00    +0.000 A 
ATOM     26  C   UNL     1      -0.245  10.989  20.363  0.00  0.00    +0.000 A 
BRANCH  21  28
ATOM     27  C   UNL     1      -2.191  13.241  20.325  0.00  0.00    +0.000 C 
ATOM     28  O   UNL     1      -2.447  11.937  19.822  0.00  0.00    +0.000 OA
ENDBRANCH  21  28
ENDBRANCH  20  24
ENDBRANCH  19  20
ENDBRANCH  18  19
ENDBRANCH   1  18
TORSDOF 5
ENDMDL
MODEL 4
REMARK VINA RESULT:      -7.6      1.585      2.238
REMARK  Name = 
REMARK  6 active torsions:
REMARK  status: ('A' for Active; 'I' for Inactive)
REMARK    1  A    between atoms: C_1  and  O_2
REMARK    2  A    between atoms: O_2  and  C_3
REMARK    3  A    between atoms: C_6  and  C_7
REMARK    4  A    between atoms: C_7  and  C_8
REMARK    5  A    between atoms: C_8  and  C_9
REMARK    6  A    between atoms: C_9  and  N_10
REMARK                            x       y       z     vdW  Elec       q    Type
REMARK                         _______ _______ _______ _____ _____    ______ ____
ROOT
ATOM      1  N   UNL     1       2.455   5.587  18.993  0.00  0.00    +0.000 N 
ATOM      2  C   UNL     1       3.367   5.837  17.917  0.00  0.00    +0.000 A 
ATOM      3  C   UNL     1       3.582   7.149  17.439  0.00  0.00    +0.000 A 
ATOM      4  C   UNL     1       4.613   7.456  16.542  0.00  0.00    +0.000 A 
ATOM      5  C   UNL     1       5.441   6.447  16.070  0.00  0.00    +0.000 A 
ATOM      6  C   UNL     1       5.154   5.130  16.400  0.00  0.00    +0.000 A 
ATOM      7  C   UNL     1       4.093   4.837  17.264  0.00  0.00    +0.000 A 
ATOM      8  O   UNL     1       3.734   3.525  17.349  0.00  0.00    +0.000 OA
ATOM      9  S   UNL     1       4.106   2.713  18.693  0.00  0.00    +0.000 S 
ATOM     10  O   UNL     1       5.508   2.934  19.031  0.00  0.00    +0.000 OA
ATOM     11  O   UNL     1       3.596   1.358  18.527  0.00  0.00    +0.000 OA
ATOM     12  C   UNL     1       3.153   3.424  19.984  0.00  0.00    +0.000 A 
ATOM     13  C   UNL     1       3.051   2.613  21.120  0.00  0.00    +0.000 A 
ATOM     14  C   UNL     1       1.824   2.503  21.739  0.00  0.00    +0.000 A 
ATOM     15  C   UNL     1       0.793   3.268  21.229  0.00  0.00    +0.000 A 
ATOM     16  N   UNL     1       0.963   4.238  20.289  0.00  0.00    +0.000 NA
ATOM     17  C   UNL     1       2.163   4.344  19.659  0.00  0.00    +0.000 A 
ENDROOT
BRANCH   1  18
ATOM     18  C   UNL     1       2.666   6.597  20.086  0.00  0.00    +0.000 C 
BRANCH  18  19
ATOM     19  C   UNL     1       1.614   7.702  20.075  0.00  0.00    +0.000 C 
BRANCH  19  20
ATOM     20  C   UNL     1       1.286   8.129  21.517  0.00  0.00    +0.000 C 
BRANCH  20  24
ATOM     21  C   UNL     1      -1.343  11.548  21.881  0.00  0.00    +0.000 A 
ATOM     22  C   UNL     1      -0.818  11.197  20.639  0.00  0.00    +0.000 A 
ATOM     23  C   UNL     1       0.010  10.083  20.507  0.00  0.00    +0.000 A 
ATOM     24  C   UNL     1       0.371   9.324  21.627  0.00  0.00    +0.000 A 
ATOM     25  C   UNL     1      -0.172   9.675  22.873  0.00  0.00    +0.000 A 
ATOM     26  C   UNL     1      -1.016  10.784  23.000  0.00  0.00    +0.000 A 
BRANCH  21  28
ATOM     27  C   UNL     1      -2.929  12.859  20.735  0.00  0.00    +0.000 C 
ATOM     28  O   UNL     1      -2.110  12.679  21.882  0.00  0.00    +0.000 OA
ENDBRANCH  21  28
ENDBRANCH  20  24
ENDBRANCH  19  20
ENDBRANCH  18  19
ENDBRANCH   1  18
TORSDOF 5
ENDMDL
MODEL 5
REMARK VINA RESULT:      -7.6      0.863      1.224
REMARK  Name = 
REMARK  6 active torsions:
REMARK  status: ('A' for Active; 'I' for Inactive)
REMARK    1  A    between atoms: C_1  and  O_2
REMARK    2  A    between atoms: O_2  and  C_3
REMARK    3  A    between atoms: C_6  and  C_7
REMARK    4  A    between atoms: C_7  and  C_8
REMARK    5  A    between atoms: C_8  and  C_9
REMARK    6  A    between atoms: C_9  and  N_10
REMARK                            x       y       z     vdW  Elec       q    Type
REMARK                         _______ _______ _______ _____ _____    ______ ____
ROOT
ATOM      1  N   UNL     1       3.136   5.304  17.602  0.00  0.00    +0.000 N 
ATOM      2  C   UNL     1       4.543   5.544  17.483  0.00  0.00    +0.000 A 
ATOM      3  C   UNL     1       5.029   6.777  16.995  0.00  0.00    +0.000 A 
ATOM      4  C   UNL     1       6.384   7.124  17.065  0.00  0.00    +0.000 A 
ATOM      5  C   UNL     1       7.301   6.228  17.598  0.00  0.00    +0.000 A 
ATOM      6  C   UNL     1       6.875   4.952  17.939  0.00  0.00    +0.000 A 
ATOM      7  C   UNL     1       5.523   4.607  17.822  0.00  0.00    +0.000 A 
ATOM      8  O   UNL     1       5.230   3.283  17.951  0.00  0.00    +0.000 OA
ATOM      9  S   UNL     1       4.497   2.786  19.300  0.00  0.00    +0.000 S 
ATOM     10  O   UNL     1       5.193   3.322  20.465  0.00  0.00    +0.000 OA
ATOM     11  O   UNL     1       4.288   1.350  19.167  0.00  0.00    +0.000 OA
ATOM     12  C   UNL     1       2.896   3.503  19.290  0.00  0.00    +0.000 A 
ATOM     13  C   UNL     1       1.996   2.883  20.165  0.00  0.00    +0.000 A 
ATOM     14  C   UNL     1       0.712   2.645  19.724  0.00  0.00    +0.000 A 
ATOM     15  C   UNL     1       0.385   3.106  18.465  0.00  0.00    +0.000 A 
ATOM     16  N   UNL     1       1.184   3.924  17.727  0.00  0.00    +0.000 NA
ATOM     17  C   UNL     1       2.458   4.153  18.142  0.00  0.00    +0.000 A 
ENDROOT
BRANCH   1  18
ATOM     18  C   UNL     1       2.463   6.499  18.216  0.00  0.00    +0.000 C 
BRANCH  18  19
ATOM     19  C   UNL     1       2.840   6.696  19.681  0.00  0.00    +0.000 C 
BRANCH  19  20
ATOM     20  C   UNL     1       1.568   6.778  20.544  0.00  0.00    +0.000 C 
BRANCH  20  24
ATOM     21  C   UNL     1       0.357  10.814  21.533  0.00  0.00    +0.000 A 
ATOM     22  C   UNL     1       0.291   9.808  22.494  0.00  0.00    +0.000 A 
ATOM     23  C   UNL     1       0.702   8.510  22.193  0.00  0.00    +0.000 A 
ATOM     24  C   UNL     1       1.142   8.180  20.905  0.00  0.00    +0.000 A 
ATOM     25  C   UNL     1       1.218   9.201  19.946  0.00  0.00    +0.000 A 
ATOM     26  C   UNL     1       0.821  10.507  20.255  0.00  0.00    +0.000 A 
BRANCH  21  28
ATOM     27  C   UNL     1      -1.172  11.991  22.884  0.00  0.00    +0.000 C 
ATOM     28  O   UNL     1      -0.108  12.032  21.944  0.00  0.00    +0.000 OA
ENDBRANCH  21  28
ENDBRANCH  20  24
ENDBRANCH  19  20
ENDBRANCH  18  19
ENDBRANCH   1  18
TORSDOF 5
ENDMDL
MODEL 6
REMARK VINA RESULT:      -7.6      1.020      1.107
REMARK  Name = 
REMARK  6 active torsions:
REMARK  status: ('A' for Active; 'I' for Inactive)
REMARK    1  A    between atoms: C_1  and  O_2
REMARK    2  A    between atoms: O_2  and  C_3
REMARK    3  A    between atoms: C_6  and  C_7
REMARK    4  A    between atoms: C_7  and  C_8
REMARK    5  A    between atoms: C_8  and  C_9
REMARK    6  A    between atoms: C_9  and  N_10
REMARK                            x       y       z     vdW  Elec       q    Type
REMARK                         _______ _______ _______ _____ _____    ______ ____
ROOT
ATOM      1  N   UNL     1       2.873   5.357  18.046  0.00  0.00    +0.000 N 
ATOM      2  C   UNL     1       4.103   5.376  17.314  0.00  0.00    +0.000 A 
ATOM      3  C   UNL     1       4.508   6.530  16.606  0.00  0.00    +0.000 A 
ATOM      4  C   UNL     1       5.791   6.658  16.060  0.00  0.00    +0.000 A 
ATOM      5  C   UNL     1       6.700   5.615  16.179  0.00  0.00    +0.000 A 
ATOM      6  C   UNL     1       6.278   4.413  16.730  0.00  0.00    +0.000 A 
ATOM      7  C   UNL     1       4.977   4.288  17.232  0.00  0.00    +0.000 A 
ATOM      8  O   UNL     1       4.571   3.024  17.537  0.00  0.00    +0.000 OA
ATOM      9  S   UNL     1       4.439   2.613  19.092  0.00  0.00    +0.000 S 
ATOM     10  O   UNL     1       5.649   3.002  19.809  0.00  0.00    +0.000 OA
ATOM     11  O   UNL     1       3.976   1.232  19.130  0.00  0.00    +0.000 OA
ATOM     12  C   UNL     1       3.126   3.573  19.750  0.00  0.00    +0.000 A 
ATOM     13  C   UNL     1       2.619   3.080  20.958  0.00  0.00    +0.000 A 
ATOM     14  C   UNL     1       1.252   3.058  21.135  0.00  0.00    +0.000 A 
ATOM     15  C   UNL     1       0.480   3.598  20.125  0.00  0.00    +0.000 A 
ATOM     16  N   UNL     1       0.989   4.299  19.075  0.00  0.00    +0.000 NA
ATOM     17  C   UNL     1       2.334   4.314  18.880  0.00  0.00    +0.000 A 
ENDROOT
BRANCH   1  18
ATOM     18  C   UNL     1       2.729   6.627  18.837  0.00  0.00    +0.000 C 
BRANCH  18  19
ATOM     19  C   UNL     1       1.690   7.574  18.245  0.00  0.00    +0.000 C 
BRANCH  19  20
ATOM     20  C   UNL     1       1.944   9.009  18.740  0.00  0.00    +0.000 C 
BRANCH  20  24
ATOM     21  C   UNL     1      -0.516  10.252  22.077  0.00  0.00    +0.000 A 
ATOM     22  C   UNL     1       0.407   9.220  22.233  0.00  0.00    +0.000 A 
ATOM     23  C   UNL     1       1.221   8.829  21.171  0.00  0.00    +0.000 A 
ATOM     24  C   UNL     1       1.094   9.430  19.913  0.00  0.00    +0.000 A 
ATOM     25  C   UNL     1       0.173  10.478  19.766  0.00  0.00    +0.000 A 
ATOM     26  C   UNL     1      -0.632  10.881  20.838  0.00  0.00    +0.000 A 
BRANCH  21  28
ATOM     27  C   UNL     1      -1.912  11.786  23.193  0.00  0.00    +0.000 C 
ATOM     28  O   UNL     1      -1.276  10.515  23.181  0.00  0.00    +0.000 OA
ENDBRANCH  21  28
ENDBRANCH  20  24
ENDBRANCH  19  20
ENDBRANCH  18  19
ENDBRANCH   1  18
TORSDOF 5
ENDMDL
MODEL 7
REMARK VINA RESULT:      -7.6      1.180      1.594
REMARK  Name = 
REMARK  6 active torsions:
REMARK  status: ('A' for Active; 'I' for Inactive)
REMARK    1  A    between atoms: C_1  and  O_2
REMARK    2  A    between atoms: O_2  and  C_3
REMARK    3  A    between atoms: C_6  and  C_7
REMARK    4  A    between atoms: C_7  and  C_8
REMARK    5  A    between atoms: C_8  and  C_9
REMARK    6  A    between atoms: C_9  and  N_10
REMARK                            x       y       z     vdW  Elec       q    Type
REMARK                         _______ _______ _______ _____ _____    ______ ____
ROOT
ATOM      1  N   UNL     1       3.235   5.499  17.711  0.00  0.00    +0.000 N 
ATOM      2  C   UNL     1       4.651   5.654  17.564  0.00  0.00    +0.000 A 
ATOM      3  C   UNL     1       5.217   6.918  17.285  0.00  0.00    +0.000 A 
ATOM      4  C   UNL     1       6.598   7.146  17.345  0.00  0.00    +0.000 A 
ATOM      5  C   UNL     1       7.458   6.102  17.654  0.00  0.00    +0.000 A 
ATOM      6  C   UNL     1       6.943   4.819  17.778  0.00  0.00    +0.000 A 
ATOM      7  C   UNL     1       5.565   4.601  17.672  0.00  0.00    +0.000 A 
ATOM      8  O   UNL     1       5.169   3.302  17.571  0.00  0.00    +0.000 OA
ATOM      9  S   UNL     1       4.452   2.615  18.843  0.00  0.00    +0.000 S 
ATOM     10  O   UNL     1       5.234   2.872  20.048  0.00  0.00    +0.000 OA
ATOM     11  O   UNL     1       4.121   1.249  18.461  0.00  0.00    +0.000 OA
ATOM     12  C   UNL     1       2.915   3.437  19.051  0.00  0.00    +0.000 A 
ATOM     13  C   UNL     1       2.003   2.731  19.844  0.00  0.00    +0.000 A 
ATOM     14  C   UNL     1       0.687   2.674  19.437  0.00  0.00    +0.000 A 
ATOM     15  C   UNL     1       0.350   3.386  18.303  0.00  0.00    +0.000 A 
ATOM     16  N   UNL     1       1.184   4.267  17.686  0.00  0.00    +0.000 NA
ATOM     17  C   UNL     1       2.488   4.320  18.067  0.00  0.00    +0.000 A 
ENDROOT
BRANCH   1  18
ATOM     18  C   UNL     1       2.687   6.605  18.570  0.00  0.00    +0.000 C 
BRANCH  18  19
ATOM     19  C   UNL     1       2.037   7.716  17.752  0.00  0.00    +0.000 C 
BRANCH  19  20
ATOM     20  C   UNL     1       2.054   9.033  18.549  0.00  0.00    +0.000 C 
BRANCH  20  24
ATOM     21  C   UNL     1      -1.778  11.037  18.723  0.00  0.00    +0.000 A 
ATOM     22  C   UNL     1      -0.812  11.288  19.695  0.00  0.00    +0.000 A 
ATOM     23  C   UNL     1       0.434  10.666  19.634  0.00  0.00    +0.000 A 
ATOM     24  C   UNL     1       0.723   9.740  18.624  0.00  0.00    +0.000 A 
ATOM     25  C   UNL     1      -0.249   9.502  17.641  0.00  0.00    +0.000 A 
ATOM     26  C   UNL     1      -1.494  10.140  17.694  0.00  0.00    +0.000 A 
BRANCH  21  28
ATOM     27  C   UNL     1      -3.871  11.631  17.820  0.00  0.00    +0.000 C 
ATOM     28  O   UNL     1      -2.968  11.681  18.916  0.00  0.00    +0.000 OA
ENDBRANCH  21  28
ENDBRANCH  20  24
ENDBRANCH  19  20
ENDBRANCH  18  19
ENDBRANCH   1  18
TORSDOF 5
ENDMDL
MODEL 8
REMARK VINA RESULT:      -7.5      1.450      1.939
REMARK  Name = 
REMARK  6 active torsions:
REMARK  status: ('A' for Active; 'I' for Inactive)
REMARK    1  A    between atoms: C_1  and  O_2
REMARK    2  A    between atoms: O_2  and  C_3
REMARK    3  A    between atoms: C_6  and  C_7
REMARK    4  A    between atoms: C_7  and  C_8
REMARK    5  A    between atoms: C_8  and  C_9
REMARK    6  A    between atoms: C_9  and  N_10
REMARK                            x       y       z     vdW  Elec       q    Type
REMARK                         _______ _______ _______ _____ _____    ______ ____
ROOT
ATOM      1  N   UNL     1       2.877   5.400  18.073  0.00  0.00    +0.000 N 
ATOM      2  C   UNL     1       4.092   5.391  17.314  0.00  0.00    +0.000 A 
ATOM      3  C   UNL     1       4.523   6.546  16.623  0.00  0.00    +0.000 A 
ATOM      4  C   UNL     1       5.798   6.640  16.052  0.00  0.00    +0.000 A 
ATOM      5  C   UNL     1       6.671   5.563  16.127  0.00  0.00    +0.000 A 
ATOM      6  C   UNL     1       6.217   4.365  16.661  0.00  0.00    +0.000 A 
ATOM      7  C   UNL     1       4.924   4.275  17.189  0.00  0.00    +0.000 A 
ATOM      8  O   UNL     1       4.478   3.020  17.474  0.00  0.00    +0.000 OA
ATOM      9  S   UNL     1       4.365   2.577  19.021  0.00  0.00    +0.000 S 
ATOM     10  O   UNL     1       5.603   2.906  19.720  0.00  0.00    +0.000 OA
ATOM     11  O   UNL     1       3.852   1.214  19.039  0.00  0.00    +0.000 OA
ATOM     12  C   UNL     1       3.102   3.569  19.730  0.00  0.00    +0.000 A 
ATOM     13  C   UNL     1       2.604   3.066  20.938  0.00  0.00    +0.000 A 
ATOM     14  C   UNL     1       1.241   3.089  21.145  0.00  0.00    +0.000 A 
ATOM     15  C   UNL     1       0.467   3.680  20.165  0.00  0.00    +0.000 A 
ATOM     16  N   UNL     1       0.979   4.387  19.120  0.00  0.00    +0.000 NA
ATOM     17  C   UNL     1       2.319   4.357  18.895  0.00  0.00    +0.000 A 
ENDROOT
BRANCH   1  18
ATOM     18  C   UNL     1       2.798   6.656  18.896  0.00  0.00    +0.000 C 
BRANCH  18  19
ATOM     19  C   UNL     1       1.992   7.755  18.211  0.00  0.00    +0.000 C 
BRANCH  19  20
ATOM     20  C   UNL     1       1.882   8.979  19.138  0.00  0.00    +0.000 C 
BRANCH  20  24
ATOM     21  C   UNL     1      -1.843  11.168  18.870  0.00  0.00    +0.000 A 
ATOM     22  C   UNL     1      -1.420  10.373  17.807  0.00  0.00    +0.000 A 
ATOM     23  C   UNL     1      -0.234   9.645  17.893  0.00  0.00    +0.000 A 
ATOM     24  C   UNL     1       0.581   9.736  19.028  0.00  0.00    +0.000 A 
ATOM     25  C   UNL     1       0.142  10.528  20.100  0.00  0.00    +0.000 A 
ATOM     26  C   UNL     1      -1.057  11.245  20.019  0.00  0.00    +0.000 A 
BRANCH  21  28
ATOM     27  C   UNL     1      -3.770  11.410  17.537  0.00  0.00    +0.000 C 
ATOM     28  O   UNL     1      -3.002  11.857  18.646  0.00  0.00    +0.000 OA
ENDBRANCH  21  28
ENDBRANCH  20  24
ENDBRANCH  19  20
ENDBRANCH  18  19
ENDBRANCH   1  18
TORSDOF 5
ENDMDL
MODEL 9
REMARK VINA RESULT:      -7.5      1.582      4.285
REMARK  Name = 
REMARK  6 active torsions:
REMARK  status: ('A' for Active; 'I' for Inactive)
REMARK    1  A    between atoms: C_1  and  O_2
REMARK    2  A    between atoms: O_2  and  C_3
REMARK    3  A    between atoms: C_6  and  C_7
REMARK    4  A    between atoms: C_7  and  C_8
REMARK    5  A    between atoms: C_8  and  C_9
REMARK    6  A    between atoms: C_9  and  N_10
REMARK                            x       y       z     vdW  Elec       q    Type
REMARK                         _______ _______ _______ _____ _____    ______ ____
ROOT
ATOM      1  N   UNL     1       4.311   4.672  19.594  0.00  0.00    +0.000 N 
ATOM      2  C   UNL     1       3.274   3.738  19.277  0.00  0.00    +0.000 A 
ATOM      3  C   UNL     1       2.140   3.603  20.109  0.00  0.00    +0.000 A 
ATOM      4  C   UNL     1       1.016   2.862  19.724  0.00  0.00    +0.000 A 
ATOM      5  C   UNL     1       1.008   2.204  18.501  0.00  0.00    +0.000 A 
ATOM      6  C   UNL     1       2.166   2.191  17.735  0.00  0.00    +0.000 A 
ATOM      7  C   UNL     1       3.295   2.902  18.157  0.00  0.00    +0.000 A 
ATOM      8  O   UNL     1       4.449   2.649  17.479  0.00  0.00    +0.000 OA
ATOM      9  S   UNL     1       5.008   3.774  16.466  0.00  0.00    +0.000 S 
ATOM     10  O   UNL     1       3.932   4.229  15.592  0.00  0.00    +0.000 OA
ATOM     11  O   UNL     1       6.247   3.260  15.898  0.00  0.00    +0.000 OA
ATOM     12  C   UNL     1       5.473   5.147  17.456  0.00  0.00    +0.000 A 
ATOM     13  C   UNL     1       6.325   6.047  16.804  0.00  0.00    +0.000 A 
ATOM     14  C   UNL     1       7.399   6.556  17.504  0.00  0.00    +0.000 A 
ATOM     15  C   UNL     1       7.513   6.192  18.831  0.00  0.00    +0.000 A 
ATOM     16  N   UNL     1       6.546   5.524  19.519  0.00  0.00    +0.000 NA
ATOM     17  C   UNL     1       5.492   5.003  18.838  0.00  0.00    +0.000 A 
ENDROOT
BRANCH   1  18
ATOM     18  C   UNL     1       3.708   5.987  20.004  0.00  0.00    +0.000 C 
BRANCH  18  19
ATOM     19  C   UNL     1       2.488   6.358  19.167  0.00  0.00    +0.000 C 
BRANCH  19  20
ATOM     20  C   UNL     1       2.653   7.780  18.601  0.00  0.00    +0.000 C 
BRANCH  20  24
ATOM     21  C   UNL     1      -0.477  10.530  19.775  0.00  0.00    +0.000 A 
ATOM     22  C   UNL     1      -0.073  10.455  18.444  0.00  0.00    +0.000 A 
ATOM     23  C   UNL     1       0.917   9.556  18.051  0.00  0.00    +0.000 A 
ATOM     24  C   UNL     1       1.561   8.744  18.994  0.00  0.00    +0.000 A 
ATOM     25  C   UNL     1       1.140   8.815  20.331  0.00  0.00    +0.000 A 
ATOM     26  C   UNL     1       0.134   9.707  20.720  0.00  0.00    +0.000 A 
BRANCH  21  28
ATOM     27  C   UNL     1      -1.078  12.806  19.678  0.00  0.00    +0.000 C 
ATOM     28  O   UNL     1      -1.429  11.476  20.035  0.00  0.00    +0.000 OA
ENDBRANCH  21  28
ENDBRANCH  20  24
ENDBRANCH  19  20
ENDBRANCH  18  19
ENDBRANCH   1  18
TORSDOF 5
ENDMDL
