MODEL 1
REMARK VINA RESULT:      -7.8      0.000      0.000
REMARK  Name = 
REMARK  8 active torsions:
REMARK  status: ('A' for Active; 'I' for Inactive)
REMARK    1  A    between atoms: C_2  and  O_3
REMARK    2  A    between atoms: C_2  and  C_4
REMARK    3  A    between atoms: C_4  and  C_5
REMARK    4  A    between atoms: C_4  and  O_12
REMARK    5  A    between atoms: C_5  and  C_6
REMARK    6  A    between atoms: O_12  and  C_13
REMARK    7  A    between atoms: C_16  and  C_17
REMARK    8  A    between atoms: C_17  and  C_18
REMARK                            x       y       z     vdW  Elec       q    Type
REMARK                         _______ _______ _______ _____ _____    ______ ____
ROOT
ATOM      1  O   UNL     1       3.738   6.160  18.701  0.00  0.00    +0.000 OA
ENDROOT
BRANCH   1   2
ATOM      2  C   UNL     1       2.836   7.184  18.815  0.00  0.00    +0.000 A 
ATOM      3  C   UNL     1       2.751   8.035  17.711  0.00  0.00    +0.000 A 
ATOM      4  C   UNL     1       1.957   9.187  17.762  0.00  0.00    +0.000 A 
ATOM      5  C   UNL     1       1.226   9.496  18.917  0.00  0.00    +0.000 A 
ATOM      6  C   UNL     1       1.257   8.594  19.988  0.00  0.00    +0.000 A 
ATOM      7  C   UNL     1       2.048   7.442  19.934  0.00  0.00    +0.000 A 
BRANCH   5   8
ATOM      8  C   UNL     1       0.468  10.793  19.038  0.00  0.00    +0.000 C 
BRANCH   8   9
ATOM      9  C   UNL     1      -0.967  10.755  18.576  0.00  0.00    +0.000 A 
ATOM     10  C   UNL     1      -1.921  11.629  19.121  0.00  0.00    +0.000 A 
ATOM     11  C   UNL     1      -3.227  11.650  18.628  0.00  0.00    +0.000 A 
ATOM     12  C   UNL     1      -3.597  10.794  17.593  0.00  0.00    +0.000 A 
ATOM     13  C   UNL     1      -2.667   9.902  17.062  0.00  0.00    +0.000 A 
ATOM     14  C   UNL     1      -1.360   9.879  17.553  0.00  0.00    +0.000 A 
ENDBRANCH   8   9
ENDBRANCH   5   8
ENDBRANCH   1   2
BRANCH   1  15
ATOM     15  C   UNL     1       3.751   5.413  17.469  0.00  0.00    +0.000 C 
BRANCH  15  17
ATOM     16  O   UNL     1       6.062   4.598  17.367  0.00  0.00    +0.000 OA
ATOM     17  C   UNL     1       5.195   5.357  16.957  0.00  0.00    +0.000 C 
BRANCH  17  18
ATOM     18  O   UNL     1       5.400   6.181  15.893  0.00  0.00    +0.000 OA
ATOM     19  H   UNL     1       6.032   5.768  15.264  0.00  0.00    +0.000 HD
ENDBRANCH  17  18
ENDBRANCH  15  17
BRANCH  15  20
ATOM     20  C   UNL     1       3.131   4.003  17.561  0.00  0.00    +0.000 C 
BRANCH  20  21
ATOM     21  C   UNL     1       2.598   3.582  18.910  0.00  0.00    +0.000 A 
ATOM     22  C   UNL     1       3.442   3.001  19.869  0.00  0.00    +0.000 A 
ATOM     23  C   UNL     1       2.948   2.635  21.122  0.00  0.00    +0.000 A 
ATOM     24  C   UNL     1       1.608   2.855  21.433  0.00  0.00    +0.000 A 
ATOM     25  C   UNL     1       0.764   3.444  20.495  0.00  0.00    +0.000 A 
ATOM     26  C   UNL     1       1.256   3.804  19.240  0.00  0.00    +0.000 A 
ENDBRANCH  20  21
ENDBRANCH  15  20
ENDBRANCH   1  15
TORSDOF 8
ENDMDL
MODEL 2
REMARK VINA RESULT:      -7.8      0.371      1.210
REMARK  Name = 
REMARK  8 active torsions:
REMARK  status: ('A' for Active; 'I' for Inactive)
REMARK    1  A    between atoms: C_2  and  O_3
REMARK    2  A    between atoms: C_2  and  C_4
REMARK    3  A    between atoms: C_4  and  C_5
REMARK    4  A    between atoms: C_4  and  O_12
REMARK    5  A    between atoms: C_5  and  C_6
REMARK    6  A    between atoms: O_12  and  C_13
REMARK    7  A    between atoms: C_16  and  C_17
REMARK    8  A    between atoms: C_17  and  C_18
REMARK                            x       y       z     vdW  Elec       q    Type
REMARK                         _______ _______ _______ _____ _____    ______ ____
ROOT
ATOM      1  O   UNL     1       3.527   6.369  18.963  0.00  0.00    +0.000 OA
ENDROOT
BRANCH   1   2
ATOM      2  C   UNL     1       2.615   7.390  19.005  0.00  0.00    +0.000 A 
ATOM      3  C   UNL     1       2.507   8.147  17.837  0.00  0.00    +0.000 A 
ATOM      4  C   UNL     1       1.701   9.292  17.805  0.00  0.00    +0.000 A 
ATOM      5  C   UNL     1       0.980   9.685  18.940  0.00  0.00    +0.000 A 
ATOM      6  C   UNL     1       1.035   8.874  20.081  0.00  0.00    +0.000 A 
ATOM      7  C   UNL     1       1.837   7.730  20.110  0.00  0.00    +0.000 A 
BRANCH   5   8
ATOM      8  C   UNL     1       0.209  10.981  18.965  0.00  0.00    +0.000 C 
BRANCH   8   9
ATOM      9  C   UNL     1      -1.204  10.908  18.442  0.00  0.00    +0.000 A 
ATOM     10  C   UNL     1      -1.563   9.956  17.475  0.00  0.00    +0.000 A 
ATOM     11  C   UNL     1      -2.890   9.834  17.059  0.00  0.00    +0.000 A 
ATOM     12  C   UNL     1      -3.870  10.666  17.597  0.00  0.00    +0.000 A 
ATOM     13  C   UNL     1      -3.521  11.633  18.537  0.00  0.00    +0.000 A 
ATOM     14  C   UNL     1      -2.195  11.757  18.955  0.00  0.00    +0.000 A 
ENDBRANCH   8   9
ENDBRANCH   5   8
ENDBRANCH   1   2
BRANCH   1  15
ATOM     15  C   UNL     1       3.704   5.680  17.711  0.00  0.00    +0.000 C 
BRANCH  15  17
ATOM     16  O   UNL     1       5.628   6.392  16.367  0.00  0.00    +0.000 OA
ATOM     17  C   UNL     1       5.184   5.768  17.320  0.00  0.00    +0.000 C 
BRANCH  17  18
ATOM     18  O   UNL     1       5.997   5.156  18.225  0.00  0.00    +0.000 OA
ATOM     19  H   UNL     1       5.938   4.180  18.124  0.00  0.00    +0.000 HD
ENDBRANCH  17  18
ENDBRANCH  15  17
BRANCH  15  20
ATOM     20  C   UNL     1       3.205   4.220  17.699  0.00  0.00    +0.000 C 
BRANCH  20  21
ATOM     21  C   UNL     1       2.611   3.696  18.985  0.00  0.00    +0.000 A 
ATOM     22  C   UNL     1       3.425   3.129  19.976  0.00  0.00    +0.000 A 
ATOM     23  C   UNL     1       2.874   2.666  21.171  0.00  0.00    +0.000 A 
ATOM     24  C   UNL     1       1.503   2.774  21.393  0.00  0.00    +0.000 A 
ATOM     25  C   UNL     1       0.685   3.348  20.422  0.00  0.00    +0.000 A 
ATOM     26  C   UNL     1       1.236   3.805  19.224  0.00  0.00    +0.000 A 
ENDBRANCH  20  21
ENDBRANCH  15  20
ENDBRANCH   1  15
TORSDOF 8
ENDMDL
MODEL 3
REMARK VINA RESULT:      -7.8      0.276      1.003
REMARK  Name = 
REMARK  8 active torsions:
REMARK  status: ('A' for Active; 'I' for Inactive)
REMARK    1  A    between atoms: C_2  and  O_3
REMARK    2  A    between atoms: C_2  and  C_4
REMARK    3  A    between atoms: C_4  and  C_5
REMARK    4  A    between atoms: C_4  and  O_12
REMARK    5  A    between atoms: C_5  and  C_6
REMARK    6  A    between atoms: O_12  and  C_13
REMARK    7  A    between atoms: C_16  and  C_17
REMARK    8  A    between atoms: C_17  and  C_18
REMARK                            x       y       z     vdW  Elec       q    Type
REMARK                         _______ _______ _______ _____ _____    ______ ____
ROOT
ATOM      1  O   UNL     1       3.562   6.330  18.902  0.00  0.00    +0.000 OA
ENDROOT
BRANCH   1   2
ATOM      2  C   UNL     1       2.649   7.349  18.955  0.00  0.00    +0.000 A 
ATOM      3  C   UNL     1       2.525   8.107  17.788  0.00  0.00    +0.000 A 
ATOM      4  C   UNL     1       1.716   9.249  17.766  0.00  0.00    +0.000 A 
ATOM      5  C   UNL     1       1.008   9.641  18.909  0.00  0.00    +0.000 A 
ATOM      6  C   UNL     1       1.078   8.830  20.049  0.00  0.00    +0.000 A 
ATOM      7  C   UNL     1       1.883   7.687  20.069  0.00  0.00    +0.000 A 
BRANCH   5   8
ATOM      8  C   UNL     1       0.234  10.934  18.944  0.00  0.00    +0.000 C 
BRANCH   8   9
ATOM      9  C   UNL     1      -1.204  10.845  18.499  0.00  0.00    +0.000 A 
ATOM     10  C   UNL     1      -2.179  11.694  19.046  0.00  0.00    +0.000 A 
ATOM     11  C   UNL     1      -3.491  11.668  18.568  0.00  0.00    +0.000 A 
ATOM     12  C   UNL     1      -3.845  10.789  17.546  0.00  0.00    +0.000 A 
ATOM     13  C   UNL     1      -2.893   9.922  17.014  0.00  0.00    +0.000 A 
ATOM     14  C   UNL     1      -1.580   9.946  17.490  0.00  0.00    +0.000 A 
ENDBRANCH   8   9
ENDBRANCH   5   8
ENDBRANCH   1   2
BRANCH   1  15
ATOM     15  C   UNL     1       3.680   5.600  17.666  0.00  0.00    +0.000 C 
BRANCH  15  17
ATOM     16  O   UNL     1       6.066   5.058  17.842  0.00  0.00    +0.000 OA
ATOM     17  C   UNL     1       5.154   5.609  17.242  0.00  0.00    +0.000 C 
BRANCH  17  18
ATOM     18  O   UNL     1       5.343   6.215  16.037  0.00  0.00    +0.000 OA
ATOM     19  H   UNL     1       4.988   7.130  16.061  0.00  0.00    +0.000 HD
ENDBRANCH  17  18
ENDBRANCH  15  17
BRANCH  15  20
ATOM     20  C   UNL     1       3.115   4.165  17.706  0.00  0.00    +0.000 C 
BRANCH  20  21
ATOM     21  C   UNL     1       2.601   3.675  19.039  0.00  0.00    +0.000 A 
ATOM     22  C   UNL     1       1.242   3.783  19.370  0.00  0.00    +0.000 A 
ATOM     23  C   UNL     1       0.769   3.308  20.594  0.00  0.00    +0.000 A 
ATOM     24  C   UNL     1       1.647   2.712  21.496  0.00  0.00    +0.000 A 
ATOM     25  C   UNL     1       2.996   2.586  21.173  0.00  0.00    +0.000 A 
ATOM     26  C   UNL     1       3.471   3.067  19.951  0.00  0.00    +0.000 A 
ENDBRANCH  20  21
ENDBRANCH  15  20
ENDBRANCH   1  15
TORSDOF 8
ENDMDL
MODEL 4
REMARK VINA RESULT:      -7.8      2.534      8.220
REMARK  Name = 
REMARK  8 active torsions:
REMARK  status: ('A' for Active; 'I' for Inactive)
REMARK    1  A    between atoms: C_2  and  O_3
REMARK    2  A    between atoms: C_2  and  C_4
REMARK    3  A    between atoms: C_4  and  C_5
REMARK    4  A    between atoms: C_4  and  O_12
REMARK    5  A    between atoms: C_5  and  C_6
REMARK    6  A    between atoms: O_12  and  C_13
REMARK    7  A    between atoms: C_16  and  C_17
REMARK    8  A    between atoms: C_17  and  C_18
REMARK                            x       y       z     vdW  Elec       q    Type
REMARK                         _______ _______ _______ _____ _____    ______ ____
ROOT
ATOM      1  O   UNL     1       1.610   8.439  21.078  0.00  0.00    +0.000 OA
ENDROOT
BRANCH   1   2
ATOM      2  C   UNL     1       1.883   7.481  20.138  0.00  0.00    +0.000 A 
ATOM      3  C   UNL     1       1.725   6.160  20.563  0.00  0.00    +0.000 A 
ATOM      4  C   UNL     1       2.095   5.097  19.730  0.00  0.00    +0.000 A 
ATOM      5  C   UNL     1       2.615   5.344  18.453  0.00  0.00    +0.000 A 
ATOM      6  C   UNL     1       2.694   6.669  18.007  0.00  0.00    +0.000 A 
ATOM      7  C   UNL     1       2.321   7.729  18.839  0.00  0.00    +0.000 A 
BRANCH   5   8
ATOM      8  C   UNL     1       3.136   4.220  17.592  0.00  0.00    +0.000 C 
BRANCH   8   9
ATOM      9  C   UNL     1       4.602   4.293  17.245  0.00  0.00    +0.000 A 
ATOM     10  C   UNL     1       5.026   4.239  15.907  0.00  0.00    +0.000 A 
ATOM     11  C   UNL     1       6.376   4.395  15.585  0.00  0.00    +0.000 A 
ATOM     12  C   UNL     1       7.317   4.596  16.593  0.00  0.00    +0.000 A 
ATOM     13  C   UNL     1       6.911   4.624  17.926  0.00  0.00    +0.000 A 
ATOM     14  C   UNL     1       5.562   4.469  18.252  0.00  0.00    +0.000 A 
ENDBRANCH   8   9
ENDBRANCH   5   8
ENDBRANCH   1   2
BRANCH   1  15
ATOM     15  C   UNL     1       0.357   9.141  20.975  0.00  0.00    +0.000 C 
BRANCH  15  17
ATOM     16  O   UNL     1       0.076  10.523  22.982  0.00  0.00    +0.000 OA
ATOM     17  C   UNL     1      -0.126   9.471  22.392  0.00  0.00    +0.000 C 
BRANCH  17  18
ATOM     18  O   UNL     1      -0.922   8.494  22.909  0.00  0.00    +0.000 OA
ATOM     19  H   UNL     1      -0.619   7.613  22.598  0.00  0.00    +0.000 HD
ENDBRANCH  17  18
ENDBRANCH  15  17
BRANCH  15  20
ATOM     20  C   UNL     1       0.391  10.401  20.085  0.00  0.00    +0.000 C 
BRANCH  20  21
ATOM     21  C   UNL     1      -0.771  10.596  19.140  0.00  0.00    +0.000 A 
ATOM     22  C   UNL     1      -1.785  11.522  19.425  0.00  0.00    +0.000 A 
ATOM     23  C   UNL     1      -2.844  11.713  18.538  0.00  0.00    +0.000 A 
ATOM     24  C   UNL     1      -2.896  10.988  17.349  0.00  0.00    +0.000 A 
ATOM     25  C   UNL     1      -1.888  10.076  17.048  0.00  0.00    +0.000 A 
ATOM     26  C   UNL     1      -0.832   9.879  17.939  0.00  0.00    +0.000 A 
ENDBRANCH  20  21
ENDBRANCH  15  20
ENDBRANCH   1  15
TORSDOF 8
ENDMDL
MODEL 5
REMARK VINA RESULT:      -7.7      1.210      1.628
REMARK  Name = 
REMARK  8 active torsions:
REMARK  status: ('A' for Active; 'I' for Inactive)
REMARK    1  A    between atoms: C_2  and  O_3
REMARK    2  A    between atoms: C_2  and  C_4
REMARK    3  A    between atoms: C_4  and  C_5
REMARK    4  A    between atoms: C_4  and  O_12
REMARK    5  A    between atoms: C_5  and  C_6
REMARK    6  A    between atoms: O_12  and  C_13
REMARK    7  A    between atoms: C_16  and  C_17
REMARK    8  A    between atoms: C_17  and  C_18
REMARK                            x       y       z     vdW  Elec       q    Type
REMARK                         _______ _______ _______ _____ _____    ______ ____
ROOT
ATOM      1  O   UNL     1       3.538   6.280  19.240  0.00  0.00    +0.000 OA
ENDROOT
BRANCH   1   2
ATOM      2  C   UNL     1       2.661   7.329  19.165  0.00  0.00    +0.000 A 
ATOM      3  C   UNL     1       2.647   8.015  17.949  0.00  0.00    +0.000 A 
ATOM      4  C   UNL     1       1.884   9.179  17.799  0.00  0.00    +0.000 A 
ATOM      5  C   UNL     1       1.112   9.664  18.863  0.00  0.00    +0.000 A 
ATOM      6  C   UNL     1       1.072   8.924  20.052  0.00  0.00    +0.000 A 
ATOM      7  C   UNL     1       1.832   7.760  20.198  0.00  0.00    +0.000 A 
BRANCH   5   8
ATOM      8  C   UNL     1       0.385  10.982  18.763  0.00  0.00    +0.000 C 
BRANCH   8   9
ATOM      9  C   UNL     1      -1.062  10.897  18.348  0.00  0.00    +0.000 A 
ATOM     10  C   UNL     1      -1.489   9.929  17.425  0.00  0.00    +0.000 A 
ATOM     11  C   UNL     1      -2.842   9.797  17.110  0.00  0.00    +0.000 A 
ATOM     12  C   UNL     1      -3.783  10.636  17.705  0.00  0.00    +0.000 A 
ATOM     13  C   UNL     1      -3.369  11.619  18.602  0.00  0.00    +0.000 A 
ATOM     14  C   UNL     1      -2.015  11.753  18.919  0.00  0.00    +0.000 A 
ENDBRANCH   8   9
ENDBRANCH   5   8
ENDBRANCH   1   2
BRANCH   1  15
ATOM     15  C   UNL     1       4.406   6.051  18.114  0.00  0.00    +0.000 C 
BRANCH  15  17
ATOM     16  O   UNL     1       6.106   5.122  19.619  0.00  0.00    +0.000 OA
ATOM     17  C   UNL     1       5.824   5.803  18.643  0.00  0.00    +0.000 C 
BRANCH  17  18
ATOM     18  O   UNL     1       6.780   6.339  17.835  0.00  0.00    +0.000 OA
ATOM     19  H   UNL     1       7.113   7.180  18.220  0.00  0.00    +0.000 HD
ENDBRANCH  17  18
ENDBRANCH  15  17
BRANCH  15  20
ATOM     20  C   UNL     1       3.954   4.920  17.167  0.00  0.00    +0.000 C 
BRANCH  20  21
ATOM     21  C   UNL     1       3.117   3.820  17.776  0.00  0.00    +0.000 A 
ATOM     22  C   UNL     1       3.712   2.646  18.262  0.00  0.00    +0.000 A 
ATOM     23  C   UNL     1       2.936   1.643  18.843  0.00  0.00    +0.000 A 
ATOM     24  C   UNL     1       1.557   1.806  18.954  0.00  0.00    +0.000 A 
ATOM     25  C   UNL     1       0.956   2.973  18.488  0.00  0.00    +0.000 A 
ATOM     26  C   UNL     1       1.731   3.973  17.901  0.00  0.00    +0.000 A 
ENDBRANCH  20  21
ENDBRANCH  15  20
ENDBRANCH   1  15
TORSDOF 8
ENDMDL
MODEL 6
REMARK VINA RESULT:      -7.6      1.203      1.952
REMARK  Name = 
REMARK  8 active torsions:
REMARK  status: ('A' for Active; 'I' for Inactive)
REMARK    1  A    between atoms: C_2  and  O_3
REMARK    2  A    between atoms: C_2  and  C_4
REMARK    3  A    between atoms: C_4  and  C_5
REMARK    4  A    between atoms: C_4  and  O_12
REMARK    5  A    between atoms: C_5  and  C_6
REMARK    6  A    between atoms: O_12  and  C_13
REMARK    7  A    between atoms: C_16  and  C_17
REMARK    8  A    between atoms: C_17  and  C_18
REMARK                            x       y       z     vdW  Elec       q    Type
REMARK                         _______ _______ _______ _____ _____    ______ ____
ROOT
ATOM      1  O   UNL     1       3.549   6.371  19.125  0.00  0.00    +0.000 OA
ENDROOT
BRANCH   1   2
ATOM      2  C   UNL     1       2.650   7.403  19.089  0.00  0.00    +0.000 A 
ATOM      3  C   UNL     1       2.617   8.130  17.897  0.00  0.00    +0.000 A 
ATOM      4  C   UNL     1       1.828   9.281  17.790  0.00  0.00    +0.000 A 
ATOM      5  C   UNL     1       1.050   9.713  18.872  0.00  0.00    +0.000 A 
ATOM      6  C   UNL     1       1.029   8.932  20.034  0.00  0.00    +0.000 A 
ATOM      7  C   UNL     1       1.815   7.780  20.139  0.00  0.00    +0.000 A 
BRANCH   5   8
ATOM      8  C   UNL     1       0.294  11.017  18.819  0.00  0.00    +0.000 C 
BRANCH   8   9
ATOM      9  C   UNL     1      -1.140  10.921  18.363  0.00  0.00    +0.000 A 
ATOM     10  C   UNL     1      -1.532   9.951  17.427  0.00  0.00    +0.000 A 
ATOM     11  C   UNL     1      -2.875   9.808  17.074  0.00  0.00    +0.000 A 
ATOM     12  C   UNL     1      -3.840  10.637  17.645  0.00  0.00    +0.000 A 
ATOM     13  C   UNL     1      -3.460  11.621  18.555  0.00  0.00    +0.000 A 
ATOM     14  C   UNL     1      -2.117  11.766  18.910  0.00  0.00    +0.000 A 
ENDBRANCH   8   9
ENDBRANCH   5   8
ENDBRANCH   1   2
BRANCH   1  15
ATOM     15  C   UNL     1       4.354   6.142  17.953  0.00  0.00    +0.000 C 
BRANCH  15  17
ATOM     16  O   UNL     1       6.776   6.510  17.819  0.00  0.00    +0.000 OA
ATOM     17  C   UNL     1       5.817   6.012  18.393  0.00  0.00    +0.000 C 
BRANCH  17  18
ATOM     18  O   UNL     1       5.946   5.361  19.582  0.00  0.00    +0.000 OA
ATOM     19  H   UNL     1       6.881   5.390  19.882  0.00  0.00    +0.000 HD
ENDBRANCH  17  18
ENDBRANCH  15  17
BRANCH  15  20
ATOM     20  C   UNL     1       3.917   4.939  17.092  0.00  0.00    +0.000 C 
BRANCH  20  21
ATOM     21  C   UNL     1       3.113   3.864  17.787  0.00  0.00    +0.000 A 
ATOM     22  C   UNL     1       1.719   3.967  17.901  0.00  0.00    +0.000 A 
ATOM     23  C   UNL     1       0.980   2.961  18.524  0.00  0.00    +0.000 A 
ATOM     24  C   UNL     1       1.626   1.836  19.031  0.00  0.00    +0.000 A 
ATOM     25  C   UNL     1       3.008   1.715  18.912  0.00  0.00    +0.000 A 
ATOM     26  C   UNL     1       3.748   2.725  18.294  0.00  0.00    +0.000 A 
ENDBRANCH  20  21
ENDBRANCH  15  20
ENDBRANCH   1  15
TORSDOF 8
ENDMDL
MODEL 7
REMARK VINA RESULT:      -7.6      3.196      7.199
REMARK  Name = 
REMARK  8 active torsions:
REMARK  status: ('A' for Active; 'I' for Inactive)
REMARK    1  A    between atoms: C_2  and  O_3
REMARK    2  A    between atoms: C_2  and  C_4
REMARK    3  A    between atoms: C_4  and  C_5
REMARK    4  A    between atoms: C_4  and  O_12
REMARK    5  A    between atoms: C_5  and  C_6
REMARK    6  A    between atoms: O_12  and  C_13
REMARK    7  A    between atoms: C_16  and  C_17
REMARK    8  A    between atoms: C_17  and  C_18
REMARK                            x       y       z     vdW  Elec       q    Type
REMARK                         _______ _______ _______ _____ _____    ______ ____
ROOT
ATOM      1  O   UNL     1       2.077   6.774  18.586  0.00  0.00    +0.000 OA
ENDROOT
BRANCH   1   2
ATOM      2  C   UNL     1       3.185   6.409  17.869  0.00  0.00    +0.000 A 
ATOM      3  C   UNL     1       3.244   5.063  17.497  0.00  0.00    +0.000 A 
ATOM      4  C   UNL     1       4.386   4.549  16.872  0.00  0.00    +0.000 A 
ATOM      5  C   UNL     1       5.480   5.380  16.597  0.00  0.00    +0.000 A 
ATOM      6  C   UNL     1       5.378   6.743  16.902  0.00  0.00    +0.000 A 
ATOM      7  C   UNL     1       4.235   7.256  17.523  0.00  0.00    +0.000 A 
BRANCH   5   8
ATOM      8  C   UNL     1       6.765   4.820  16.041  0.00  0.00    +0.000 C 
BRANCH   8   9
ATOM      9  C   UNL     1       6.800   4.633  14.545  0.00  0.00    +0.000 A 
ATOM     10  C   UNL     1       7.680   5.383  13.748  0.00  0.00    +0.000 A 
ATOM     11  C   UNL     1       7.772   5.146  12.376  0.00  0.00    +0.000 A 
ATOM     12  C   UNL     1       6.981   4.164  11.782  0.00  0.00    +0.000 A 
ATOM     13  C   UNL     1       6.084   3.431  12.557  0.00  0.00    +0.000 A 
ATOM     14  C   UNL     1       5.990   3.667  13.930  0.00  0.00    +0.000 A 
ENDBRANCH   8   9
ENDBRANCH   5   8
ENDBRANCH   1   2
BRANCH   1  15
ATOM     15  C   UNL     1       2.221   6.928  20.011  0.00  0.00    +0.000 C 
BRANCH  15  17
ATOM     16  O   UNL     1       1.178   9.116  19.632  0.00  0.00    +0.000 OA
ATOM     17  C   UNL     1       1.666   8.302  20.403  0.00  0.00    +0.000 C 
BRANCH  17  18
ATOM     18  O   UNL     1       1.666   8.495  21.752  0.00  0.00    +0.000 OA
ATOM     19  H   UNL     1       1.649   7.629  22.216  0.00  0.00    +0.000 HD
ENDBRANCH  17  18
ENDBRANCH  15  17
BRANCH  15  20
ATOM     20  C   UNL     1       1.583   5.803  20.851  0.00  0.00    +0.000 C 
BRANCH  20  21
ATOM     21  C   UNL     1       1.770   4.391  20.348  0.00  0.00    +0.000 A 
ATOM     22  C   UNL     1       2.966   3.696  20.577  0.00  0.00    +0.000 A 
ATOM     23  C   UNL     1       3.124   2.384  20.129  0.00  0.00    +0.000 A 
ATOM     24  C   UNL     1       2.084   1.749  19.455  0.00  0.00    +0.000 A 
ATOM     25  C   UNL     1       0.886   2.423  19.233  0.00  0.00    +0.000 A 
ATOM     26  C   UNL     1       0.730   3.737  19.675  0.00  0.00    +0.000 A 
ENDBRANCH  20  21
ENDBRANCH  15  20
ENDBRANCH   1  15
TORSDOF 8
ENDMDL
MODEL 8
REMARK VINA RESULT:      -7.5      1.769      2.585
REMARK  Name = 
REMARK  8 active torsions:
REMARK  status: ('A' for Active; 'I' for Inactive)
REMARK    1  A    between atoms: C_2  and  O_3
REMARK    2  A    between atoms: C_2  and  C_4
REMARK    3  A    between atoms: C_4  and  C_5
REMARK    4  A    between atoms: C_4  and  O_12
REMARK    5  A    between atoms: C_5  and  C_6
REMARK    6  A    between atoms: O_12  and  C_13
REMARK    7  A    between atoms: C_16  and  C_17
REMARK    8  A    between atoms: C_17  and  C_18
REMARK                            x       y       z     vdW  Elec       q    Type
REMARK                         _______ _______ _______ _____ _____    ______ ____
ROOT
ATOM      1  O   UNL     1       4.327   5.569  18.382  0.00  0.00    +0.000 OA
ENDROOT
BRANCH   1   2
ATOM      2  C   UNL     1       3.512   6.660  18.523  0.00  0.00    +0.000 A 
ATOM      3  C   UNL     1       2.820   6.741  19.734  0.00  0.00    +0.000 A 
ATOM      4  C   UNL     1       1.865   7.743  19.940  0.00  0.00    +0.000 A 
ATOM      5  C   UNL     1       1.599   8.687  18.940  0.00  0.00    +0.000 A 
ATOM      6  C   UNL     1       2.354   8.644  17.761  0.00  0.00    +0.000 A 
ATOM      7  C   UNL     1       3.311   7.645  17.558  0.00  0.00    +0.000 A 
BRANCH   5   8
ATOM      8  C   UNL     1       0.487   9.694  19.093  0.00  0.00    +0.000 C 
BRANCH   8   9
ATOM      9  C   UNL     1       0.089  10.014  20.512  0.00  0.00    +0.000 A 
ATOM     10  C   UNL     1      -0.084  11.345  20.927  0.00  0.00    +0.000 A 
ATOM     11  C   UNL     1      -0.537  11.633  22.215  0.00  0.00    +0.000 A 
ATOM     12  C   UNL     1      -0.814  10.597  23.106  0.00  0.00    +0.000 A 
ATOM     13  C   UNL     1      -0.620   9.274  22.716  0.00  0.00    +0.000 A 
ATOM     14  C   UNL     1      -0.167   8.983  21.427  0.00  0.00    +0.000 A 
ENDBRANCH   8   9
ENDBRANCH   5   8
ENDBRANCH   1   2
BRANCH   1  15
ATOM     15  C   UNL     1       4.213   4.798  17.170  0.00  0.00    +0.000 C 
BRANCH  15  17
ATOM     16  O   UNL     1       6.567   5.302  16.697  0.00  0.00    +0.000 OA
ATOM     17  C   UNL     1       5.625   4.523  16.641  0.00  0.00    +0.000 C 
BRANCH  17  18
ATOM     18  O   UNL     1       5.770   3.247  16.187  0.00  0.00    +0.000 OA
ATOM     19  H   UNL     1       5.880   3.249  15.210  0.00  0.00    +0.000 HD
ENDBRANCH  17  18
ENDBRANCH  15  17
BRANCH  15  20
ATOM     20  C   UNL     1       3.400   3.495  17.307  0.00  0.00    +0.000 C 
BRANCH  20  21
ATOM     21  C   UNL     1       2.700   3.266  18.626  0.00  0.00    +0.000 A 
ATOM     22  C   UNL     1       3.417   2.857  19.760  0.00  0.00    +0.000 A 
ATOM     23  C   UNL     1       2.770   2.669  20.982  0.00  0.00    +0.000 A 
ATOM     24  C   UNL     1       1.399   2.897  21.085  0.00  0.00    +0.000 A 
ATOM     25  C   UNL     1       0.679   3.317  19.970  0.00  0.00    +0.000 A 
ATOM     26  C   UNL     1       1.325   3.499  18.747  0.00  0.00    +0.000 A 
ENDBRANCH  20  21
ENDBRANCH  15  20
ENDBRANCH   1  15
TORSDOF 8
ENDMDL
MODEL 9
REMARK VINA RESULT:      -7.5      0.744      1.233
REMARK  Name = 
REMARK  8 active torsions:
REMARK  status: ('A' for Active; 'I' for Inactive)
REMARK    1  A    between atoms: C_2  and  O_3
REMARK    2  A    between atoms: C_2  and  C_4
REMARK    3  A    between atoms: C_4  and  C_5
REMARK    4  A    between atoms: C_4  and  O_12
REMARK    5  A    between atoms: C_5  and  C_6
REMARK    6  A    between atoms: O_12  and  C_13
REMARK    7  A    between atoms: C_16  and  C_17
REMARK    8  A    between atoms: C_17  and  C_18
REMARK                            x       y       z     vdW  Elec       q    Type
REMARK                         _______ _______ _______ _____ _____    ______ ____
ROOT
ATOM      1  O   UNL     1       3.050   6.617  19.060  0.00  0.00    +0.000 OA
ENDROOT
BRANCH   1   2
ATOM      2  C   UNL     1       2.382   7.812  19.028  0.00  0.00    +0.000 A 
ATOM      3  C   UNL     1       1.665   8.131  20.184  0.00  0.00    +0.000 A 
ATOM      4  C   UNL     1       0.845   9.265  20.220  0.00  0.00    +0.000 A 
ATOM      5  C   UNL     1       0.742  10.103  19.102  0.00  0.00    +0.000 A 
ATOM      6  C   UNL     1       1.526   9.817  17.977  0.00  0.00    +0.000 A 
ATOM      7  C   UNL     1       2.347   8.686  17.944  0.00  0.00    +0.000 A 
BRANCH   5   8
ATOM      8  C   UNL     1      -0.232  11.255  19.077  0.00  0.00    +0.000 C 
BRANCH   8   9
ATOM      9  C   UNL     1      -1.551  10.978  18.401  0.00  0.00    +0.000 A 
ATOM     10  C   UNL     1      -2.701  11.706  18.745  0.00  0.00    +0.000 A 
ATOM     11  C   UNL     1      -3.899  11.507  18.056  0.00  0.00    +0.000 A 
ATOM     12  C   UNL     1      -3.964  10.574  17.023  0.00  0.00    +0.000 A 
ATOM     13  C   UNL     1      -2.837   9.826  16.690  0.00  0.00    +0.000 A 
ATOM     14  C   UNL     1      -1.637  10.022  17.378  0.00  0.00    +0.000 A 
ENDBRANCH   8   9
ENDBRANCH   5   8
ENDBRANCH   1   2
BRANCH   1  15
ATOM     15  C   UNL     1       3.212   5.906  17.818  0.00  0.00    +0.000 C 
BRANCH  15  17
ATOM     16  O   UNL     1       5.597   5.746  18.370  0.00  0.00    +0.000 OA
ATOM     17  C   UNL     1       4.712   5.785  17.527  0.00  0.00    +0.000 C 
BRANCH  17  18
ATOM     18  O   UNL     1       4.971   5.608  16.201  0.00  0.00    +0.000 OA
ATOM     19  H   UNL     1       5.509   4.797  16.069  0.00  0.00    +0.000 HD
ENDBRANCH  17  18
ENDBRANCH  15  17
BRANCH  15  20
ATOM     20  C   UNL     1       2.516   4.531  17.764  0.00  0.00    +0.000 C 
BRANCH  20  21
ATOM     21  C   UNL     1       2.361   3.796  19.075  0.00  0.00    +0.000 A 
ATOM     22  C   UNL     1       3.452   3.147  19.671  0.00  0.00    +0.000 A 
ATOM     23  C   UNL     1       3.307   2.490  20.893  0.00  0.00    +0.000 A 
ATOM     24  C   UNL     1       2.072   2.482  21.538  0.00  0.00    +0.000 A 
ATOM     25  C   UNL     1       0.985   3.135  20.963  0.00  0.00    +0.000 A 
ATOM     26  C   UNL     1       1.127   3.787  19.738  0.00  0.00    +0.000 A 
ENDBRANCH  20  21
ENDBRANCH  15  20
ENDBRANCH   1  15
TORSDOF 8
ENDMDL
