MODEL 1
REMARK VINA RESULT:      -8.2      0.000      0.000
REMARK  Name = 
REMARK  10 active torsions:
REMARK  status: ('A' for Active; 'I' for Inactive)
REMARK    1  A    between atoms: C_1  and  C_2
REMARK    2  A    between atoms: C_2  and  C_3
REMARK    3  A    between atoms: C_3  and  C_4
REMARK    4  A    between atoms: C_4  and  C_5
REMARK    5  A    between atoms: C_5  and  N_6
REMARK    6  A    between atoms: N_9  and  S_10
REMARK    7  A    between atoms: S_10  and  C_13
REMARK    8  A    between atoms: C_15  and  N_16
REMARK    9  A    between atoms: C_21  and  S_22
REMARK   10  A    between atoms: S_22  and  C_23
REMARK                            x       y       z     vdW  Elec       q    Type
REMARK                         _______ _______ _______ _____ _____    ______ ____
ROOT
ATOM      1  C   UNL     1       4.298   5.030  18.822  0.00  0.00    +0.000 A 
ATOM      2  C   UNL     1       4.268   3.930  19.706  0.00  0.00    +0.000 A 
ATOM      3  C   UNL     1       3.131   3.673  20.475  0.00  0.00    +0.000 A 
ATOM      4  C   UNL     1       2.025   4.521  20.395  0.00  0.00    +0.000 A 
ATOM      5  C   UNL     1       2.053   5.605  19.508  0.00  0.00    +0.000 A 
ATOM      6  C   UNL     1       3.170   5.865  18.686  0.00  0.00    +0.000 A 
ENDROOT
BRANCH   1   7
ATOM      7  S   UNL     1       5.807   5.246  17.889  0.00  0.00    +0.000 S 
ATOM      8  O   UNL     1       6.824   4.409  18.487  0.00  0.00    +0.000 OA
ATOM      9  O   UNL     1       6.059   6.662  17.737  0.00  0.00    +0.000 OA
BRANCH   7  13
ATOM     10  N   UNL     1       5.912   4.116  14.181  0.00  0.00    +0.000 N 
ATOM     11  C   UNL     1       6.375   4.714  15.320  0.00  0.00    +0.000 C 
ATOM     12  O   UNL     1       7.431   5.312  15.390  0.00  0.00    +0.000 OA
ATOM     13  N   UNL     1       5.497   4.612  16.387  0.00  0.00    +0.000 N 
ATOM     14  H   UNL     1       5.018   3.647  14.191  0.00  0.00    +0.000 HD
ATOM     15  H   UNL     1       4.607   4.140  16.322  0.00  0.00    +0.000 HD
BRANCH  10  16
ATOM     16  C   UNL     1       6.674   4.142  12.948  0.00  0.00    +0.000 C 
BRANCH  16  17
ATOM     17  C   UNL     1       6.235   3.078  11.939  0.00  0.00    +0.000 C 
BRANCH  17  18
ATOM     18  C   UNL     1       4.714   2.931  11.862  0.00  0.00    +0.000 C 
BRANCH  18  20
ATOM     19  C   UNL     1       3.070   3.423  10.019  0.00  0.00    +0.000 C 
ATOM     20  C   UNL     1       4.084   4.014  10.985  0.00  0.00    +0.000 C 
ENDBRANCH  18  20
ENDBRANCH  17  18
ENDBRANCH  16  17
ENDBRANCH  10  16
ENDBRANCH   7  13
ENDBRANCH   1   7
BRANCH   3  21
ATOM     21  N   UNL     1       3.086   2.492  21.349  0.00  0.00    +0.000 N 
ATOM     22  O   UNL     1       2.037   2.272  21.971  0.00  0.00    +0.000 OA
ATOM     23  O   UNL     1       4.110   1.798  21.430  0.00  0.00    +0.000 OA
ENDBRANCH   3  21
BRANCH   6  24
ATOM     24  S   UNL     1       3.061   7.342  17.681  0.00  0.00    +0.000 S 
BRANCH  24  25
ATOM     25  C   UNL     1       1.914   8.427  18.533  0.00  0.00    +0.000 A 
ATOM     26  C   UNL     1       1.748   8.290  19.923  0.00  0.00    +0.000 A 
ATOM     27  C   UNL     1       1.066   9.263  20.666  0.00  0.00    +0.000 A 
ATOM     28  C   UNL     1       0.545  10.383  20.025  0.00  0.00    +0.000 A 
ATOM     29 CL   UNL     1      -0.186  11.641  20.941  0.00  0.00    +0.000 Cl
ATOM     30  C   UNL     1       0.648  10.504  18.643  0.00  0.00    +0.000 A 
ATOM     31  C   UNL     1       1.317   9.523  17.901  0.00  0.00    +0.000 A 
ENDBRANCH  24  25
ENDBRANCH   6  24
TORSDOF 9
ENDMDL
MODEL 2
REMARK VINA RESULT:      -8.0      0.343      1.117
REMARK  Name = 
REMARK  10 active torsions:
REMARK  status: ('A' for Active; 'I' for Inactive)
REMARK    1  A    between atoms: C_1  and  C_2
REMARK    2  A    between atoms: C_2  and  C_3
REMARK    3  A    between atoms: C_3  and  C_4
REMARK    4  A    between atoms: C_4  and  C_5
REMARK    5  A    between atoms: C_5  and  N_6
REMARK    6  A    between atoms: N_9  and  S_10
REMARK    7  A    between atoms: S_10  and  C_13
REMARK    8  A    between atoms: C_15  and  N_16
REMARK    9  A    between atoms: C_21  and  S_22
REMARK   10  A    between atoms: S_22  and  C_23
REMARK                            x       y       z     vdW  Elec       q    Type
REMARK                         _______ _______ _______ _____ _____    ______ ____
ROOT
ATOM      1  C   UNL     1       4.374   4.876  18.750  0.00  0.00    +0.000 A 
ATOM      2  C   UNL     1       4.347   3.806  19.671  0.00  0.00    +0.000 A 
ATOM      3  C   UNL     1       3.205   3.564  20.438  0.00  0.00    +0.000 A 
ATOM      4  C   UNL     1       2.091   4.397  20.319  0.00  0.00    +0.000 A 
ATOM      5  C   UNL     1       2.116   5.450  19.395  0.00  0.00    +0.000 A 
ATOM      6  C   UNL     1       3.238   5.694  18.575  0.00  0.00    +0.000 A 
ENDROOT
BRANCH   1   7
ATOM      7  S   UNL     1       5.889   5.076  17.824  0.00  0.00    +0.000 S 
ATOM      8  O   UNL     1       6.950   4.426  18.561  0.00  0.00    +0.000 OA
ATOM      9  O   UNL     1       6.031   6.469  17.465  0.00  0.00    +0.000 OA
BRANCH   7  13
ATOM     10  N   UNL     1       6.002   3.637  14.225  0.00  0.00    +0.000 N 
ATOM     11  C   UNL     1       6.327   4.492  15.240  0.00  0.00    +0.000 C 
ATOM     12  O   UNL     1       7.078   5.439  15.115  0.00  0.00    +0.000 OA
ATOM     13  N   UNL     1       5.678   4.201  16.429  0.00  0.00    +0.000 N 
ATOM     14  H   UNL     1       5.359   2.878  14.397  0.00  0.00    +0.000 HD
ATOM     15  H   UNL     1       5.031   3.431  16.527  0.00  0.00    +0.000 HD
BRANCH  10  16
ATOM     16  C   UNL     1       6.556   3.796  12.894  0.00  0.00    +0.000 C 
BRANCH  16  17
ATOM     17  C   UNL     1       5.930   2.859  11.859  0.00  0.00    +0.000 C 
BRANCH  17  18
ATOM     18  C   UNL     1       4.416   3.045  11.734  0.00  0.00    +0.000 C 
BRANCH  18  20
ATOM     19  C   UNL     1       2.979   3.695   9.771  0.00  0.00    +0.000 C 
ATOM     20  C   UNL     1       4.063   4.149  10.736  0.00  0.00    +0.000 C 
ENDBRANCH  18  20
ENDBRANCH  17  18
ENDBRANCH  16  17
ENDBRANCH  10  16
ENDBRANCH   7  13
ENDBRANCH   1   7
BRANCH   3  21
ATOM     21  N   UNL     1       3.164   2.413  21.353  0.00  0.00    +0.000 N 
ATOM     22  O   UNL     1       4.150   1.664  21.382  0.00  0.00    +0.000 OA
ATOM     23  O   UNL     1       2.135   2.248  22.023  0.00  0.00    +0.000 OA
ENDBRANCH   3  21
BRANCH   6  24
ATOM     24  S   UNL     1       3.123   7.134  17.519  0.00  0.00    +0.000 S 
BRANCH  24  25
ATOM     25  C   UNL     1       2.229   8.365  18.469  0.00  0.00    +0.000 A 
ATOM     26  C   UNL     1       1.617   9.437  17.795  0.00  0.00    +0.000 A 
ATOM     27  C   UNL     1       0.707  10.275  18.452  0.00  0.00    +0.000 A 
ATOM     28  C   UNL     1       0.398  10.046  19.790  0.00  0.00    +0.000 A 
ATOM     29 CL   UNL     1      -0.809  10.991  20.572  0.00  0.00    +0.000 Cl
ATOM     30  C   UNL     1       1.038   9.027  20.487  0.00  0.00    +0.000 A 
ATOM     31  C   UNL     1       1.959   8.200  19.832  0.00  0.00    +0.000 A 
ENDBRANCH  24  25
ENDBRANCH   6  24
TORSDOF 9
ENDMDL
MODEL 3
REMARK VINA RESULT:      -8.0      1.409      1.762
REMARK  Name = 
REMARK  10 active torsions:
REMARK  status: ('A' for Active; 'I' for Inactive)
REMARK    1  A    between atoms: C_1  and  C_2
REMARK    2  A    between atoms: C_2  and  C_3
REMARK    3  A    between atoms: C_3  and  C_4
REMARK    4  A    between atoms: C_4  and  C_5
REMARK    5  A    between atoms: C_5  and  N_6
REMARK    6  A    between atoms: N_9  and  S_10
REMARK    7  A    between atoms: S_10  and  C_13
REMARK    8  A    between atoms: C_15  and  N_16
REMARK    9  A    between atoms: C_21  and  S_22
REMARK   10  A    between atoms: S_22  and  C_23
REMARK                            x       y       z     vdW  Elec       q    Type
REMARK                         _______ _______ _______ _____ _____    ______ ____
ROOT
ATOM      1  C   UNL     1       4.596   4.832  17.828  0.00  0.00    +0.000 A 
ATOM      2  C   UNL     1       4.314   3.507  18.225  0.00  0.00    +0.000 A 
ATOM      3  C   UNL     1       2.996   3.101  18.445  0.00  0.00    +0.000 A 
ATOM      4  C   UNL     1       1.949   4.013  18.299  0.00  0.00    +0.000 A 
ATOM      5  C   UNL     1       2.229   5.324  17.892  0.00  0.00    +0.000 A 
ATOM      6  C   UNL     1       3.546   5.752  17.621  0.00  0.00    +0.000 A 
ENDROOT
BRANCH   1   7
ATOM      7  S   UNL     1       6.320   5.225  17.571  0.00  0.00    +0.000 S 
ATOM      8  O   UNL     1       7.071   4.675  18.679  0.00  0.00    +0.000 OA
ATOM      9  O   UNL     1       6.434   6.635  17.273  0.00  0.00    +0.000 OA
BRANCH   7  13
ATOM     10  N   UNL     1       6.817   3.822  13.990  0.00  0.00    +0.000 N 
ATOM     11  C   UNL     1       6.306   4.652  14.948  0.00  0.00    +0.000 C 
ATOM     12  O   UNL     1       5.490   5.525  14.724  0.00  0.00    +0.000 OA
ATOM     13  N   UNL     1       6.775   4.372  16.222  0.00  0.00    +0.000 N 
ATOM     14  H   UNL     1       7.482   3.109  14.251  0.00  0.00    +0.000 HD
ATOM     15  H   UNL     1       7.431   3.629  16.414  0.00  0.00    +0.000 HD
BRANCH  10  16
ATOM     16  C   UNL     1       6.423   3.937  12.600  0.00  0.00    +0.000 C 
BRANCH  16  17
ATOM     17  C   UNL     1       6.341   2.591  11.878  0.00  0.00    +0.000 C 
BRANCH  17  18
ATOM     18  C   UNL     1       4.929   2.276  11.377  0.00  0.00    +0.000 C 
BRANCH  18  20
ATOM     19  C   UNL     1       3.237   3.638  10.102  0.00  0.00    +0.000 C 
ATOM     20  C   UNL     1       4.034   3.516  11.392  0.00  0.00    +0.000 C 
ENDBRANCH  18  20
ENDBRANCH  17  18
ENDBRANCH  16  17
ENDBRANCH  10  16
ENDBRANCH   7  13
ENDBRANCH   1   7
BRANCH   3  21
ATOM     21  N   UNL     1       2.707   1.704  18.802  0.00  0.00    +0.000 N 
ATOM     22  O   UNL     1       3.575   0.855  18.561  0.00  0.00    +0.000 OA
ATOM     23  O   UNL     1       1.601   1.457  19.304  0.00  0.00    +0.000 OA
ENDBRANCH   3  21
BRANCH   6  24
ATOM     24  S   UNL     1       3.723   7.482  17.197  0.00  0.00    +0.000 S 
BRANCH  24  25
ATOM     25  C   UNL     1       2.644   8.370  18.322  0.00  0.00    +0.000 A 
ATOM     26  C   UNL     1       1.939   9.493  17.849  0.00  0.00    +0.000 A 
ATOM     27  C   UNL     1       0.905  10.062  18.604  0.00  0.00    +0.000 A 
ATOM     28  C   UNL     1       0.564   9.514  19.837  0.00  0.00    +0.000 A 
ATOM     29 CL   UNL     1      -0.782  10.128  20.714  0.00  0.00    +0.000 Cl
ATOM     30  C   UNL     1       1.290   8.442  20.345  0.00  0.00    +0.000 A 
ATOM     31  C   UNL     1       2.334   7.883  19.596  0.00  0.00    +0.000 A 
ENDBRANCH  24  25
ENDBRANCH   6  24
TORSDOF 9
ENDMDL
MODEL 4
REMARK VINA RESULT:      -8.0      1.229      1.516
REMARK  Name = 
REMARK  10 active torsions:
REMARK  status: ('A' for Active; 'I' for Inactive)
REMARK    1  A    between atoms: C_1  and  C_2
REMARK    2  A    between atoms: C_2  and  C_3
REMARK    3  A    between atoms: C_3  and  C_4
REMARK    4  A    between atoms: C_4  and  C_5
REMARK    5  A    between atoms: C_5  and  N_6
REMARK    6  A    between atoms: N_9  and  S_10
REMARK    7  A    between atoms: S_10  and  C_13
REMARK    8  A    between atoms: C_15  and  N_16
REMARK    9  A    between atoms: C_21  and  S_22
REMARK   10  A    between atoms: S_22  and  C_23
REMARK                            x       y       z     vdW  Elec       q    Type
REMARK                         _______ _______ _______ _____ _____    ______ ____
ROOT
ATOM      1  C   UNL     1       3.655   5.797  18.625  0.00  0.00    +0.000 A 
ATOM      2  C   UNL     1       3.821   4.477  19.095  0.00  0.00    +0.000 A 
ATOM      3  C   UNL     1       3.022   3.993  20.135  0.00  0.00    +0.000 A 
ATOM      4  C   UNL     1       2.074   4.823  20.734  0.00  0.00    +0.000 A 
ATOM      5  C   UNL     1       1.903   6.129  20.257  0.00  0.00    +0.000 A 
ATOM      6  C   UNL     1       2.663   6.632  19.181  0.00  0.00    +0.000 A 
ENDROOT
BRANCH   1   7
ATOM      7  S   UNL     1       4.730   6.294  17.287  0.00  0.00    +0.000 S 
ATOM      8  O   UNL     1       6.026   6.606  17.850  0.00  0.00    +0.000 OA
ATOM      9  O   UNL     1       4.050   7.291  16.491  0.00  0.00    +0.000 OA
BRANCH   7  13
ATOM     10  N   UNL     1       5.741   3.686  14.600  0.00  0.00    +0.000 N 
ATOM     11  C   UNL     1       5.715   4.911  15.207  0.00  0.00    +0.000 C 
ATOM     12  O   UNL     1       6.282   5.894  14.774  0.00  0.00    +0.000 OA
ATOM     13  N   UNL     1       4.936   4.937  16.353  0.00  0.00    +0.000 N 
ATOM     14  H   UNL     1       5.234   2.915  15.010  0.00  0.00    +0.000 HD
ATOM     15  H   UNL     1       4.441   4.128  16.699  0.00  0.00    +0.000 HD
BRANCH  10  16
ATOM     16  C   UNL     1       6.477   3.465  13.371  0.00  0.00    +0.000 C 
BRANCH  16  17
ATOM     17  C   UNL     1       5.625   2.864  12.251  0.00  0.00    +0.000 C 
BRANCH  17  18
ATOM     18  C   UNL     1       4.600   3.855  11.694  0.00  0.00    +0.000 C 
BRANCH  18  20
ATOM     19  C   UNL     1       3.068   4.069   9.707  0.00  0.00    +0.000 C 
ATOM     20  C   UNL     1       3.555   3.158  10.823  0.00  0.00    +0.000 C 
ENDBRANCH  18  20
ENDBRANCH  17  18
ENDBRANCH  16  17
ENDBRANCH  10  16
ENDBRANCH   7  13
ENDBRANCH   1   7
BRANCH   3  21
ATOM     21  N   UNL     1       3.162   2.598  20.580  0.00  0.00    +0.000 N 
ATOM     22  O   UNL     1       3.367   1.734  19.716  0.00  0.00    +0.000 OA
ATOM     23  O   UNL     1       3.042   2.367  21.792  0.00  0.00    +0.000 OA
ENDBRANCH   3  21
BRANCH   6  24
ATOM     24  S   UNL     1       2.369   8.348  18.765  0.00  0.00    +0.000 S 
BRANCH  24  25
ATOM     25  C   UNL     1       1.215   8.956  19.997  0.00  0.00    +0.000 A 
ATOM     26  C   UNL     1       1.511   8.771  21.360  0.00  0.00    +0.000 A 
ATOM     27  C   UNL     1       0.781   9.440  22.351  0.00  0.00    +0.000 A 
ATOM     28  C   UNL     1      -0.250  10.301  21.989  0.00  0.00    +0.000 A 
ATOM     29 CL   UNL     1      -1.071  11.220  23.188  0.00  0.00    +0.000 Cl
ATOM     30  C   UNL     1      -0.594  10.449  20.649  0.00  0.00    +0.000 A 
ATOM     31  C   UNL     1       0.128   9.768  19.660  0.00  0.00    +0.000 A 
ENDBRANCH  24  25
ENDBRANCH   6  24
TORSDOF 9
ENDMDL
MODEL 5
REMARK VINA RESULT:      -8.0      1.340      1.689
REMARK  Name = 
REMARK  10 active torsions:
REMARK  status: ('A' for Active; 'I' for Inactive)
REMARK    1  A    between atoms: C_1  and  C_2
REMARK    2  A    between atoms: C_2  and  C_3
REMARK    3  A    between atoms: C_3  and  C_4
REMARK    4  A    between atoms: C_4  and  C_5
REMARK    5  A    between atoms: C_5  and  N_6
REMARK    6  A    between atoms: N_9  and  S_10
REMARK    7  A    between atoms: S_10  and  C_13
REMARK    8  A    between atoms: C_15  and  N_16
REMARK    9  A    between atoms: C_21  and  S_22
REMARK   10  A    between atoms: S_22  and  C_23
REMARK                            x       y       z     vdW  Elec       q    Type
REMARK                         _______ _______ _______ _____ _____    ______ ____
ROOT
ATOM      1  C   UNL     1       4.927   5.414  17.954  0.00  0.00    +0.000 A 
ATOM      2  C   UNL     1       5.146   4.131  18.500  0.00  0.00    +0.000 A 
ATOM      3  C   UNL     1       4.068   3.359  18.940  0.00  0.00    +0.000 A 
ATOM      4  C   UNL     1       2.769   3.864  18.868  0.00  0.00    +0.000 A 
ATOM      5  C   UNL     1       2.554   5.132  18.314  0.00  0.00    +0.000 A 
ATOM      6  C   UNL     1       3.617   5.918  17.821  0.00  0.00    +0.000 A 
ENDROOT
BRANCH   1   7
ATOM      7  S   UNL     1       6.386   6.298  17.420  0.00  0.00    +0.000 S 
ATOM      8  O   UNL     1       7.545   5.571  17.893  0.00  0.00    +0.000 OA
ATOM      9  O   UNL     1       6.237   7.692  17.772  0.00  0.00    +0.000 OA
BRANCH   7  13
ATOM     10  N   UNL     1       6.498   5.120  13.727  0.00  0.00    +0.000 N 
ATOM     11  C   UNL     1       6.513   4.977  15.087  0.00  0.00    +0.000 C 
ATOM     12  O   UNL     1       6.653   3.912  15.654  0.00  0.00    +0.000 OA
ATOM     13  N   UNL     1       6.398   6.180  15.764  0.00  0.00    +0.000 N 
ATOM     14  H   UNL     1       6.392   6.040  13.323  0.00  0.00    +0.000 HD
ATOM     15  H   UNL     1       6.310   7.069  15.294  0.00  0.00    +0.000 HD
BRANCH  10  16
ATOM     16  C   UNL     1       6.638   3.979  12.844  0.00  0.00    +0.000 C 
BRANCH  16  17
ATOM     17  C   UNL     1       5.351   3.166  12.694  0.00  0.00    +0.000 C 
BRANCH  17  18
ATOM     18  C   UNL     1       4.936   2.982  11.231  0.00  0.00    +0.000 C 
BRANCH  18  20
ATOM     19  C   UNL     1       3.189   4.127   9.825  0.00  0.00    +0.000 C 
ATOM     20  C   UNL     1       3.442   3.236  11.031  0.00  0.00    +0.000 C 
ENDBRANCH  18  20
ENDBRANCH  17  18
ENDBRANCH  16  17
ENDBRANCH  10  16
ENDBRANCH   7  13
ENDBRANCH   1   7
BRANCH   3  21
ATOM     21  N   UNL     1       4.298   2.000  19.454  0.00  0.00    +0.000 N 
ATOM     22  O   UNL     1       5.008   1.877  20.462  0.00  0.00    +0.000 OA
ATOM     23  O   UNL     1       3.788   1.057  18.833  0.00  0.00    +0.000 OA
ENDBRANCH   3  21
BRANCH   6  24
ATOM     24  S   UNL     1       3.164   7.545  17.229  0.00  0.00    +0.000 S 
BRANCH  24  25
ATOM     25  C   UNL     1       2.327   8.346  18.600  0.00  0.00    +0.000 A 
ATOM     26  C   UNL     1       1.676   9.574  18.380  0.00  0.00    +0.000 A 
ATOM     27  C   UNL     1       0.806  10.108  19.340  0.00  0.00    +0.000 A 
ATOM     28  C   UNL     1       0.578   9.419  20.527  0.00  0.00    +0.000 A 
ATOM     29 CL   UNL     1      -0.580  10.003  21.657  0.00  0.00    +0.000 Cl
ATOM     30  C   UNL     1       1.259   8.234  20.785  0.00  0.00    +0.000 A 
ATOM     31  C   UNL     1       2.140   7.709  19.831  0.00  0.00    +0.000 A 
ENDBRANCH  24  25
ENDBRANCH   6  24
TORSDOF 9
ENDMDL
MODEL 6
REMARK VINA RESULT:      -7.9      0.794      1.573
REMARK  Name = 
REMARK  10 active torsions:
REMARK  status: ('A' for Active; 'I' for Inactive)
REMARK    1  A    between atoms: C_1  and  C_2
REMARK    2  A    between atoms: C_2  and  C_3
REMARK    3  A    between atoms: C_3  and  C_4
REMARK    4  A    between atoms: C_4  and  C_5
REMARK    5  A    between atoms: C_5  and  N_6
REMARK    6  A    between atoms: N_9  and  S_10
REMARK    7  A    between atoms: S_10  and  C_13
REMARK    8  A    between atoms: C_15  and  N_16
REMARK    9  A    between atoms: C_21  and  S_22
REMARK   10  A    between atoms: S_22  and  C_23
REMARK                            x       y       z     vdW  Elec       q    Type
REMARK                         _______ _______ _______ _____ _____    ______ ____
ROOT
ATOM      1  C   UNL     1       4.169   4.963  19.028  0.00  0.00    +0.000 A 
ATOM      2  C   UNL     1       4.087   3.904  19.958  0.00  0.00    +0.000 A 
ATOM      3  C   UNL     1       2.878   3.619  20.598  0.00  0.00    +0.000 A 
ATOM      4  C   UNL     1       1.750   4.399  20.343  0.00  0.00    +0.000 A 
ATOM      5  C   UNL     1       1.830   5.441  19.410  0.00  0.00    +0.000 A 
ATOM      6  C   UNL     1       3.025   5.726  18.716  0.00  0.00    +0.000 A 
ENDROOT
BRANCH   1   7
ATOM      7  S   UNL     1       5.767   5.222  18.272  0.00  0.00    +0.000 S 
ATOM      8  O   UNL     1       6.779   4.783  19.209  0.00  0.00    +0.000 OA
ATOM      9  O   UNL     1       5.822   6.570  17.755  0.00  0.00    +0.000 OA
BRANCH   7  13
ATOM     10  N   UNL     1       6.098   3.536  14.795  0.00  0.00    +0.000 N 
ATOM     11  C   UNL     1       6.098   4.571  15.688  0.00  0.00    +0.000 C 
ATOM     12  O   UNL     1       6.277   5.732  15.380  0.00  0.00    +0.000 OA
ATOM     13  N   UNL     1       5.827   4.171  16.987  0.00  0.00    +0.000 N 
ATOM     14  H   UNL     1       5.928   2.595  15.120  0.00  0.00    +0.000 HD
ATOM     15  H   UNL     1       5.650   3.210  17.241  0.00  0.00    +0.000 HD
BRANCH  10  16
ATOM     16  C   UNL     1       6.331   3.756  13.381  0.00  0.00    +0.000 C 
BRANCH  16  17
ATOM     17  C   UNL     1       5.048   3.761  12.547  0.00  0.00    +0.000 C 
BRANCH  17  18
ATOM     18  C   UNL     1       5.022   2.646  11.498  0.00  0.00    +0.000 C 
BRANCH  18  20
ATOM     19  C   UNL     1       6.184   0.435  11.179  0.00  0.00    +0.000 C 
ATOM     20  C   UNL     1       6.369   1.928  11.404  0.00  0.00    +0.000 C 
ENDBRANCH  18  20
ENDBRANCH  17  18
ENDBRANCH  16  17
ENDBRANCH  10  16
ENDBRANCH   7  13
ENDBRANCH   1   7
BRANCH   3  21
ATOM     21  N   UNL     1       2.787   2.478  21.521  0.00  0.00    +0.000 N 
ATOM     22  O   UNL     1       3.799   1.781  21.680  0.00  0.00    +0.000 OA
ATOM     23  O   UNL     1       1.695   2.267  22.068  0.00  0.00    +0.000 OA
ENDBRANCH   3  21
BRANCH   6  24
ATOM     24  S   UNL     1       2.965   7.147  17.629  0.00  0.00    +0.000 S 
BRANCH  24  25
ATOM     25  C   UNL     1       2.080   8.417  18.537  0.00  0.00    +0.000 A 
ATOM     26  C   UNL     1       1.443   9.449  17.824  0.00  0.00    +0.000 A 
ATOM     27  C   UNL     1       0.540  10.311  18.459  0.00  0.00    +0.000 A 
ATOM     28  C   UNL     1       0.264  10.148  19.814  0.00  0.00    +0.000 A 
ATOM     29 CL   UNL     1      -0.934  11.120  20.575  0.00  0.00    +0.000 Cl
ATOM     30  C   UNL     1       0.930   9.171  20.546  0.00  0.00    +0.000 A 
ATOM     31  C   UNL     1       1.844   8.320  19.912  0.00  0.00    +0.000 A 
ENDBRANCH  24  25
ENDBRANCH   6  24
TORSDOF 9
ENDMDL
MODEL 7
REMARK VINA RESULT:      -7.8      1.469      1.703
REMARK  Name = 
REMARK  10 active torsions:
REMARK  status: ('A' for Active; 'I' for Inactive)
REMARK    1  A    between atoms: C_1  and  C_2
REMARK    2  A    between atoms: C_2  and  C_3
REMARK    3  A    between atoms: C_3  and  C_4
REMARK    4  A    between atoms: C_4  and  C_5
REMARK    5  A    between atoms: C_5  and  N_6
REMARK    6  A    between atoms: N_9  and  S_10
REMARK    7  A    between atoms: S_10  and  C_13
REMARK    8  A    between atoms: C_15  and  N_16
REMARK    9  A    between atoms: C_21  and  S_22
REMARK   10  A    between atoms: S_22  and  C_23
REMARK                            x       y       z     vdW  Elec       q    Type
REMARK                         _______ _______ _______ _____ _____    ______ ____
ROOT
ATOM      1  C   UNL     1       4.611   4.957  18.088  0.00  0.00    +0.000 A 
ATOM      2  C   UNL     1       4.378   3.604  18.418  0.00  0.00    +0.000 A 
ATOM      3  C   UNL     1       3.072   3.118  18.522  0.00  0.00    +0.000 A 
ATOM      4  C   UNL     1       1.989   3.976  18.329  0.00  0.00    +0.000 A 
ATOM      5  C   UNL     1       2.223   5.315  17.990  0.00  0.00    +0.000 A 
ATOM      6  C   UNL     1       3.529   5.824  17.834  0.00  0.00    +0.000 A 
ENDROOT
BRANCH   1   7
ATOM      7  S   UNL     1       6.325   5.453  17.978  0.00  0.00    +0.000 S 
ATOM      8  O   UNL     1       7.140   4.332  18.394  0.00  0.00    +0.000 OA
ATOM      9  O   UNL     1       6.482   6.726  18.645  0.00  0.00    +0.000 OA
BRANCH   7  13
ATOM     10  N   UNL     1       6.778   5.083  14.144  0.00  0.00    +0.000 N 
ATOM     11  C   UNL     1       6.484   4.672  15.414  0.00  0.00    +0.000 C 
ATOM     12  O   UNL     1       6.171   3.534  15.702  0.00  0.00    +0.000 OA
ATOM     13  N   UNL     1       6.620   5.676  16.359  0.00  0.00    +0.000 N 
ATOM     14  H   UNL     1       7.045   6.043  13.979  0.00  0.00    +0.000 HD
ATOM     15  H   UNL     1       6.908   6.615  16.125  0.00  0.00    +0.000 HD
BRANCH  10  16
ATOM     16  C   UNL     1       6.724   4.170  13.020  0.00  0.00    +0.000 C 
BRANCH  16  17
ATOM     17  C   UNL     1       5.328   3.594  12.771  0.00  0.00    +0.000 C 
BRANCH  17  18
ATOM     18  C   UNL     1       5.191   2.956  11.386  0.00  0.00    +0.000 C 
BRANCH  18  20
ATOM     19  C   UNL     1       7.151   1.468  10.850  0.00  0.00    +0.000 C 
ATOM     20  C   UNL     1       5.723   1.522  11.370  0.00  0.00    +0.000 C 
ENDBRANCH  18  20
ENDBRANCH  17  18
ENDBRANCH  16  17
ENDBRANCH  10  16
ENDBRANCH   7  13
ENDBRANCH   1   7
BRANCH   3  21
ATOM     21  N   UNL     1       2.838   1.694  18.808  0.00  0.00    +0.000 N 
ATOM     22  O   UNL     1       1.745   1.375  19.295  0.00  0.00    +0.000 OA
ATOM     23  O   UNL     1       3.760   0.901  18.566  0.00  0.00    +0.000 OA
ENDBRANCH   3  21
BRANCH   6  24
ATOM     24  S   UNL     1       3.637   7.577  17.485  0.00  0.00    +0.000 S 
BRANCH  24  25
ATOM     25  C   UNL     1       2.258   8.330  18.351  0.00  0.00    +0.000 A 
ATOM     26  C   UNL     1       2.039   8.004  19.702  0.00  0.00    +0.000 A 
ATOM     27  C   UNL     1       1.144   8.745  20.485  0.00  0.00    +0.000 A 
ATOM     28  C   UNL     1       0.461   9.821  19.924  0.00  0.00    +0.000 A 
ATOM     29 CL   UNL     1      -0.545  10.812  20.905  0.00  0.00    +0.000 Cl
ATOM     30  C   UNL     1       0.622  10.119  18.575  0.00  0.00    +0.000 A 
ATOM     31  C   UNL     1       1.506   9.368  17.791  0.00  0.00    +0.000 A 
ENDBRANCH  24  25
ENDBRANCH   6  24
TORSDOF 9
ENDMDL
MODEL 8
REMARK VINA RESULT:      -7.8      1.144      1.491
REMARK  Name = 
REMARK  10 active torsions:
REMARK  status: ('A' for Active; 'I' for Inactive)
REMARK    1  A    between atoms: C_1  and  C_2
REMARK    2  A    between atoms: C_2  and  C_3
REMARK    3  A    between atoms: C_3  and  C_4
REMARK    4  A    between atoms: C_4  and  C_5
REMARK    5  A    between atoms: C_5  and  N_6
REMARK    6  A    between atoms: N_9  and  S_10
REMARK    7  A    between atoms: S_10  and  C_13
REMARK    8  A    between atoms: C_15  and  N_16
REMARK    9  A    between atoms: C_21  and  S_22
REMARK   10  A    between atoms: S_22  and  C_23
REMARK                            x       y       z     vdW  Elec       q    Type
REMARK                         _______ _______ _______ _____ _____    ______ ____
ROOT
ATOM      1  C   UNL     1       5.048   5.370  18.323  0.00  0.00    +0.000 A 
ATOM      2  C   UNL     1       5.202   4.198  19.095  0.00  0.00    +0.000 A 
ATOM      3  C   UNL     1       4.089   3.586  19.678  0.00  0.00    +0.000 A 
ATOM      4  C   UNL     1       2.821   4.148  19.526  0.00  0.00    +0.000 A 
ATOM      5  C   UNL     1       2.669   5.304  18.750  0.00  0.00    +0.000 A 
ATOM      6  C   UNL     1       3.767   5.920  18.112  0.00  0.00    +0.000 A 
ENDROOT
BRANCH   1   7
ATOM      7  S   UNL     1       6.545   6.051  17.624  0.00  0.00    +0.000 S 
ATOM      8  O   UNL     1       7.648   5.204  18.023  0.00  0.00    +0.000 OA
ATOM      9  O   UNL     1       6.596   7.464  17.927  0.00  0.00    +0.000 OA
BRANCH   7  13
ATOM     10  N   UNL     1       6.215   4.748  13.987  0.00  0.00    +0.000 N 
ATOM     11  C   UNL     1       6.352   4.649  15.343  0.00  0.00    +0.000 C 
ATOM     12  O   UNL     1       6.470   3.595  15.937  0.00  0.00    +0.000 OA
ATOM     13  N   UNL     1       6.388   5.879  15.981  0.00  0.00    +0.000 N 
ATOM     14  H   UNL     1       6.135   5.659  13.558  0.00  0.00    +0.000 HD
ATOM     15  H   UNL     1       6.318   6.756  15.486  0.00  0.00    +0.000 HD
BRANCH  10  16
ATOM     16  C   UNL     1       6.187   3.572  13.140  0.00  0.00    +0.000 C 
BRANCH  16  17
ATOM     17  C   UNL     1       5.049   3.586  12.117  0.00  0.00    +0.000 C 
BRANCH  17  18
ATOM     18  C   UNL     1       5.000   2.310  11.273  0.00  0.00    +0.000 C 
BRANCH  18  20
ATOM     19  C   UNL     1       6.146   0.067  11.257  0.00  0.00    +0.000 C 
ATOM     20  C   UNL     1       6.341   1.575  11.280  0.00  0.00    +0.000 C 
ENDBRANCH  18  20
ENDBRANCH  17  18
ENDBRANCH  16  17
ENDBRANCH  10  16
ENDBRANCH   7  13
ENDBRANCH   1   7
BRANCH   3  21
ATOM     21  N   UNL     1       4.250   2.333  20.431  0.00  0.00    +0.000 N 
ATOM     22  O   UNL     1       3.526   2.156  21.420  0.00  0.00    +0.000 OA
ATOM     23  O   UNL     1       5.120   1.538  20.044  0.00  0.00    +0.000 OA
ENDBRANCH   3  21
BRANCH   6  24
ATOM     24  S   UNL     1       3.398   7.436  17.235  0.00  0.00    +0.000 S 
BRANCH  24  25
ATOM     25  C   UNL     1       2.174   8.289  18.232  0.00  0.00    +0.000 A 
ATOM     26  C   UNL     1       2.027   7.933  19.585  0.00  0.00    +0.000 A 
ATOM     27  C   UNL     1       1.275   8.728  20.461  0.00  0.00    +0.000 A 
ATOM     28  C   UNL     1       0.665   9.887  19.991  0.00  0.00    +0.000 A 
ATOM     29 CL   UNL     1      -0.157  10.934  21.081  0.00  0.00    +0.000 Cl
ATOM     30  C   UNL     1       0.751  10.222  18.644  0.00  0.00    +0.000 A 
ATOM     31  C   UNL     1       1.490   9.417  17.767  0.00  0.00    +0.000 A 
ENDBRANCH  24  25
ENDBRANCH   6  24
TORSDOF 9
ENDMDL
MODEL 9
REMARK VINA RESULT:      -7.8      1.369      1.953
REMARK  Name = 
REMARK  10 active torsions:
REMARK  status: ('A' for Active; 'I' for Inactive)
REMARK    1  A    between atoms: C_1  and  C_2
REMARK    2  A    between atoms: C_2  and  C_3
REMARK    3  A    between atoms: C_3  and  C_4
REMARK    4  A    between atoms: C_4  and  C_5
REMARK    5  A    between atoms: C_5  and  N_6
REMARK    6  A    between atoms: N_9  and  S_10
REMARK    7  A    between atoms: S_10  and  C_13
REMARK    8  A    between atoms: C_15  and  N_16
REMARK    9  A    between atoms: C_21  and  S_22
REMARK   10  A    between atoms: S_22  and  C_23
REMARK                            x       y       z     vdW  Elec       q    Type
REMARK                         _______ _______ _______ _____ _____    ______ ____
ROOT
ATOM      1  C   UNL     1       5.070   5.267  18.051  0.00  0.00    +0.000 A 
ATOM      2  C   UNL     1       5.271   4.030  18.703  0.00  0.00    +0.000 A 
ATOM      3  C   UNL     1       4.182   3.312  19.203  0.00  0.00    +0.000 A 
ATOM      4  C   UNL     1       2.890   3.826  19.086  0.00  0.00    +0.000 A 
ATOM      5  C   UNL     1       2.692   5.047  18.427  0.00  0.00    +0.000 A 
ATOM      6  C   UNL     1       3.767   5.775  17.874  0.00  0.00    +0.000 A 
ENDROOT
BRANCH   1   7
ATOM      7  S   UNL     1       6.542   6.084  17.450  0.00  0.00    +0.000 S 
ATOM      8  O   UNL     1       7.689   5.349  17.937  0.00  0.00    +0.000 OA
ATOM      9  O   UNL     1       6.436   7.497  17.737  0.00  0.00    +0.000 OA
BRANCH   7  13
ATOM     10  N   UNL     1       6.491   4.726  13.818  0.00  0.00    +0.000 N 
ATOM     11  C   UNL     1       6.512   4.647  15.182  0.00  0.00    +0.000 C 
ATOM     12  O   UNL     1       6.560   3.602  15.800  0.00  0.00    +0.000 OA
ATOM     13  N   UNL     1       6.519   5.887  15.802  0.00  0.00    +0.000 N 
ATOM     14  H   UNL     1       6.465   5.631  13.370  0.00  0.00    +0.000 HD
ATOM     15  H   UNL     1       6.508   6.756  15.289  0.00  0.00    +0.000 HD
BRANCH  10  16
ATOM     16  C   UNL     1       6.512   3.536  12.990  0.00  0.00    +0.000 C 
BRANCH  16  17
ATOM     17  C   UNL     1       5.419   3.522  11.919  0.00  0.00    +0.000 C 
BRANCH  17  18
ATOM     18  C   UNL     1       5.116   2.112  11.405  0.00  0.00    +0.000 C 
BRANCH  18  20
ATOM     19  C   UNL     1       6.210  -0.153  11.288  0.00  0.00    +0.000 C 
ATOM     20  C   UNL     1       6.397   1.342  11.080  0.00  0.00    +0.000 C 
ENDBRANCH  18  20
ENDBRANCH  17  18
ENDBRANCH  16  17
ENDBRANCH  10  16
ENDBRANCH   7  13
ENDBRANCH   1   7
BRANCH   3  21
ATOM     21  N   UNL     1       4.393   1.998  19.829  0.00  0.00    +0.000 N 
ATOM     22  O   UNL     1       4.865   1.973  20.974  0.00  0.00    +0.000 OA
ATOM     23  O   UNL     1       4.109   0.992  19.163  0.00  0.00    +0.000 OA
ENDBRANCH   3  21
BRANCH   6  24
ATOM     24  S   UNL     1       3.336   7.353  17.147  0.00  0.00    +0.000 S 
BRANCH  24  25
ATOM     25  C   UNL     1       2.463   8.256  18.428  0.00  0.00    +0.000 A 
ATOM     26  C   UNL     1       1.854   9.482  18.105  0.00  0.00    +0.000 A 
ATOM     27  C   UNL     1       0.957  10.095  18.991  0.00  0.00    +0.000 A 
ATOM     28  C   UNL     1       0.660   9.486  20.206  0.00  0.00    +0.000 A 
ATOM     29 CL   UNL     1      -0.530  10.165  21.246  0.00  0.00    +0.000 Cl
ATOM     30  C   UNL     1       1.298   8.303  20.566  0.00  0.00    +0.000 A 
ATOM     31  C   UNL     1       2.205   7.700  19.686  0.00  0.00    +0.000 A 
ENDBRANCH  24  25
ENDBRANCH   6  24
TORSDOF 9
ENDMDL
