MODEL 1
REMARK VINA RESULT:      -5.2      0.000      0.000
REMARK  Name = 
REMARK  7 active torsions:
REMARK  status: ('A' for Active; 'I' for Inactive)
REMARK    1  A    between atoms: C_1  and  N_2
REMARK    2  A    between atoms: N_2  and  C_3
REMARK    3  A    between atoms: C_7  and  S_8
REMARK    4  A    between atoms: S_8  and  C_9
REMARK    5  A    between atoms: C_9  and  C_10
REMARK    6  A    between atoms: C_10  and  C_11
REMARK    7  A    between atoms: C_11  and  C_12
REMARK                            x       y       z     vdW  Elec       q    Type
REMARK                         _______ _______ _______ _____ _____    ______ ____
ROOT
ATOM      1  C   UNL     1       7.329   6.875  17.221  0.00  0.00    +0.000 C 
ATOM      2  N   UNL     1       7.128   5.859  18.235  0.00  0.00    +0.000 N 
ATOM      3  C   UNL     1       8.012   5.847  19.391  0.00  0.00    +0.000 C 
ATOM      4  C   UNL     1       6.011   5.069  18.272  0.00  0.00    +0.000 A 
ATOM      5  N   UNL     1       5.756   4.173  19.213  0.00  0.00    +0.000 NA
ATOM      6  N   UNL     1       4.572   3.481  19.021  0.00  0.00    +0.000 NA
ATOM      7  C   UNL     1       3.956   3.869  17.930  0.00  0.00    +0.000 A 
ATOM      8  S   UNL     1       4.749   5.122  17.080  0.00  0.00    +0.000 S 
ENDROOT
BRANCH   7   9
ATOM      9  S   UNL     1       2.458   3.156  17.365  0.00  0.00    +0.000 S 
BRANCH   9  10
ATOM     10  C   UNL     1       2.005   2.077  18.760  0.00  0.00    +0.000 C 
BRANCH  10  11
ATOM     11  C   UNL     1       0.773   2.649  19.472  0.00  0.00    +0.000 C 
BRANCH  11  12
ATOM     12  C   UNL     1       1.128   3.266  20.829  0.00  0.00    +0.000 C 
BRANCH  12  13
ATOM     13  C   UNL     1       1.511   4.729  20.671  0.00  0.00    +0.000 C 
ATOM     14  N   UNL     1       1.829   5.941  20.541  0.00  0.00    +0.000 NA
ENDBRANCH  12  13
ENDBRANCH  11  12
ENDBRANCH  10  11
ENDBRANCH   9  10
ENDBRANCH   7   9
TORSDOF 5
ENDMDL
MODEL 2
REMARK VINA RESULT:      -5.1      3.025      3.957
REMARK  Name = 
REMARK  7 active torsions:
REMARK  status: ('A' for Active; 'I' for Inactive)
REMARK    1  A    between atoms: C_1  and  N_2
REMARK    2  A    between atoms: N_2  and  C_3
REMARK    3  A    between atoms: C_7  and  S_8
REMARK    4  A    between atoms: S_8  and  C_9
REMARK    5  A    between atoms: C_9  and  C_10
REMARK    6  A    between atoms: C_10  and  C_11
REMARK    7  A    between atoms: C_11  and  C_12
REMARK                            x       y       z     vdW  Elec       q    Type
REMARK                         _______ _______ _______ _____ _____    ______ ____
ROOT
ATOM      1  C   UNL     1       6.059   3.651  12.777  0.00  0.00    +0.000 C 
ATOM      2  N   UNL     1       6.967   4.527  13.492  0.00  0.00    +0.000 N 
ATOM      3  C   UNL     1       7.911   5.325  12.724  0.00  0.00    +0.000 C 
ATOM      4  C   UNL     1       6.816   4.812  14.822  0.00  0.00    +0.000 A 
ATOM      5  N   UNL     1       7.580   5.654  15.500  0.00  0.00    +0.000 NA
ATOM      6  N   UNL     1       7.246   5.759  16.839  0.00  0.00    +0.000 NA
ATOM      7  C   UNL     1       6.231   4.987  17.147  0.00  0.00    +0.000 A 
ATOM      8  S   UNL     1       5.589   4.107  15.829  0.00  0.00    +0.000 S 
ENDROOT
BRANCH   7   9
ATOM      9  S   UNL     1       5.590   4.841  18.771  0.00  0.00    +0.000 S 
BRANCH   9  10
ATOM     10  C   UNL     1       3.987   5.691  18.621  0.00  0.00    +0.000 C 
BRANCH  10  11
ATOM     11  C   UNL     1       2.855   4.716  18.971  0.00  0.00    +0.000 C 
BRANCH  11  12
ATOM     12  C   UNL     1       2.227   5.030  20.332  0.00  0.00    +0.000 C 
BRANCH  12  13
ATOM     13  C   UNL     1       2.344   3.837  21.267  0.00  0.00    +0.000 C 
ATOM     14  N   UNL     1       2.441   2.848  22.042  0.00  0.00    +0.000 NA
ENDBRANCH  12  13
ENDBRANCH  11  12
ENDBRANCH  10  11
ENDBRANCH   9  10
ENDBRANCH   7   9
TORSDOF 5
ENDMDL
MODEL 3
REMARK VINA RESULT:      -5.1      3.490      6.132
REMARK  Name = 
REMARK  7 active torsions:
REMARK  status: ('A' for Active; 'I' for Inactive)
REMARK    1  A    between atoms: C_1  and  N_2
REMARK    2  A    between atoms: N_2  and  C_3
REMARK    3  A    between atoms: C_7  and  S_8
REMARK    4  A    between atoms: S_8  and  C_9
REMARK    5  A    between atoms: C_9  and  C_10
REMARK    6  A    between atoms: C_10  and  C_11
REMARK    7  A    between atoms: C_11  and  C_12
REMARK                            x       y       z     vdW  Elec       q    Type
REMARK                         _______ _______ _______ _____ _____    ______ ____
ROOT
ATOM      1  C   UNL     1       1.527   3.506  18.878  0.00  0.00    +0.000 C 
ATOM      2  N   UNL     1       2.797   3.470  19.578  0.00  0.00    +0.000 N 
ATOM      3  C   UNL     1       2.869   2.770  20.852  0.00  0.00    +0.000 C 
ATOM      4  C   UNL     1       3.970   3.856  18.989  0.00  0.00    +0.000 A 
ATOM      5  N   UNL     1       5.159   3.782  19.567  0.00  0.00    +0.000 NA
ATOM      6  N   UNL     1       6.195   4.254  18.778  0.00  0.00    +0.000 NA
ATOM      7  C   UNL     1       5.763   4.680  17.616  0.00  0.00    +0.000 A 
ATOM      8  S   UNL     1       4.078   4.507  17.382  0.00  0.00    +0.000 S 
ENDROOT
BRANCH   7   9
ATOM      9  S   UNL     1       6.808   5.391  16.401  0.00  0.00    +0.000 S 
BRANCH   9  10
ATOM     10  C   UNL     1       5.833   5.155  14.882  0.00  0.00    +0.000 C 
BRANCH  10  11
ATOM     11  C   UNL     1       6.068   3.741  14.336  0.00  0.00    +0.000 C 
BRANCH  11  12
ATOM     12  C   UNL     1       6.391   3.749  12.839  0.00  0.00    +0.000 C 
BRANCH  12  13
ATOM     13  C   UNL     1       5.159   3.395  12.020  0.00  0.00    +0.000 C 
ATOM     14  N   UNL     1       4.138   3.102  11.343  0.00  0.00    +0.000 NA
ENDBRANCH  12  13
ENDBRANCH  11  12
ENDBRANCH  10  11
ENDBRANCH   9  10
ENDBRANCH   7   9
TORSDOF 5
ENDMDL
MODEL 4
REMARK VINA RESULT:      -5.0      3.416      4.596
REMARK  Name = 
REMARK  7 active torsions:
REMARK  status: ('A' for Active; 'I' for Inactive)
REMARK    1  A    between atoms: C_1  and  N_2
REMARK    2  A    between atoms: N_2  and  C_3
REMARK    3  A    between atoms: C_7  and  S_8
REMARK    4  A    between atoms: S_8  and  C_9
REMARK    5  A    between atoms: C_9  and  C_10
REMARK    6  A    between atoms: C_10  and  C_11
REMARK    7  A    between atoms: C_11  and  C_12
REMARK                            x       y       z     vdW  Elec       q    Type
REMARK                         _______ _______ _______ _____ _____    ______ ____
ROOT
ATOM      1  C   UNL     1       5.367   3.278  12.556  0.00  0.00    +0.000 C 
ATOM      2  N   UNL     1       6.505   4.069  12.982  0.00  0.00    +0.000 N 
ATOM      3  C   UNL     1       7.436   4.547  11.971  0.00  0.00    +0.000 C 
ATOM      4  C   UNL     1       6.610   4.580  14.247  0.00  0.00    +0.000 A 
ATOM      5  N   UNL     1       7.597   5.359  14.662  0.00  0.00    +0.000 NA
ATOM      6  N   UNL     1       7.496   5.731  15.991  0.00  0.00    +0.000 NA
ATOM      7  C   UNL     1       6.429   5.220  16.557  0.00  0.00    +0.000 A 
ATOM      8  S   UNL     1       5.455   4.283  15.510  0.00  0.00    +0.000 S 
ENDROOT
BRANCH   7   9
ATOM      9  S   UNL     1       6.031   5.451  18.248  0.00  0.00    +0.000 S 
BRANCH   9  10
ATOM     10  C   UNL     1       4.294   5.986  18.157  0.00  0.00    +0.000 C 
BRANCH  10  11
ATOM     11  C   UNL     1       3.563   5.577  19.442  0.00  0.00    +0.000 C 
BRANCH  11  12
ATOM     12  C   UNL     1       2.140   5.083  19.161  0.00  0.00    +0.000 C 
BRANCH  12  13
ATOM     13  C   UNL     1       2.138   4.053  18.044  0.00  0.00    +0.000 C 
ATOM     14  N   UNL     1       2.136   3.199  17.117  0.00  0.00    +0.000 NA
ENDBRANCH  12  13
ENDBRANCH  11  12
ENDBRANCH  10  11
ENDBRANCH   9  10
ENDBRANCH   7   9
TORSDOF 5
ENDMDL
MODEL 5
REMARK VINA RESULT:      -5.0      2.141      2.944
REMARK  Name = 
REMARK  7 active torsions:
REMARK  status: ('A' for Active; 'I' for Inactive)
REMARK    1  A    between atoms: C_1  and  N_2
REMARK    2  A    between atoms: N_2  and  C_3
REMARK    3  A    between atoms: C_7  and  S_8
REMARK    4  A    between atoms: S_8  and  C_9
REMARK    5  A    between atoms: C_9  and  C_10
REMARK    6  A    between atoms: C_10  and  C_11
REMARK    7  A    between atoms: C_11  and  C_12
REMARK                            x       y       z     vdW  Elec       q    Type
REMARK                         _______ _______ _______ _____ _____    ______ ____
ROOT
ATOM      1  C   UNL     1       7.756   4.537  17.795  0.00  0.00    +0.000 C 
ATOM      2  N   UNL     1       6.572   4.732  16.982  0.00  0.00    +0.000 N 
ATOM      3  C   UNL     1       6.617   4.334  15.583  0.00  0.00    +0.000 C 
ATOM      4  C   UNL     1       5.355   5.048  17.522  0.00  0.00    +0.000 A 
ATOM      5  N   UNL     1       4.235   5.173  16.827  0.00  0.00    +0.000 NA
ATOM      6  N   UNL     1       3.136   5.521  17.593  0.00  0.00    +0.000 NA
ATOM      7  C   UNL     1       3.452   5.655  18.859  0.00  0.00    +0.000 A 
ATOM      8  S   UNL     1       5.093   5.335  19.215  0.00  0.00    +0.000 S 
ENDROOT
BRANCH   7   9
ATOM      9  S   UNL     1       2.304   6.142  20.091  0.00  0.00    +0.000 S 
BRANCH   9  10
ATOM     10  C   UNL     1       2.006   4.575  20.968  0.00  0.00    +0.000 C 
BRANCH  10  11
ATOM     11  C   UNL     1       0.999   3.729  20.178  0.00  0.00    +0.000 C 
BRANCH  11  12
ATOM     12  C   UNL     1       1.442   2.267  20.065  0.00  0.00    +0.000 C 
BRANCH  12  13
ATOM     13  C   UNL     1       2.452   2.095  18.941  0.00  0.00    +0.000 C 
ATOM     14  N   UNL     1       3.289   1.953  18.011  0.00  0.00    +0.000 NA
ENDBRANCH  12  13
ENDBRANCH  11  12
ENDBRANCH  10  11
ENDBRANCH   9  10
ENDBRANCH   7   9
TORSDOF 5
ENDMDL
MODEL 6
REMARK VINA RESULT:      -5.0      3.507      4.495
REMARK  Name = 
REMARK  7 active torsions:
REMARK  status: ('A' for Active; 'I' for Inactive)
REMARK    1  A    between atoms: C_1  and  N_2
REMARK    2  A    between atoms: N_2  and  C_3
REMARK    3  A    between atoms: C_7  and  S_8
REMARK    4  A    between atoms: S_8  and  C_9
REMARK    5  A    between atoms: C_9  and  C_10
REMARK    6  A    between atoms: C_10  and  C_11
REMARK    7  A    between atoms: C_11  and  C_12
REMARK                            x       y       z     vdW  Elec       q    Type
REMARK                         _______ _______ _______ _____ _____    ______ ____
ROOT
ATOM      1  C   UNL     1       5.875   3.436  12.804  0.00  0.00    +0.000 C 
ATOM      2  N   UNL     1       6.824   4.338  13.426  0.00  0.00    +0.000 N 
ATOM      3  C   UNL     1       7.721   5.103  12.572  0.00  0.00    +0.000 C 
ATOM      4  C   UNL     1       6.753   4.677  14.750  0.00  0.00    +0.000 A 
ATOM      5  N   UNL     1       7.557   5.544  15.347  0.00  0.00    +0.000 NA
ATOM      6  N   UNL     1       7.303   5.704  16.699  0.00  0.00    +0.000 NA
ATOM      7  C   UNL     1       6.309   4.948  17.097  0.00  0.00    +0.000 A 
ATOM      8  S   UNL     1       5.589   4.016  15.858  0.00  0.00    +0.000 S 
ENDROOT
BRANCH   7   9
ATOM      9  S   UNL     1       5.766   4.869  18.762  0.00  0.00    +0.000 S 
BRANCH   9  10
ATOM     10  C   UNL     1       3.957   4.948  18.572  0.00  0.00    +0.000 C 
BRANCH  10  11
ATOM     11  C   UNL     1       3.569   6.275  17.906  0.00  0.00    +0.000 C 
BRANCH  11  12
ATOM     12  C   UNL     1       2.616   7.098  18.778  0.00  0.00    +0.000 C 
BRANCH  12  13
ATOM     13  C   UNL     1       2.275   8.418  18.104  0.00  0.00    +0.000 C 
ATOM     14  N   UNL     1       1.993   9.512  17.546  0.00  0.00    +0.000 NA
ENDBRANCH  12  13
ENDBRANCH  11  12
ENDBRANCH  10  11
ENDBRANCH   9  10
ENDBRANCH   7   9
TORSDOF 5
ENDMDL
MODEL 7
REMARK VINA RESULT:      -4.9      2.761      6.107
REMARK  Name = 
REMARK  7 active torsions:
REMARK  status: ('A' for Active; 'I' for Inactive)
REMARK    1  A    between atoms: C_1  and  N_2
REMARK    2  A    between atoms: N_2  and  C_3
REMARK    3  A    between atoms: C_7  and  S_8
REMARK    4  A    between atoms: S_8  and  C_9
REMARK    5  A    between atoms: C_9  and  C_10
REMARK    6  A    between atoms: C_10  and  C_11
REMARK    7  A    between atoms: C_11  and  C_12
REMARK                            x       y       z     vdW  Elec       q    Type
REMARK                         _______ _______ _______ _____ _____    ______ ____
ROOT
ATOM      1  C   UNL     1       0.710   2.468  18.885  0.00  0.00    +0.000 C 
ATOM      2  N   UNL     1       1.531   3.291  19.752  0.00  0.00    +0.000 N 
ATOM      3  C   UNL     1       1.474   3.060  21.187  0.00  0.00    +0.000 C 
ATOM      4  C   UNL     1       2.522   4.102  19.269  0.00  0.00    +0.000 A 
ATOM      5  N   UNL     1       3.337   4.822  20.026  0.00  0.00    +0.000 NA
ATOM      6  N   UNL     1       4.243   5.581  19.306  0.00  0.00    +0.000 NA
ATOM      7  C   UNL     1       4.091   5.421  18.014  0.00  0.00    +0.000 A 
ATOM      8  S   UNL     1       2.864   4.313  17.580  0.00  0.00    +0.000 S 
ENDROOT
BRANCH   7   9
ATOM      9  S   UNL     1       5.043   6.280  16.818  0.00  0.00    +0.000 S 
BRANCH   9  10
ATOM     10  C   UNL     1       6.693   5.550  17.056  0.00  0.00    +0.000 C 
BRANCH  10  11
ATOM     11  C   UNL     1       7.082   4.744  15.810  0.00  0.00    +0.000 C 
BRANCH  11  12
ATOM     12  C   UNL     1       5.866   4.098  15.140  0.00  0.00    +0.000 C 
BRANCH  12  13
ATOM     13  C   UNL     1       6.147   3.812  13.674  0.00  0.00    +0.000 C 
ATOM     14  N   UNL     1       6.379   3.575  12.458  0.00  0.00    +0.000 NA
ENDBRANCH  12  13
ENDBRANCH  11  12
ENDBRANCH  10  11
ENDBRANCH   9  10
ENDBRANCH   7   9
TORSDOF 5
ENDMDL
MODEL 8
REMARK VINA RESULT:      -4.9      2.650      6.042
REMARK  Name = 
REMARK  7 active torsions:
REMARK  status: ('A' for Active; 'I' for Inactive)
REMARK    1  A    between atoms: C_1  and  N_2
REMARK    2  A    between atoms: N_2  and  C_3
REMARK    3  A    between atoms: C_7  and  S_8
REMARK    4  A    between atoms: S_8  and  C_9
REMARK    5  A    between atoms: C_9  and  C_10
REMARK    6  A    between atoms: C_10  and  C_11
REMARK    7  A    between atoms: C_11  and  C_12
REMARK                            x       y       z     vdW  Elec       q    Type
REMARK                         _______ _______ _______ _____ _____    ______ ____
ROOT
ATOM      1  C   UNL     1       1.521   5.536  20.837  0.00  0.00    +0.000 C 
ATOM      2  N   UNL     1       2.226   4.274  20.728  0.00  0.00    +0.000 N 
ATOM      3  C   UNL     1       1.552   3.061  21.167  0.00  0.00    +0.000 C 
ATOM      4  C   UNL     1       3.391   4.144  20.022  0.00  0.00    +0.000 A 
ATOM      5  N   UNL     1       4.035   3.001  19.843  0.00  0.00    +0.000 NA
ATOM      6  N   UNL     1       5.203   3.126  19.110  0.00  0.00    +0.000 NA
ATOM      7  C   UNL     1       5.419   4.368  18.751  0.00  0.00    +0.000 A 
ATOM      8  S   UNL     1       4.206   5.467  19.246  0.00  0.00    +0.000 S 
ENDROOT
BRANCH   7   9
ATOM      9  S   UNL     1       6.839   4.881  17.860  0.00  0.00    +0.000 S 
BRANCH   9  10
ATOM     10  C   UNL     1       6.166   5.116  16.185  0.00  0.00    +0.000 C 
BRANCH  10  11
ATOM     11  C   UNL     1       6.098   3.764  15.465  0.00  0.00    +0.000 C 
BRANCH  11  12
ATOM     12  C   UNL     1       6.210   3.915  13.944  0.00  0.00    +0.000 C 
BRANCH  12  13
ATOM     13  C   UNL     1       7.322   4.887  13.581  0.00  0.00    +0.000 C 
ATOM     14  N   UNL     1       8.243   5.692  13.279  0.00  0.00    +0.000 NA
ENDBRANCH  12  13
ENDBRANCH  11  12
ENDBRANCH  10  11
ENDBRANCH   9  10
ENDBRANCH   7   9
TORSDOF 5
ENDMDL
MODEL 9
REMARK VINA RESULT:      -4.9      3.109      4.147
REMARK  Name = 
REMARK  7 active torsions:
REMARK  status: ('A' for Active; 'I' for Inactive)
REMARK    1  A    between atoms: C_1  and  N_2
REMARK    2  A    between atoms: N_2  and  C_3
REMARK    3  A    between atoms: C_7  and  S_8
REMARK    4  A    between atoms: S_8  and  C_9
REMARK    5  A    between atoms: C_9  and  C_10
REMARK    6  A    between atoms: C_10  and  C_11
REMARK    7  A    between atoms: C_11  and  C_12
REMARK                            x       y       z     vdW  Elec       q    Type
REMARK                         _______ _______ _______ _____ _____    ______ ____
ROOT
ATOM      1  C   UNL     1       5.816   3.405  12.981  0.00  0.00    +0.000 C 
ATOM      2  N   UNL     1       6.776   4.377  13.468  0.00  0.00    +0.000 N 
ATOM      3  C   UNL     1       7.565   5.121  12.497  0.00  0.00    +0.000 C 
ATOM      4  C   UNL     1       6.803   4.790  14.772  0.00  0.00    +0.000 A 
ATOM      5  N   UNL     1       7.618   5.720  15.247  0.00  0.00    +0.000 NA
ATOM      6  N   UNL     1       7.473   5.950  16.604  0.00  0.00    +0.000 NA
ATOM      7  C   UNL     1       6.548   5.184  17.129  0.00  0.00    +0.000 A 
ATOM      8  S   UNL     1       5.765   4.155  16.011  0.00  0.00    +0.000 S 
ENDROOT
BRANCH   7   9
ATOM      9  S   UNL     1       6.151   5.184  18.837  0.00  0.00    +0.000 S 
BRANCH   9  10
ATOM     10  C   UNL     1       4.350   4.921  18.805  0.00  0.00    +0.000 C 
BRANCH  10  11
ATOM     11  C   UNL     1       4.015   3.584  19.478  0.00  0.00    +0.000 C 
BRANCH  11  12
ATOM     12  C   UNL     1       2.506   3.393  19.659  0.00  0.00    +0.000 C 
BRANCH  12  13
ATOM     13  C   UNL     1       1.757   3.807  18.402  0.00  0.00    +0.000 C 
ATOM     14  N   UNL     1       1.135   4.150  17.362  0.00  0.00    +0.000 NA
ENDBRANCH  12  13
ENDBRANCH  11  12
ENDBRANCH  10  11
ENDBRANCH   9  10
ENDBRANCH   7   9
TORSDOF 5
ENDMDL
