MODEL 1
REMARK VINA RESULT:      -8.6      0.000      0.000
REMARK  Name = 
REMARK  10 active torsions:
REMARK  status: ('A' for Active; 'I' for Inactive)
REMARK    1  A    between atoms: C_1  and  C_2
REMARK    2  A    between atoms: C_2  and  C_3
REMARK    3  A    between atoms: C_7  and  C_8
REMARK    4  A    between atoms: C_8  and  C_9
REMARK    5  A    between atoms: C_13  and  C_14
REMARK    6  A    between atoms: C_18  and  N_19
REMARK    7  A    between atoms: C_24  and  O_25
REMARK    8  A    between atoms: O_25  and  C_26
REMARK    9  A    between atoms: C_27  and  O_28
REMARK   10  A    between atoms: O_28  and  C_29
REMARK                            x       y       z     vdW  Elec       q    Type
REMARK                         _______ _______ _______ _____ _____    ______ ____
ROOT
ATOM      1  C   UNL     1      -1.935  12.605  20.510  0.00  0.00    +0.000 A 
ATOM      2  N   UNL     1      -0.636  12.680  20.962  0.00  0.00    +0.000 N 
ATOM      3  C   UNL     1       0.440  12.049  20.400  0.00  0.00    +0.000 A 
ATOM      4  O   UNL     1       1.553  12.146  20.897  0.00  0.00    +0.000 OA
ATOM      5  C   UNL     1       0.176  11.244  19.162  0.00  0.00    +0.000 A 
ATOM      6  C   UNL     1      -1.099  11.170  18.712  0.00  0.00    +0.000 A 
ATOM      7  C   UNL     1      -1.437  10.423  17.497  0.00  0.00    +0.000 A 
ATOM      8  C   UNL     1      -2.706  10.312  17.043  0.00  0.00    +0.000 A 
ATOM      9  C   UNL     1      -3.808  10.963  17.781  0.00  0.00    +0.000 A 
ATOM     10  C   UNL     1      -3.560  11.682  18.893  0.00  0.00    +0.000 A 
ATOM     11  C   UNL     1      -2.206  11.856  19.417  0.00  0.00    +0.000 A 
ATOM     12  H   UNL     1      -0.417  13.228  21.785  0.00  0.00    +0.000 HD
ENDROOT
BRANCH   1  14
ATOM     13  C   UNL     1      -2.613  14.913  21.285  0.00  0.00    +0.000 C 
ATOM     14  C   UNL     1      -2.935  13.425  21.296  0.00  0.00    +0.000 C 
ENDBRANCH   1  14
BRANCH   8  15
ATOM     15  O   UNL     1      -3.067   9.627  15.903  0.00  0.00    +0.000 OA
ATOM     16  C   UNL     1      -3.140  10.342  14.675  0.00  0.00    +0.000 C 
ENDBRANCH   8  15
BRANCH   9  17
ATOM     17  O   UNL     1      -5.112  10.975  17.311  0.00  0.00    +0.000 OA
ATOM     18  C   UNL     1      -6.190  10.873  18.230  0.00  0.00    +0.000 C 
ENDBRANCH   9  17
BRANCH   5  19
ATOM     19  C   UNL     1       1.363  10.497  18.605  0.00  0.00    +0.000 C 
BRANCH  19  20
ATOM     20  C   UNL     1       1.537   9.068  19.076  0.00  0.00    +0.000 A 
ATOM     21  C   UNL     1       1.137   8.666  20.355  0.00  0.00    +0.000 A 
ATOM     22  C   UNL     1       1.459   7.393  20.825  0.00  0.00    +0.000 A 
ATOM     23  C   UNL     1       2.200   6.516  20.029  0.00  0.00    +0.000 A 
ATOM     24  C   UNL     1       2.596   6.866  18.727  0.00  0.00    +0.000 A 
ATOM     25  C   UNL     1       2.224   8.145  18.271  0.00  0.00    +0.000 A 
BRANCH  24  26
ATOM     26  C   UNL     1       3.399   5.960  17.867  0.00  0.00    +0.000 A 
ATOM     27  C   UNL     1       3.079   4.596  17.748  0.00  0.00    +0.000 A 
ATOM     28  C   UNL     1       3.833   3.733  16.958  0.00  0.00    +0.000 A 
ATOM     29  C   UNL     1       4.936   4.216  16.261  0.00  0.00    +0.000 A 
ATOM     30  C   UNL     1       5.313   5.553  16.377  0.00  0.00    +0.000 A 
ATOM     31  C   UNL     1       4.513   6.419  17.137  0.00  0.00    +0.000 A 
BRANCH  30  32
ATOM     32  N   UNL     1       6.339   6.067  15.571  0.00  0.00    +0.000 N 
ATOM     33  H   UNL     1       7.172   6.317  16.094  0.00  0.00    +0.000 HD
ATOM     34  H   UNL     1       6.034   6.811  14.953  0.00  0.00    +0.000 HD
ENDBRANCH  30  32
ENDBRANCH  24  26
ENDBRANCH  19  20
ENDBRANCH   5  19
TORSDOF 7
ENDMDL
MODEL 2
REMARK VINA RESULT:      -8.5      1.163      1.384
REMARK  Name = 
REMARK  10 active torsions:
REMARK  status: ('A' for Active; 'I' for Inactive)
REMARK    1  A    between atoms: C_1  and  C_2
REMARK    2  A    between atoms: C_2  and  C_3
REMARK    3  A    between atoms: C_7  and  C_8
REMARK    4  A    between atoms: C_8  and  C_9
REMARK    5  A    between atoms: C_13  and  C_14
REMARK    6  A    between atoms: C_18  and  N_19
REMARK    7  A    between atoms: C_24  and  O_25
REMARK    8  A    between atoms: O_25  and  C_26
REMARK    9  A    between atoms: C_27  and  O_28
REMARK   10  A    between atoms: O_28  and  C_29
REMARK                            x       y       z     vdW  Elec       q    Type
REMARK                         _______ _______ _______ _____ _____    ______ ____
ROOT
ATOM      1  C   UNL     1      -2.091  12.923  20.374  0.00  0.00    +0.000 A 
ATOM      2  N   UNL     1      -0.804  12.988  20.860  0.00  0.00    +0.000 N 
ATOM      3  C   UNL     1       0.264  12.280  20.383  0.00  0.00    +0.000 A 
ATOM      4  O   UNL     1       1.365  12.378  20.907  0.00  0.00    +0.000 OA
ATOM      5  C   UNL     1       0.008  11.392  19.202  0.00  0.00    +0.000 A 
ATOM      6  C   UNL     1      -1.256  11.326  18.718  0.00  0.00    +0.000 A 
ATOM      7  C   UNL     1      -1.585  10.500  17.553  0.00  0.00    +0.000 A 
ATOM      8  C   UNL     1      -2.842  10.397  17.069  0.00  0.00    +0.000 A 
ATOM      9  C   UNL     1      -3.942  11.140  17.719  0.00  0.00    +0.000 A 
ATOM     10  C   UNL     1      -3.700  11.933  18.780  0.00  0.00    +0.000 A 
ATOM     11  C   UNL     1      -2.357  12.101  19.333  0.00  0.00    +0.000 A 
ATOM     12  H   UNL     1      -0.591  13.591  21.646  0.00  0.00    +0.000 HD
ENDROOT
BRANCH   1  14
ATOM     13  C   UNL     1      -3.212  13.546  22.552  0.00  0.00    +0.000 C 
ATOM     14  C   UNL     1      -3.084  13.834  21.063  0.00  0.00    +0.000 C 
ENDBRANCH   1  14
BRANCH   8  15
ATOM     15  O   UNL     1      -3.194   9.639  15.973  0.00  0.00    +0.000 OA
ATOM     16  C   UNL     1      -3.031  10.201  14.676  0.00  0.00    +0.000 C 
ENDBRANCH   8  15
BRANCH   9  17
ATOM     17  O   UNL     1      -5.230  11.160  17.207  0.00  0.00    +0.000 OA
ATOM     18  C   UNL     1      -6.318  11.481  18.061  0.00  0.00    +0.000 C 
ENDBRANCH   9  17
BRANCH   5  19
ATOM     19  C   UNL     1       1.183  10.565  18.742  0.00  0.00    +0.000 C 
BRANCH  19  20
ATOM     20  C   UNL     1       1.319   9.189  19.362  0.00  0.00    +0.000 A 
ATOM     21  C   UNL     1       0.759   8.892  20.609  0.00  0.00    +0.000 A 
ATOM     22  C   UNL     1       1.039   7.677  21.234  0.00  0.00    +0.000 A 
ATOM     23  C   UNL     1       1.896   6.754  20.627  0.00  0.00    +0.000 A 
ATOM     24  C   UNL     1       2.454   6.998  19.361  0.00  0.00    +0.000 A 
ATOM     25  C   UNL     1       2.123   8.219  18.743  0.00  0.00    +0.000 A 
BRANCH  24  26
ATOM     26  C   UNL     1       3.382   6.044  18.702  0.00  0.00    +0.000 A 
ATOM     27  C   UNL     1       3.859   6.275  17.399  0.00  0.00    +0.000 A 
ATOM     28  C   UNL     1       4.716   5.381  16.764  0.00  0.00    +0.000 A 
ATOM     29  C   UNL     1       5.122   4.223  17.420  0.00  0.00    +0.000 A 
ATOM     30  C   UNL     1       4.646   3.934  18.698  0.00  0.00    +0.000 A 
ATOM     31  C   UNL     1       3.823   4.869  19.343  0.00  0.00    +0.000 A 
BRANCH  30  32
ATOM     32  N   UNL     1       5.160   2.840  19.409  0.00  0.00    +0.000 N 
ATOM     33  H   UNL     1       5.711   2.212  18.833  0.00  0.00    +0.000 HD
ATOM     34  H   UNL     1       4.462   2.349  19.957  0.00  0.00    +0.000 HD
ENDBRANCH  30  32
ENDBRANCH  24  26
ENDBRANCH  19  20
ENDBRANCH   5  19
TORSDOF 7
ENDMDL
MODEL 3
REMARK VINA RESULT:      -8.2      3.361      9.560
REMARK  Name = 
REMARK  10 active torsions:
REMARK  status: ('A' for Active; 'I' for Inactive)
REMARK    1  A    between atoms: C_1  and  C_2
REMARK    2  A    between atoms: C_2  and  C_3
REMARK    3  A    between atoms: C_7  and  C_8
REMARK    4  A    between atoms: C_8  and  C_9
REMARK    5  A    between atoms: C_13  and  C_14
REMARK    6  A    between atoms: C_18  and  N_19
REMARK    7  A    between atoms: C_24  and  O_25
REMARK    8  A    between atoms: O_25  and  C_26
REMARK    9  A    between atoms: C_27  and  O_28
REMARK   10  A    between atoms: O_28  and  C_29
REMARK                            x       y       z     vdW  Elec       q    Type
REMARK                         _______ _______ _______ _____ _____    ______ ____
ROOT
ATOM      1  C   UNL     1       2.982   3.343  18.259  0.00  0.00    +0.000 A 
ATOM      2  N   UNL     1       2.009   3.677  19.175  0.00  0.00    +0.000 N 
ATOM      3  C   UNL     1       1.868   4.897  19.777  0.00  0.00    +0.000 A 
ATOM      4  O   UNL     1       0.992   5.087  20.609  0.00  0.00    +0.000 OA
ATOM      5  C   UNL     1       2.833   5.966  19.364  0.00  0.00    +0.000 A 
ATOM      6  C   UNL     1       3.790   5.645  18.460  0.00  0.00    +0.000 A 
ATOM      7  C   UNL     1       4.758   6.638  17.987  0.00  0.00    +0.000 A 
ATOM      8  C   UNL     1       5.738   6.334  17.107  0.00  0.00    +0.000 A 
ATOM      9  C   UNL     1       5.854   4.956  16.586  0.00  0.00    +0.000 A 
ATOM     10  C   UNL     1       4.982   4.003  16.966  0.00  0.00    +0.000 A 
ATOM     11  C   UNL     1       3.889   4.279  17.896  0.00  0.00    +0.000 A 
ATOM     12  H   UNL     1       1.329   2.984  19.465  0.00  0.00    +0.000 HD
ENDROOT
BRANCH   1  14
ATOM     13  C   UNL     1       3.857   0.978  18.421  0.00  0.00    +0.000 C 
ATOM     14  C   UNL     1       2.899   1.931  17.721  0.00  0.00    +0.000 C 
ENDBRANCH   1  14
BRANCH   8  15
ATOM     15  O   UNL     1       6.663   7.237  16.630  0.00  0.00    +0.000 OA
ATOM     16  C   UNL     1       7.654   7.732  17.523  0.00  0.00    +0.000 C 
ENDBRANCH   8  15
BRANCH   9  17
ATOM     17  O   UNL     1       6.768   4.608  15.604  0.00  0.00    +0.000 OA
ATOM     18  C   UNL     1       6.323   4.409  14.270  0.00  0.00    +0.000 C 
ENDBRANCH   9  17
BRANCH   5  19
ATOM     19  C   UNL     1       2.704   7.280  20.096  0.00  0.00    +0.000 C 
BRANCH  19  20
ATOM     20  C   UNL     1       1.721   8.277  19.516  0.00  0.00    +0.000 A 
ATOM     21  C   UNL     1       1.715   8.586  18.151  0.00  0.00    +0.000 A 
ATOM     22  C   UNL     1       0.920   9.626  17.669  0.00  0.00    +0.000 A 
ATOM     23  C   UNL     1       0.136  10.378  18.550  0.00  0.00    +0.000 A 
ATOM     24  C   UNL     1       0.089  10.081  19.922  0.00  0.00    +0.000 A 
ATOM     25  C   UNL     1       0.877   9.004  20.369  0.00  0.00    +0.000 A 
BRANCH  24  26
ATOM     26  C   UNL     1      -0.720  10.876  20.881  0.00  0.00    +0.000 A 
ATOM     27  C   UNL     1      -0.686  10.605  22.262  0.00  0.00    +0.000 A 
ATOM     28  C   UNL     1      -1.451  11.332  23.169  0.00  0.00    +0.000 A 
ATOM     29  C   UNL     1      -2.276  12.356  22.718  0.00  0.00    +0.000 A 
ATOM     30  C   UNL     1      -2.369  12.638  21.356  0.00  0.00    +0.000 A 
ATOM     31  C   UNL     1      -1.555  11.929  20.459  0.00  0.00    +0.000 A 
BRANCH  30  32
ATOM     32  N   UNL     1      -3.094  13.755  20.916  0.00  0.00    +0.000 N 
ATOM     33  H   UNL     1      -3.655  13.569  20.091  0.00  0.00    +0.000 HD
ATOM     34  H   UNL     1      -2.528  14.591  20.817  0.00  0.00    +0.000 HD
ENDBRANCH  30  32
ENDBRANCH  24  26
ENDBRANCH  19  20
ENDBRANCH   5  19
TORSDOF 7
ENDMDL
MODEL 4
REMARK VINA RESULT:      -7.8      1.826      4.104
REMARK  Name = 
REMARK  10 active torsions:
REMARK  status: ('A' for Active; 'I' for Inactive)
REMARK    1  A    between atoms: C_1  and  C_2
REMARK    2  A    between atoms: C_2  and  C_3
REMARK    3  A    between atoms: C_7  and  C_8
REMARK    4  A    between atoms: C_8  and  C_9
REMARK    5  A    between atoms: C_13  and  C_14
REMARK    6  A    between atoms: C_18  and  N_19
REMARK    7  A    between atoms: C_24  and  O_25
REMARK    8  A    between atoms: O_25  and  C_26
REMARK    9  A    between atoms: C_27  and  O_28
REMARK   10  A    between atoms: O_28  and  C_29
REMARK                            x       y       z     vdW  Elec       q    Type
REMARK                         _______ _______ _______ _____ _____    ______ ____
ROOT
ATOM      1  C   UNL     1      -3.511  11.824  19.007  0.00  0.00    +0.000 A 
ATOM      2  N   UNL     1      -3.102  10.901  18.070  0.00  0.00    +0.000 N 
ATOM      3  C   UNL     1      -1.813  10.492  17.867  0.00  0.00    +0.000 A 
ATOM      4  O   UNL     1      -1.542   9.692  16.981  0.00  0.00    +0.000 OA
ATOM      5  C   UNL     1      -0.772  11.072  18.776  0.00  0.00    +0.000 A 
ATOM      6  C   UNL     1      -1.169  11.978  19.702  0.00  0.00    +0.000 A 
ATOM      7  C   UNL     1      -0.217  12.574  20.644  0.00  0.00    +0.000 A 
ATOM      8  C   UNL     1      -0.585  13.500  21.557  0.00  0.00    +0.000 A 
ATOM      9  C   UNL     1      -1.995  13.937  21.632  0.00  0.00    +0.000 A 
ATOM     10  C   UNL     1      -2.922  13.411  20.808  0.00  0.00    +0.000 A 
ATOM     11  C   UNL     1      -2.586  12.390  19.816  0.00  0.00    +0.000 A 
ATOM     12  H   UNL     1      -3.780  10.475  17.450  0.00  0.00    +0.000 HD
ENDROOT
BRANCH   1  14
ATOM     13  C   UNL     1      -5.813  10.913  18.499  0.00  0.00    +0.000 C 
ATOM     14  C   UNL     1      -5.003  12.079  19.047  0.00  0.00    +0.000 C 
ENDBRANCH   1  14
BRANCH   8  15
ATOM     15  O   UNL     1       0.273  14.080  22.465  0.00  0.00    +0.000 OA
ATOM     16  C   UNL     1       1.051  15.196  22.049  0.00  0.00    +0.000 C 
ENDBRANCH   8  15
BRANCH   9  17
ATOM     17  O   UNL     1      -2.454  14.801  22.613  0.00  0.00    +0.000 OA
ATOM     18  C   UNL     1      -2.646  16.174  22.305  0.00  0.00    +0.000 C 
ENDBRANCH   9  17
BRANCH   5  19
ATOM     19  C   UNL     1       0.651  10.662  18.483  0.00  0.00    +0.000 C 
BRANCH  19  20
ATOM     20  C   UNL     1       1.091   9.323  19.039  0.00  0.00    +0.000 A 
ATOM     21  C   UNL     1       0.830   8.962  20.366  0.00  0.00    +0.000 A 
ATOM     22  C   UNL     1       1.389   7.802  20.902  0.00  0.00    +0.000 A 
ATOM     23  C   UNL     1       2.230   7.001  20.123  0.00  0.00    +0.000 A 
ATOM     24  C   UNL     1       2.493   7.309  18.778  0.00  0.00    +0.000 A 
ATOM     25  C   UNL     1       1.885   8.468  18.259  0.00  0.00    +0.000 A 
BRANCH  24  26
ATOM     26  C   UNL     1       3.396   6.486  17.934  0.00  0.00    +0.000 A 
ATOM     27  C   UNL     1       4.242   7.080  16.979  0.00  0.00    +0.000 A 
ATOM     28  C   UNL     1       5.081   6.318  16.171  0.00  0.00    +0.000 A 
ATOM     29  C   UNL     1       5.097   4.933  16.298  0.00  0.00    +0.000 A 
ATOM     30  C   UNL     1       4.250   4.298  17.204  0.00  0.00    +0.000 A 
ATOM     31  C   UNL     1       3.447   5.083  18.045  0.00  0.00    +0.000 A 
BRANCH  30  32
ATOM     32  N   UNL     1       4.365   2.918  17.426  0.00  0.00    +0.000 N 
ATOM     33  H   UNL     1       5.160   2.671  18.006  0.00  0.00    +0.000 HD
ATOM     34  H   UNL     1       4.321   2.366  16.577  0.00  0.00    +0.000 HD
ENDBRANCH  30  32
ENDBRANCH  24  26
ENDBRANCH  19  20
ENDBRANCH   5  19
TORSDOF 7
ENDMDL
MODEL 5
REMARK VINA RESULT:      -7.8      1.926      3.876
REMARK  Name = 
REMARK  10 active torsions:
REMARK  status: ('A' for Active; 'I' for Inactive)
REMARK    1  A    between atoms: C_1  and  C_2
REMARK    2  A    between atoms: C_2  and  C_3
REMARK    3  A    between atoms: C_7  and  C_8
REMARK    4  A    between atoms: C_8  and  C_9
REMARK    5  A    between atoms: C_13  and  C_14
REMARK    6  A    between atoms: C_18  and  N_19
REMARK    7  A    between atoms: C_24  and  O_25
REMARK    8  A    between atoms: O_25  and  C_26
REMARK    9  A    between atoms: C_27  and  O_28
REMARK   10  A    between atoms: O_28  and  C_29
REMARK                            x       y       z     vdW  Elec       q    Type
REMARK                         _______ _______ _______ _____ _____    ______ ____
ROOT
ATOM      1  C   UNL     1      -4.366  11.353  18.315  0.00  0.00    +0.000 A 
ATOM      2  N   UNL     1      -3.659  10.504  17.494  0.00  0.00    +0.000 N 
ATOM      3  C   UNL     1      -2.304  10.323  17.513  0.00  0.00    +0.000 A 
ATOM      4  O   UNL     1      -1.761   9.571  16.715  0.00  0.00    +0.000 OA
ATOM      5  C   UNL     1      -1.538  11.089  18.550  0.00  0.00    +0.000 A 
ATOM      6  C   UNL     1      -2.229  11.924  19.363  0.00  0.00    +0.000 A 
ATOM      7  C   UNL     1      -1.558  12.691  20.417  0.00  0.00    +0.000 A 
ATOM      8  C   UNL     1      -2.222  13.550  21.222  0.00  0.00    +0.000 A 
ATOM      9  C   UNL     1      -3.678  13.736  21.055  0.00  0.00    +0.000 A 
ATOM     10  C   UNL     1      -4.356  13.044  20.118  0.00  0.00    +0.000 A 
ATOM     11  C   UNL     1      -3.695  12.084  19.235  0.00  0.00    +0.000 A 
ATOM     12  H   UNL     1      -4.146   9.957  16.793  0.00  0.00    +0.000 HD
ENDROOT
BRANCH   1  14
ATOM     13  C   UNL     1      -6.567  10.282  18.943  0.00  0.00    +0.000 C 
ATOM     14  C   UNL     1      -5.866  11.345  18.109  0.00  0.00    +0.000 C 
ENDBRANCH   1  14
BRANCH   8  15
ATOM     15  O   UNL     1      -1.634  14.284  22.228  0.00  0.00    +0.000 OA
ATOM     16  C   UNL     1      -1.446  13.670  23.498  0.00  0.00    +0.000 C 
ENDBRANCH   8  15
BRANCH   9  17
ATOM     17  O   UNL     1      -4.431  14.520  21.915  0.00  0.00    +0.000 OA
ATOM     18  C   UNL     1      -5.805  14.223  22.113  0.00  0.00    +0.000 C 
ENDBRANCH   9  17
BRANCH   5  19
ATOM     19  C   UNL     1      -0.038  10.930  18.502  0.00  0.00    +0.000 C 
BRANCH  19  20
ATOM     20  C   UNL     1       0.532   9.721  19.217  0.00  0.00    +0.000 A 
ATOM     21  C   UNL     1       0.454   9.593  20.609  0.00  0.00    +0.000 A 
ATOM     22  C   UNL     1       1.130   8.560  21.258  0.00  0.00    +0.000 A 
ATOM     23  C   UNL     1       1.905   7.656  20.525  0.00  0.00    +0.000 A 
ATOM     24  C   UNL     1       1.985   7.730  19.124  0.00  0.00    +0.000 A 
ATOM     25  C   UNL     1       1.262   8.764  18.498  0.00  0.00    +0.000 A 
BRANCH  24  26
ATOM     26  C   UNL     1       2.816   6.795  18.323  0.00  0.00    +0.000 A 
ATOM     27  C   UNL     1       2.545   5.414  18.305  0.00  0.00    +0.000 A 
ATOM     28  C   UNL     1       3.326   4.526  17.571  0.00  0.00    +0.000 A 
ATOM     29  C   UNL     1       4.404   4.997  16.830  0.00  0.00    +0.000 A 
ATOM     30  C   UNL     1       4.732   6.352  16.847  0.00  0.00    +0.000 A 
ATOM     31  C   UNL     1       3.907   7.241  17.551  0.00  0.00    +0.000 A 
BRANCH  30  32
ATOM     32  N   UNL     1       5.732   6.844  15.996  0.00  0.00    +0.000 N 
ATOM     33  H   UNL     1       5.382   7.496  15.301  0.00  0.00    +0.000 HD
ATOM     34  H   UNL     1       6.309   6.117  15.585  0.00  0.00    +0.000 HD
ENDBRANCH  30  32
ENDBRANCH  24  26
ENDBRANCH  19  20
ENDBRANCH   5  19
TORSDOF 7
ENDMDL
MODEL 6
REMARK VINA RESULT:      -7.8      3.564      9.537
REMARK  Name = 
REMARK  10 active torsions:
REMARK  status: ('A' for Active; 'I' for Inactive)
REMARK    1  A    between atoms: C_1  and  C_2
REMARK    2  A    between atoms: C_2  and  C_3
REMARK    3  A    between atoms: C_7  and  C_8
REMARK    4  A    between atoms: C_8  and  C_9
REMARK    5  A    between atoms: C_13  and  C_14
REMARK    6  A    between atoms: C_18  and  N_19
REMARK    7  A    between atoms: C_24  and  O_25
REMARK    8  A    between atoms: O_25  and  C_26
REMARK    9  A    between atoms: C_27  and  O_28
REMARK   10  A    between atoms: O_28  and  C_29
REMARK                            x       y       z     vdW  Elec       q    Type
REMARK                         _______ _______ _______ _____ _____    ______ ____
ROOT
ATOM      1  C   UNL     1       2.839   3.491  18.147  0.00  0.00    +0.000 A 
ATOM      2  N   UNL     1       1.880   3.747  19.102  0.00  0.00    +0.000 N 
ATOM      3  C   UNL     1       1.738   4.920  19.791  0.00  0.00    +0.000 A 
ATOM      4  O   UNL     1       0.876   5.041  20.651  0.00  0.00    +0.000 OA
ATOM      5  C   UNL     1       2.685   6.027  19.437  0.00  0.00    +0.000 A 
ATOM      6  C   UNL     1       3.628   5.782  18.496  0.00  0.00    +0.000 A 
ATOM      7  C   UNL     1       4.576   6.817  18.077  0.00  0.00    +0.000 A 
ATOM      8  C   UNL     1       5.542   6.587  17.160  0.00  0.00    +0.000 A 
ATOM      9  C   UNL     1       5.662   5.251  16.540  0.00  0.00    +0.000 A 
ATOM     10  C   UNL     1       4.807   4.263  16.867  0.00  0.00    +0.000 A 
ATOM     11  C   UNL     1       3.729   4.461  17.835  0.00  0.00    +0.000 A 
ATOM     12  H   UNL     1       1.212   3.028  19.354  0.00  0.00    +0.000 HD
ENDROOT
BRANCH   1  14
ATOM     13  C   UNL     1       3.625   1.090  18.224  0.00  0.00    +0.000 C 
ATOM     14  C   UNL     1       2.759   2.119  17.511  0.00  0.00    +0.000 C 
ENDBRANCH   1  14
BRANCH   8  15
ATOM     15  O   UNL     1       6.449   7.532  16.732  0.00  0.00    +0.000 OA
ATOM     16  C   UNL     1       7.619   7.754  17.509  0.00  0.00    +0.000 C 
ENDBRANCH   8  15
BRANCH   9  17
ATOM     17  O   UNL     1       6.561   4.984  15.519  0.00  0.00    +0.000 OA
ATOM     18  C   UNL     1       6.279   3.947  14.591  0.00  0.00    +0.000 C 
ENDBRANCH   9  17
BRANCH   5  19
ATOM     19  C   UNL     1       2.557   7.284  20.263  0.00  0.00    +0.000 C 
BRANCH  19  20
ATOM     20  C   UNL     1       1.660   8.368  19.699  0.00  0.00    +0.000 A 
ATOM     21  C   UNL     1       1.520   8.555  18.319  0.00  0.00    +0.000 A 
ATOM     22  C   UNL     1       0.827   9.660  17.827  0.00  0.00    +0.000 A 
ATOM     23  C   UNL     1       0.282  10.600  18.708  0.00  0.00    +0.000 A 
ATOM     24  C   UNL     1       0.373  10.434  20.100  0.00  0.00    +0.000 A 
ATOM     25  C   UNL     1       1.049   9.289  20.563  0.00  0.00    +0.000 A 
BRANCH  24  26
ATOM     26  C   UNL     1      -0.181  11.425  21.058  0.00  0.00    +0.000 A 
ATOM     27  C   UNL     1       0.378  12.711  21.178  0.00  0.00    +0.000 A 
ATOM     28  C   UNL     1      -0.121  13.644  22.083  0.00  0.00    +0.000 A 
ATOM     29  C   UNL     1      -1.200  13.313  22.896  0.00  0.00    +0.000 A 
ATOM     30  C   UNL     1      -1.763  12.040  22.838  0.00  0.00    +0.000 A 
ATOM     31  C   UNL     1      -1.280  11.128  21.886  0.00  0.00    +0.000 A 
BRANCH  30  32
ATOM     32  N   UNL     1      -2.932  11.753  23.557  0.00  0.00    +0.000 N 
ATOM     33  H   UNL     1      -2.768  11.622  24.551  0.00  0.00    +0.000 HD
ATOM     34  H   UNL     1      -3.482  11.002  23.155  0.00  0.00    +0.000 HD
ENDBRANCH  30  32
ENDBRANCH  24  26
ENDBRANCH  19  20
ENDBRANCH   5  19
TORSDOF 7
ENDMDL
MODEL 7
REMARK VINA RESULT:      -7.7      1.004      1.144
REMARK  Name = 
REMARK  10 active torsions:
REMARK  status: ('A' for Active; 'I' for Inactive)
REMARK    1  A    between atoms: C_1  and  C_2
REMARK    2  A    between atoms: C_2  and  C_3
REMARK    3  A    between atoms: C_7  and  C_8
REMARK    4  A    between atoms: C_8  and  C_9
REMARK    5  A    between atoms: C_13  and  C_14
REMARK    6  A    between atoms: C_18  and  N_19
REMARK    7  A    between atoms: C_24  and  O_25
REMARK    8  A    between atoms: O_25  and  C_26
REMARK    9  A    between atoms: C_27  and  O_28
REMARK   10  A    between atoms: O_28  and  C_29
REMARK                            x       y       z     vdW  Elec       q    Type
REMARK                         _______ _______ _______ _____ _____    ______ ____
ROOT
ATOM      1  C   UNL     1      -1.889  12.387  20.781  0.00  0.00    +0.000 A 
ATOM      2  N   UNL     1      -0.562  12.470  21.139  0.00  0.00    +0.000 N 
ATOM      3  C   UNL     1       0.486  11.935  20.441  0.00  0.00    +0.000 A 
ATOM      4  O   UNL     1       1.631  12.029  20.860  0.00  0.00    +0.000 OA
ATOM      5  C   UNL     1       0.151  11.240  19.155  0.00  0.00    +0.000 A 
ATOM      6  C   UNL     1      -1.152  11.159  18.796  0.00  0.00    +0.000 A 
ATOM      7  C   UNL     1      -1.561  10.516  17.544  0.00  0.00    +0.000 A 
ATOM      8  C   UNL     1      -2.856  10.399  17.178  0.00  0.00    +0.000 A 
ATOM      9  C   UNL     1      -3.918  10.936  18.056  0.00  0.00    +0.000 A 
ATOM     10  C   UNL     1      -3.606  11.557  19.209  0.00  0.00    +0.000 A 
ATOM     11  C   UNL     1      -2.221  11.733  19.645  0.00  0.00    +0.000 A 
ATOM     12  H   UNL     1      -0.297  12.948  21.993  0.00  0.00    +0.000 HD
ENDROOT
BRANCH   1  14
ATOM     13  C   UNL     1      -2.515  14.565  21.900  0.00  0.00    +0.000 C 
ATOM     14  C   UNL     1      -2.850  13.092  21.715  0.00  0.00    +0.000 C 
ENDBRANCH   1  14
BRANCH   8  15
ATOM     15  O   UNL     1      -3.284   9.810  16.009  0.00  0.00    +0.000 OA
ATOM     16  C   UNL     1      -3.240  10.571  14.808  0.00  0.00    +0.000 C 
ENDBRANCH   8  15
BRANCH   9  17
ATOM     17  O   UNL     1      -5.254  10.941  17.687  0.00  0.00    +0.000 OA
ATOM     18  C   UNL     1      -6.244  10.573  18.636  0.00  0.00    +0.000 C 
ENDBRANCH   9  17
BRANCH   5  19
ATOM     19  C   UNL     1       1.314  10.595  18.442  0.00  0.00    +0.000 C 
BRANCH  19  20
ATOM     20  C   UNL     1       1.635   9.167  18.837  0.00  0.00    +0.000 A 
ATOM     21  C   UNL     1       1.093   8.590  19.991  0.00  0.00    +0.000 A 
ATOM     22  C   UNL     1       1.532   7.339  20.423  0.00  0.00    +0.000 A 
ATOM     23  C   UNL     1       2.530   6.661  19.718  0.00  0.00    +0.000 A 
ATOM     24  C   UNL     1       3.079   7.189  18.538  0.00  0.00    +0.000 A 
ATOM     25  C   UNL     1       2.588   8.438  18.110  0.00  0.00    +0.000 A 
BRANCH  24  26
ATOM     26  C   UNL     1       4.153   6.499  17.780  0.00  0.00    +0.000 A 
ATOM     27  C   UNL     1       4.314   6.701  16.397  0.00  0.00    +0.000 A 
ATOM     28  C   UNL     1       5.306   6.048  15.672  0.00  0.00    +0.000 A 
ATOM     29  C   UNL     1       6.171   5.169  16.315  0.00  0.00    +0.000 A 
ATOM     30  C   UNL     1       6.028   4.910  17.677  0.00  0.00    +0.000 A 
ATOM     31  C   UNL     1       5.055   5.614  18.403  0.00  0.00    +0.000 A 
BRANCH  30  32
ATOM     32  N   UNL     1       6.982   4.133  18.350  0.00  0.00    +0.000 N 
ATOM     33  H   UNL     1       7.290   4.545  19.224  0.00  0.00    +0.000 HD
ATOM     34  H   UNL     1       7.759   3.848  17.763  0.00  0.00    +0.000 HD
ENDBRANCH  30  32
ENDBRANCH  24  26
ENDBRANCH  19  20
ENDBRANCH   5  19
TORSDOF 7
ENDMDL
MODEL 8
REMARK VINA RESULT:      -7.7      2.088      4.052
REMARK  Name = 
REMARK  10 active torsions:
REMARK  status: ('A' for Active; 'I' for Inactive)
REMARK    1  A    between atoms: C_1  and  C_2
REMARK    2  A    between atoms: C_2  and  C_3
REMARK    3  A    between atoms: C_7  and  C_8
REMARK    4  A    between atoms: C_8  and  C_9
REMARK    5  A    between atoms: C_13  and  C_14
REMARK    6  A    between atoms: C_18  and  N_19
REMARK    7  A    between atoms: C_24  and  O_25
REMARK    8  A    between atoms: O_25  and  C_26
REMARK    9  A    between atoms: C_27  and  O_28
REMARK   10  A    between atoms: O_28  and  C_29
REMARK                            x       y       z     vdW  Elec       q    Type
REMARK                         _______ _______ _______ _____ _____    ______ ____
ROOT
ATOM      1  C   UNL     1      -4.425  11.327  18.249  0.00  0.00    +0.000 A 
ATOM      2  N   UNL     1      -3.687  10.505  17.426  0.00  0.00    +0.000 N 
ATOM      3  C   UNL     1      -2.329  10.350  17.466  0.00  0.00    +0.000 A 
ATOM      4  O   UNL     1      -1.758   9.623  16.665  0.00  0.00    +0.000 OA
ATOM      5  C   UNL     1      -1.596  11.113  18.528  0.00  0.00    +0.000 A 
ATOM      6  C   UNL     1      -2.317  11.920  19.344  0.00  0.00    +0.000 A 
ATOM      7  C   UNL     1      -1.679  12.681  20.422  0.00  0.00    +0.000 A 
ATOM      8  C   UNL     1      -2.373  13.513  21.230  0.00  0.00    +0.000 A 
ATOM      9  C   UNL     1      -3.830  13.674  21.041  0.00  0.00    +0.000 A 
ATOM     10  C   UNL     1      -4.478  12.985  20.081  0.00  0.00    +0.000 A 
ATOM     11  C   UNL     1      -3.784  12.054  19.193  0.00  0.00    +0.000 A 
ATOM     12  H   UNL     1      -4.151   9.961  16.707  0.00  0.00    +0.000 HD
ENDROOT
BRANCH   1  14
ATOM     13  C   UNL     1      -6.627  10.267  18.893  0.00  0.00    +0.000 C 
ATOM     14  C   UNL     1      -5.920  11.292  18.018  0.00  0.00    +0.000 C 
ENDBRANCH   1  14
BRANCH   8  15
ATOM     15  O   UNL     1      -1.817  14.241  22.259  0.00  0.00    +0.000 OA
ATOM     16  C   UNL     1      -1.596  13.595  23.507  0.00  0.00    +0.000 C 
ENDBRANCH   8  15
BRANCH   9  17
ATOM     17  O   UNL     1      -4.612  14.428  21.901  0.00  0.00    +0.000 OA
ATOM     18  C   UNL     1      -6.025  14.289  21.868  0.00  0.00    +0.000 C 
ENDBRANCH   9  17
BRANCH   5  19
ATOM     19  C   UNL     1      -0.092  10.984  18.504  0.00  0.00    +0.000 C 
BRANCH  19  20
ATOM     20  C   UNL     1       0.488   9.766  19.195  0.00  0.00    +0.000 A 
ATOM     21  C   UNL     1       0.359   9.580  20.576  0.00  0.00    +0.000 A 
ATOM     22  C   UNL     1       1.042   8.544  21.212  0.00  0.00    +0.000 A 
ATOM     23  C   UNL     1       1.875   7.695  20.477  0.00  0.00    +0.000 A 
ATOM     24  C   UNL     1       2.009   7.827  19.085  0.00  0.00    +0.000 A 
ATOM     25  C   UNL     1       1.278   8.861  18.470  0.00  0.00    +0.000 A 
BRANCH  24  26
ATOM     26  C   UNL     1       2.901   6.951  18.284  0.00  0.00    +0.000 A 
ATOM     27  C   UNL     1       3.887   7.494  17.439  0.00  0.00    +0.000 A 
ATOM     28  C   UNL     1       4.718   6.684  16.671  0.00  0.00    +0.000 A 
ATOM     29  C   UNL     1       4.587   5.301  16.728  0.00  0.00    +0.000 A 
ATOM     30  C   UNL     1       3.601   4.719  17.523  0.00  0.00    +0.000 A 
ATOM     31  C   UNL     1       2.803   5.546  18.328  0.00  0.00    +0.000 A 
BRANCH  30  32
ATOM     32  N   UNL     1       3.558   3.327  17.684  0.00  0.00    +0.000 N 
ATOM     33  H   UNL     1       2.651   2.987  17.987  0.00  0.00    +0.000 HD
ATOM     34  H   UNL     1       4.315   2.961  18.252  0.00  0.00    +0.000 HD
ENDBRANCH  30  32
ENDBRANCH  24  26
ENDBRANCH  19  20
ENDBRANCH   5  19
TORSDOF 7
ENDMDL
MODEL 9
REMARK VINA RESULT:      -7.6      1.860      4.343
REMARK  Name = 
REMARK  10 active torsions:
REMARK  status: ('A' for Active; 'I' for Inactive)
REMARK    1  A    between atoms: C_1  and  C_2
REMARK    2  A    between atoms: C_2  and  C_3
REMARK    3  A    between atoms: C_7  and  C_8
REMARK    4  A    between atoms: C_8  and  C_9
REMARK    5  A    between atoms: C_13  and  C_14
REMARK    6  A    between atoms: C_18  and  N_19
REMARK    7  A    between atoms: C_24  and  O_25
REMARK    8  A    between atoms: O_25  and  C_26
REMARK    9  A    between atoms: C_27  and  O_28
REMARK   10  A    between atoms: O_28  and  C_29
REMARK                            x       y       z     vdW  Elec       q    Type
REMARK                         _______ _______ _______ _____ _____    ______ ____
ROOT
ATOM      1  C   UNL     1      -2.636  12.569  19.948  0.00  0.00    +0.000 A 
ATOM      2  N   UNL     1      -2.661  11.538  19.035  0.00  0.00    +0.000 N 
ATOM      3  C   UNL     1      -1.566  10.889  18.537  0.00  0.00    +0.000 A 
ATOM      4  O   UNL     1      -1.688  10.007  17.698  0.00  0.00    +0.000 OA
ATOM      5  C   UNL     1      -0.231  11.316  19.069  0.00  0.00    +0.000 A 
ATOM      6  C   UNL     1      -0.199  12.327  19.970  0.00  0.00    +0.000 A 
ATOM      7  C   UNL     1       1.062  12.789  20.556  0.00  0.00    +0.000 A 
ATOM      8  C   UNL     1       1.121  13.814  21.436  0.00  0.00    +0.000 A 
ATOM      9  C   UNL     1      -0.121  14.506  21.840  0.00  0.00    +0.000 A 
ATOM     10  C   UNL     1      -1.314  14.115  21.353  0.00  0.00    +0.000 A 
ATOM     11  C   UNL     1      -1.441  12.999  20.418  0.00  0.00    +0.000 A 
ATOM     12  H   UNL     1      -3.547  11.211  18.667  0.00  0.00    +0.000 HD
ENDROOT
BRANCH   1  14
ATOM     13  C   UNL     1      -4.441  12.567  21.717  0.00  0.00    +0.000 C 
ATOM     14  C   UNL     1      -3.993  13.095  20.361  0.00  0.00    +0.000 C 
ENDBRANCH   1  14
BRANCH   8  15
ATOM     15  O   UNL     1       2.283  14.275  22.016  0.00  0.00    +0.000 OA
ATOM     16  C   UNL     1       3.493  14.193  21.273  0.00  0.00    +0.000 C 
ENDBRANCH   8  15
BRANCH   9  17
ATOM     17  O   UNL     1      -0.138  15.490  22.815  0.00  0.00    +0.000 OA
ATOM     18  C   UNL     1      -0.375  16.841  22.444  0.00  0.00    +0.000 C 
ENDBRANCH   9  17
BRANCH   5  19
ATOM     19  C   UNL     1       0.966  10.637  18.449  0.00  0.00    +0.000 C 
BRANCH  19  20
ATOM     20  C   UNL     1       1.318   9.269  18.996  0.00  0.00    +0.000 A 
ATOM     21  C   UNL     1       1.007   8.905  20.311  0.00  0.00    +0.000 A 
ATOM     22  C   UNL     1       1.488   7.709  20.842  0.00  0.00    +0.000 A 
ATOM     23  C   UNL     1       2.301   6.873  20.071  0.00  0.00    +0.000 A 
ATOM     24  C   UNL     1       2.613   7.184  18.737  0.00  0.00    +0.000 A 
ATOM     25  C   UNL     1       2.081   8.382  18.221  0.00  0.00    +0.000 A 
BRANCH  24  26
ATOM     26  C   UNL     1       3.489   6.323  17.902  0.00  0.00    +0.000 A 
ATOM     27  C   UNL     1       4.338   6.878  16.927  0.00  0.00    +0.000 A 
ATOM     28  C   UNL     1       5.152   6.081  16.128  0.00  0.00    +0.000 A 
ATOM     29  C   UNL     1       5.139   4.699  16.282  0.00  0.00    +0.000 A 
ATOM     30  C   UNL     1       4.287   4.102  17.210  0.00  0.00    +0.000 A 
ATOM     31  C   UNL     1       3.509   4.922  18.042  0.00  0.00    +0.000 A 
BRANCH  30  32
ATOM     32  N   UNL     1       4.373   2.725  17.460  0.00  0.00    +0.000 N 
ATOM     33  H   UNL     1       4.390   2.165  16.613  0.00  0.00    +0.000 HD
ATOM     34  H   UNL     1       3.687   2.391  18.129  0.00  0.00    +0.000 HD
ENDBRANCH  30  32
ENDBRANCH  24  26
ENDBRANCH  19  20
ENDBRANCH   5  19
TORSDOF 7
ENDMDL
