MODEL 1
REMARK VINA RESULT:      -7.8      0.000      0.000
REMARK  Name = 
REMARK  6 active torsions:
REMARK  status: ('A' for Active; 'I' for Inactive)
REMARK    1  A    between atoms: C_2  and  C_3
REMARK    2  A    between atoms: C_3  and  O_4
REMARK    3  A    between atoms: O_4  and  C_5
REMARK    4  A    between atoms: C_5  and  C_7
REMARK    5  A    between atoms: C_8  and  C_9
REMARK    6  A    between atoms: N_16  and  C_17
REMARK                            x       y       z     vdW  Elec       q    Type
REMARK                         _______ _______ _______ _____ _____    ______ ____
ROOT
ATOM      1  O   UNL     1       6.849   7.769  17.080  0.00  0.00    +0.000 OA
ENDROOT
BRANCH   1   2
ATOM      2  C   UNL     1       7.818   7.764  18.024  0.00  0.00    +0.000 C 
ATOM      3  O   UNL     1       8.136   6.823  18.732  0.00  0.00    +0.000 OA
BRANCH   2   4
ATOM      4  C   UNL     1       8.492   9.077  17.977  0.00  0.00    +0.000 C 
ATOM      5  C   UNL     1       8.975   9.635  19.097  0.00  0.00    +0.000 C 
BRANCH   5   6
ATOM      6  C   UNL     1       9.751  10.885  19.126  0.00  0.00    +0.000 A 
ATOM      7  C   UNL     1      10.138  11.510  20.322  0.00  0.00    +0.000 A 
ATOM      8  C   UNL     1      10.877  12.697  20.302  0.00  0.00    +0.000 A 
ATOM      9  C   UNL     1      11.249  13.267  19.087  0.00  0.00    +0.000 A 
ATOM     10  C   UNL     1      10.884  12.644  17.897  0.00  0.00    +0.000 A 
ATOM     11 CL   UNL     1      11.349  13.343  16.393  0.00  0.00    +0.000 Cl
ATOM     12  C   UNL     1      10.143  11.461  17.910  0.00  0.00    +0.000 A 
ENDBRANCH   5   6
ENDBRANCH   2   4
ENDBRANCH   1   2
BRANCH   1  13
ATOM     13  C   UNL     1       5.823   6.790  17.263  0.00  0.00    +0.000 C 
BRANCH  13  15
ATOM     14  O   UNL     1       6.185   4.418  16.985  0.00  0.00    +0.000 OA
ATOM     15  C   UNL     1       6.168   5.534  16.471  0.00  0.00    +0.000 C 
ATOM     16  N   UNL     1       6.408   5.753  15.129  0.00  0.00    +0.000 N 
ATOM     17  H   UNL     1       6.413   6.712  14.790  0.00  0.00    +0.000 HD
BRANCH  16  18
ATOM     18  C   UNL     1       6.750   4.682  14.219  0.00  0.00    +0.000 C 
ATOM     19  C   UNL     1       5.520   4.022  13.607  0.00  0.00    +0.000 C 
ATOM     20  C   UNL     1       6.073   3.286  12.395  0.00  0.00    +0.000 C 
ATOM     21  C   UNL     1       7.275   4.104  11.924  0.00  0.00    +0.000 C 
ATOM     22  C   UNL     1       7.516   5.169  12.994  0.00  0.00    +0.000 C 
ENDBRANCH  16  18
ENDBRANCH  13  15
ENDBRANCH   1  13
TORSDOF 6
ENDMDL
MODEL 2
REMARK VINA RESULT:      -7.8      2.953      4.123
REMARK  Name = 
REMARK  6 active torsions:
REMARK  status: ('A' for Active; 'I' for Inactive)
REMARK    1  A    between atoms: C_2  and  C_3
REMARK    2  A    between atoms: C_3  and  O_4
REMARK    3  A    between atoms: O_4  and  C_5
REMARK    4  A    between atoms: C_5  and  C_7
REMARK    5  A    between atoms: C_8  and  C_9
REMARK    6  A    between atoms: N_16  and  C_17
REMARK                            x       y       z     vdW  Elec       q    Type
REMARK                         _______ _______ _______ _____ _____    ______ ____
ROOT
ATOM      1  O   UNL     1       7.813   5.912  18.041  0.00  0.00    +0.000 OA
ENDROOT
BRANCH   1   2
ATOM      2  C   UNL     1       7.444   7.122  17.558  0.00  0.00    +0.000 C 
ATOM      3  O   UNL     1       6.581   7.337  16.723  0.00  0.00    +0.000 OA
BRANCH   2   4
ATOM      4  C   UNL     1       8.207   8.148  18.296  0.00  0.00    +0.000 C 
ATOM      5  C   UNL     1       8.298   9.400  17.824  0.00  0.00    +0.000 C 
BRANCH   5   6
ATOM      6  C   UNL     1       8.945  10.507  18.545  0.00  0.00    +0.000 A 
ATOM      7  C   UNL     1       9.505  10.355  19.823  0.00  0.00    +0.000 A 
ATOM      8  C   UNL     1      10.112  11.436  20.471  0.00  0.00    +0.000 A 
ATOM      9  C   UNL     1      10.178  12.678  19.843  0.00  0.00    +0.000 A 
ATOM     10  C   UNL     1       9.641  12.832  18.569  0.00  0.00    +0.000 A 
ATOM     11 CL   UNL     1       9.729  14.364  17.788  0.00  0.00    +0.000 Cl
ATOM     12  C   UNL     1       9.031  11.758  17.918  0.00  0.00    +0.000 A 
ENDBRANCH   5   6
ENDBRANCH   2   4
ENDBRANCH   1   2
BRANCH   1  13
ATOM     13  C   UNL     1       7.030   4.811  17.573  0.00  0.00    +0.000 C 
BRANCH  13  15
ATOM     14  O   UNL     1       6.028   4.886  19.770  0.00  0.00    +0.000 OA
ATOM     15  C   UNL     1       5.988   4.444  18.624  0.00  0.00    +0.000 C 
ATOM     16  N   UNL     1       4.980   3.620  18.165  0.00  0.00    +0.000 N 
ATOM     17  H   UNL     1       5.041   3.266  17.214  0.00  0.00    +0.000 HD
BRANCH  16  18
ATOM     18  C   UNL     1       3.903   3.166  19.017  0.00  0.00    +0.000 C 
ATOM     19  C   UNL     1       2.789   4.198  19.148  0.00  0.00    +0.000 C 
ATOM     20  C   UNL     1       1.609   3.388  19.668  0.00  0.00    +0.000 C 
ATOM     21  C   UNL     1       1.791   1.979  19.104  0.00  0.00    +0.000 C 
ATOM     22  C   UNL     1       3.174   1.952  18.453  0.00  0.00    +0.000 C 
ENDBRANCH  16  18
ENDBRANCH  13  15
ENDBRANCH   1  13
TORSDOF 6
ENDMDL
MODEL 3
REMARK VINA RESULT:      -7.7      2.729      4.154
REMARK  Name = 
REMARK  6 active torsions:
REMARK  status: ('A' for Active; 'I' for Inactive)
REMARK    1  A    between atoms: C_2  and  C_3
REMARK    2  A    between atoms: C_3  and  O_4
REMARK    3  A    between atoms: O_4  and  C_5
REMARK    4  A    between atoms: C_5  and  C_7
REMARK    5  A    between atoms: C_8  and  C_9
REMARK    6  A    between atoms: N_16  and  C_17
REMARK                            x       y       z     vdW  Elec       q    Type
REMARK                         _______ _______ _______ _____ _____    ______ ____
ROOT
ATOM      1  O   UNL     1       6.514   7.483  16.681  0.00  0.00    +0.000 OA
ENDROOT
BRANCH   1   2
ATOM      2  C   UNL     1       7.476   7.428  17.632  0.00  0.00    +0.000 C 
ATOM      3  O   UNL     1       7.895   6.424  18.183  0.00  0.00    +0.000 OA
BRANCH   2   4
ATOM      4  C   UNL     1       7.999   8.797  17.815  0.00  0.00    +0.000 C 
ATOM      5  C   UNL     1       8.750   9.101  18.884  0.00  0.00    +0.000 C 
BRANCH   5   6
ATOM      6  C   UNL     1       9.398  10.406  19.090  0.00  0.00    +0.000 A 
ATOM      7  C   UNL     1       9.564  10.978  20.362  0.00  0.00    +0.000 A 
ATOM      8  C   UNL     1      10.188  12.220  20.512  0.00  0.00    +0.000 A 
ATOM      9  C   UNL     1      10.664  12.901  19.393  0.00  0.00    +0.000 A 
ATOM     10  C   UNL     1      10.518  12.334  18.131  0.00  0.00    +0.000 A 
ATOM     11 CL   UNL     1      11.113  13.169  16.748  0.00  0.00    +0.000 Cl
ATOM     12  C   UNL     1       9.894  11.094  17.975  0.00  0.00    +0.000 A 
ENDBRANCH   5   6
ENDBRANCH   2   4
ENDBRANCH   1   2
BRANCH   1  13
ATOM     13  C   UNL     1       5.749   6.285  16.527  0.00  0.00    +0.000 C 
BRANCH  13  15
ATOM     14  O   UNL     1       3.901   7.497  17.505  0.00  0.00    +0.000 OA
ATOM     15  C   UNL     1       4.442   6.412  17.303  0.00  0.00    +0.000 C 
ATOM     16  N   UNL     1       3.900   5.208  17.709  0.00  0.00    +0.000 N 
ATOM     17  H   UNL     1       4.430   4.358  17.536  0.00  0.00    +0.000 HD
BRANCH  16  18
ATOM     18  C   UNL     1       2.664   5.129  18.455  0.00  0.00    +0.000 C 
ATOM     19  C   UNL     1       2.028   3.746  18.384  0.00  0.00    +0.000 C 
ATOM     20  C   UNL     1       1.049   3.740  19.550  0.00  0.00    +0.000 C 
ATOM     21  C   UNL     1       1.661   4.655  20.611  0.00  0.00    +0.000 C 
ATOM     22  C   UNL     1       2.864   5.331  19.954  0.00  0.00    +0.000 C 
ENDBRANCH  16  18
ENDBRANCH  13  15
ENDBRANCH   1  13
TORSDOF 6
ENDMDL
MODEL 4
REMARK VINA RESULT:      -7.7      3.119      4.377
REMARK  Name = 
REMARK  6 active torsions:
REMARK  status: ('A' for Active; 'I' for Inactive)
REMARK    1  A    between atoms: C_2  and  C_3
REMARK    2  A    between atoms: C_3  and  O_4
REMARK    3  A    between atoms: O_4  and  C_5
REMARK    4  A    between atoms: C_5  and  C_7
REMARK    5  A    between atoms: C_8  and  C_9
REMARK    6  A    between atoms: N_16  and  C_17
REMARK                            x       y       z     vdW  Elec       q    Type
REMARK                         _______ _______ _______ _____ _____    ______ ____
ROOT
ATOM      1  O   UNL     1       6.013   7.492  17.697  0.00  0.00    +0.000 OA
ENDROOT
BRANCH   1   2
ATOM      2  C   UNL     1       7.279   7.258  17.279  0.00  0.00    +0.000 C 
ATOM      3  O   UNL     1       7.620   6.492  16.392  0.00  0.00    +0.000 OA
BRANCH   2   4
ATOM      4  C   UNL     1       8.169   8.172  18.022  0.00  0.00    +0.000 C 
ATOM      5  C   UNL     1       8.200   9.480  17.730  0.00  0.00    +0.000 C 
BRANCH   5   6
ATOM      6  C   UNL     1       8.974  10.476  18.488  0.00  0.00    +0.000 A 
ATOM      7  C   UNL     1       9.295  10.314  19.845  0.00  0.00    +0.000 A 
ATOM      8  C   UNL     1      10.036  11.286  20.525  0.00  0.00    +0.000 A 
ATOM      9  C   UNL     1      10.475  12.425  19.854  0.00  0.00    +0.000 A 
ATOM     10  C   UNL     1      10.175  12.585  18.504  0.00  0.00    +0.000 A 
ATOM     11 CL   UNL     1      10.724  13.988  17.670  0.00  0.00    +0.000 Cl
ATOM     12  C   UNL     1       9.434  11.619  17.820  0.00  0.00    +0.000 A 
ENDBRANCH   5   6
ENDBRANCH   2   4
ENDBRANCH   1   2
BRANCH   1  13
ATOM     13  C   UNL     1       5.023   6.622  17.142  0.00  0.00    +0.000 C 
BRANCH  13  15
ATOM     14  O   UNL     1       5.173   5.446  19.246  0.00  0.00    +0.000 OA
ATOM     15  C   UNL     1       4.541   5.649  18.211  0.00  0.00    +0.000 C 
ATOM     16  N   UNL     1       3.322   5.061  17.941  0.00  0.00    +0.000 N 
ATOM     17  H   UNL     1       2.882   5.252  17.044  0.00  0.00    +0.000 HD
BRANCH  16  18
ATOM     18  C   UNL     1       2.704   4.111  18.839  0.00  0.00    +0.000 C 
ATOM     19  C   UNL     1       1.941   4.790  19.970  0.00  0.00    +0.000 C 
ATOM     20  C   UNL     1       1.028   3.692  20.498  0.00  0.00    +0.000 C 
ATOM     21  C   UNL     1       0.720   2.796  19.298  0.00  0.00    +0.000 C 
ATOM     22  C   UNL     1       1.627   3.271  18.162  0.00  0.00    +0.000 C 
ENDBRANCH  16  18
ENDBRANCH  13  15
ENDBRANCH   1  13
TORSDOF 6
ENDMDL
MODEL 5
REMARK VINA RESULT:      -7.5      5.865      7.558
REMARK  Name = 
REMARK  6 active torsions:
REMARK  status: ('A' for Active; 'I' for Inactive)
REMARK    1  A    between atoms: C_2  and  C_3
REMARK    2  A    between atoms: C_3  and  O_4
REMARK    3  A    between atoms: O_4  and  C_5
REMARK    4  A    between atoms: C_5  and  C_7
REMARK    5  A    between atoms: C_8  and  C_9
REMARK    6  A    between atoms: N_16  and  C_17
REMARK                            x       y       z     vdW  Elec       q    Type
REMARK                         _______ _______ _______ _____ _____    ______ ____
ROOT
ATOM      1  O   UNL     1       1.879   2.373  19.834  0.00  0.00    +0.000 OA
ENDROOT
BRANCH   1   2
ATOM      2  C   UNL     1       1.952   3.213  20.893  0.00  0.00    +0.000 C 
ATOM      3  O   UNL     1       2.354   2.936  22.012  0.00  0.00    +0.000 OA
BRANCH   2   4
ATOM      4  C   UNL     1       1.550   4.555  20.427  0.00  0.00    +0.000 C 
ATOM      5  C   UNL     1       2.467   5.518  20.253  0.00  0.00    +0.000 C 
BRANCH   5   6
ATOM      6  C   UNL     1       2.171   6.846  19.692  0.00  0.00    +0.000 A 
ATOM      7  C   UNL     1       2.485   7.198  18.370  0.00  0.00    +0.000 A 
ATOM      8  C   UNL     1       2.184   8.472  17.879  0.00  0.00    +0.000 A 
ATOM      9  C   UNL     1       1.554   9.405  18.699  0.00  0.00    +0.000 A 
ATOM     10  C   UNL     1       1.223   9.058  20.005  0.00  0.00    +0.000 A 
ATOM     11 CL   UNL     1       0.437  10.207  21.018  0.00  0.00    +0.000 Cl
ATOM     12  C   UNL     1       1.524   7.788  20.503  0.00  0.00    +0.000 A 
ENDBRANCH   5   6
ENDBRANCH   2   4
ENDBRANCH   1   2
BRANCH   1  13
ATOM     13  C   UNL     1       3.140   1.994  19.276  0.00  0.00    +0.000 C 
BRANCH  13  15
ATOM     14  O   UNL     1       2.679   3.126  17.192  0.00  0.00    +0.000 OA
ATOM     15  C   UNL     1       3.475   2.909  18.103  0.00  0.00    +0.000 C 
ATOM     16  N   UNL     1       4.718   3.505  18.180  0.00  0.00    +0.000 N 
ATOM     17  H   UNL     1       5.332   3.242  18.947  0.00  0.00    +0.000 HD
BRANCH  16  18
ATOM     18  C   UNL     1       5.209   4.404  17.161  0.00  0.00    +0.000 C 
ATOM     19  C   UNL     1       6.352   5.281  17.658  0.00  0.00    +0.000 C 
ATOM     20  C   UNL     1       7.001   5.787  16.377  0.00  0.00    +0.000 C 
ATOM     21  C   UNL     1       6.783   4.687  15.339  0.00  0.00    +0.000 C 
ATOM     22  C   UNL     1       5.836   3.672  15.979  0.00  0.00    +0.000 C 
ENDBRANCH  16  18
ENDBRANCH  13  15
ENDBRANCH   1  13
TORSDOF 6
ENDMDL
MODEL 6
REMARK VINA RESULT:      -7.5      6.301      7.429
REMARK  Name = 
REMARK  6 active torsions:
REMARK  status: ('A' for Active; 'I' for Inactive)
REMARK    1  A    between atoms: C_2  and  C_3
REMARK    2  A    between atoms: C_3  and  O_4
REMARK    3  A    between atoms: O_4  and  C_5
REMARK    4  A    between atoms: C_5  and  C_7
REMARK    5  A    between atoms: C_8  and  C_9
REMARK    6  A    between atoms: N_16  and  C_17
REMARK                            x       y       z     vdW  Elec       q    Type
REMARK                         _______ _______ _______ _____ _____    ______ ____
ROOT
ATOM      1  O   UNL     1       3.393   3.663  20.773  0.00  0.00    +0.000 OA
ENDROOT
BRANCH   1   2
ATOM      2  C   UNL     1       2.071   3.790  21.036  0.00  0.00    +0.000 C 
ATOM      3  O   UNL     1       1.345   2.940  21.525  0.00  0.00    +0.000 OA
BRANCH   2   4
ATOM      4  C   UNL     1       1.685   5.179  20.717  0.00  0.00    +0.000 C 
ATOM      5  C   UNL     1       2.463   5.938  19.932  0.00  0.00    +0.000 C 
BRANCH   5   6
ATOM      6  C   UNL     1       2.104   7.291  19.478  0.00  0.00    +0.000 A 
ATOM      7  C   UNL     1       2.424   7.771  18.198  0.00  0.00    +0.000 A 
ATOM      8  C   UNL     1       2.061   9.064  17.808  0.00  0.00    +0.000 A 
ATOM      9  C   UNL     1       1.364   9.889  18.689  0.00  0.00    +0.000 A 
ATOM     10  C   UNL     1       1.028   9.414  19.953  0.00  0.00    +0.000 A 
ATOM     11 CL   UNL     1       0.158  10.428  21.039  0.00  0.00    +0.000 Cl
ATOM     12  C   UNL     1       1.390   8.125  20.349  0.00  0.00    +0.000 A 
ENDBRANCH   5   6
ENDBRANCH   2   4
ENDBRANCH   1   2
BRANCH   1  13
ATOM     13  C   UNL     1       3.763   2.449  20.114  0.00  0.00    +0.000 C 
BRANCH  13  15
ATOM     14  O   UNL     1       3.279   2.191  17.762  0.00  0.00    +0.000 OA
ATOM     15  C   UNL     1       3.974   2.718  18.629  0.00  0.00    +0.000 C 
ATOM     16  N   UNL     1       4.969   3.633  18.349  0.00  0.00    +0.000 N 
ATOM     17  H   UNL     1       5.524   3.993  19.121  0.00  0.00    +0.000 HD
BRANCH  16  18
ATOM     18  C   UNL     1       5.312   4.014  16.997  0.00  0.00    +0.000 C 
ATOM     19  C   UNL     1       4.648   5.319  16.573  0.00  0.00    +0.000 C 
ATOM     20  C   UNL     1       5.463   5.762  15.366  0.00  0.00    +0.000 C 
ATOM     21  C   UNL     1       6.877   5.231  15.602  0.00  0.00    +0.000 C 
ATOM     22  C   UNL     1       6.796   4.320  16.827  0.00  0.00    +0.000 C 
ENDBRANCH  16  18
ENDBRANCH  13  15
ENDBRANCH   1  13
TORSDOF 6
ENDMDL
MODEL 7
REMARK VINA RESULT:      -7.5      2.916      3.949
REMARK  Name = 
REMARK  6 active torsions:
REMARK  status: ('A' for Active; 'I' for Inactive)
REMARK    1  A    between atoms: C_2  and  C_3
REMARK    2  A    between atoms: C_3  and  O_4
REMARK    3  A    between atoms: O_4  and  C_5
REMARK    4  A    between atoms: C_5  and  C_7
REMARK    5  A    between atoms: C_8  and  C_9
REMARK    6  A    between atoms: N_16  and  C_17
REMARK                            x       y       z     vdW  Elec       q    Type
REMARK                         _______ _______ _______ _____ _____    ______ ____
ROOT
ATOM      1  O   UNL     1       6.598   6.770  18.326  0.00  0.00    +0.000 OA
ENDROOT
BRANCH   1   2
ATOM      2  C   UNL     1       7.422   7.274  17.377  0.00  0.00    +0.000 C 
ATOM      3  O   UNL     1       7.752   6.727  16.338  0.00  0.00    +0.000 OA
BRANCH   2   4
ATOM      4  C   UNL     1       7.773   8.651  17.779  0.00  0.00    +0.000 C 
ATOM      5  C   UNL     1       8.790   8.875  18.624  0.00  0.00    +0.000 C 
BRANCH   5   6
ATOM      6  C   UNL     1       9.275  10.214  18.993  0.00  0.00    +0.000 A 
ATOM      7  C   UNL     1       9.285  10.679  20.318  0.00  0.00    +0.000 A 
ATOM      8  C   UNL     1       9.756  11.960  20.623  0.00  0.00    +0.000 A 
ATOM      9  C   UNL     1      10.235  12.787  19.610  0.00  0.00    +0.000 A 
ATOM     10  C   UNL     1      10.245  12.327  18.296  0.00  0.00    +0.000 A 
ATOM     11 CL   UNL     1      10.844  13.345  17.043  0.00  0.00    +0.000 Cl
ATOM     12  C   UNL     1       9.773  11.050  17.985  0.00  0.00    +0.000 A 
ENDBRANCH   5   6
ENDBRANCH   2   4
ENDBRANCH   1   2
BRANCH   1  13
ATOM     13  C   UNL     1       6.817   5.394  18.645  0.00  0.00    +0.000 C 
BRANCH  13  15
ATOM     14  O   UNL     1       5.672   4.181  16.898  0.00  0.00    +0.000 OA
ATOM     15  C   UNL     1       5.685   4.550  18.070  0.00  0.00    +0.000 C 
ATOM     16  N   UNL     1       4.713   4.198  18.985  0.00  0.00    +0.000 N 
ATOM     17  H   UNL     1       4.777   4.577  19.927  0.00  0.00    +0.000 HD
BRANCH  16  18
ATOM     18  C   UNL     1       3.563   3.400  18.624  0.00  0.00    +0.000 C 
ATOM     19  C   UNL     1       2.959   2.673  19.820  0.00  0.00    +0.000 C 
ATOM     20  C   UNL     1       1.565   2.292  19.342  0.00  0.00    +0.000 C 
ATOM     21  C   UNL     1       1.154   3.378  18.349  0.00  0.00    +0.000 C 
ATOM     22  C   UNL     1       2.396   4.240  18.115  0.00  0.00    +0.000 C 
ENDBRANCH  16  18
ENDBRANCH  13  15
ENDBRANCH   1  13
TORSDOF 6
ENDMDL
MODEL 8
REMARK VINA RESULT:      -7.5      5.896      7.839
REMARK  Name = 
REMARK  6 active torsions:
REMARK  status: ('A' for Active; 'I' for Inactive)
REMARK    1  A    between atoms: C_2  and  C_3
REMARK    2  A    between atoms: C_3  and  O_4
REMARK    3  A    between atoms: O_4  and  C_5
REMARK    4  A    between atoms: C_5  and  C_7
REMARK    5  A    between atoms: C_8  and  C_9
REMARK    6  A    between atoms: N_16  and  C_17
REMARK                            x       y       z     vdW  Elec       q    Type
REMARK                         _______ _______ _______ _____ _____    ______ ____
ROOT
ATOM      1  O   UNL     1       1.465   2.381  20.246  0.00  0.00    +0.000 OA
ENDROOT
BRANCH   1   2
ATOM      2  C   UNL     1       1.719   3.391  21.111  0.00  0.00    +0.000 C 
ATOM      3  O   UNL     1       2.201   3.286  22.227  0.00  0.00    +0.000 OA
BRANCH   2   4
ATOM      4  C   UNL     1       1.399   4.658  20.423  0.00  0.00    +0.000 C 
ATOM      5  C   UNL     1       2.162   5.745  20.609  0.00  0.00    +0.000 C 
BRANCH   5   6
ATOM      6  C   UNL     1       1.979   7.013  19.884  0.00  0.00    +0.000 A 
ATOM      7  C   UNL     1       2.388   7.192  18.554  0.00  0.00    +0.000 A 
ATOM      8  C   UNL     1       2.194   8.414  17.904  0.00  0.00    +0.000 A 
ATOM      9  C   UNL     1       1.576   9.469  18.573  0.00  0.00    +0.000 A 
ATOM     10  C   UNL     1       1.153   9.294  19.887  0.00  0.00    +0.000 A 
ATOM     11 CL   UNL     1       0.382  10.594  20.713  0.00  0.00    +0.000 Cl
ATOM     12  C   UNL     1       1.347   8.077  20.542  0.00  0.00    +0.000 A 
ENDBRANCH   5   6
ENDBRANCH   2   4
ENDBRANCH   1   2
BRANCH   1  13
ATOM     13  C   UNL     1       1.957   2.586  18.919  0.00  0.00    +0.000 C 
BRANCH  13  15
ATOM     14  O   UNL     1       4.165   1.716  19.369  0.00  0.00    +0.000 OA
ATOM     15  C   UNL     1       3.480   2.643  18.942  0.00  0.00    +0.000 C 
ATOM     16  N   UNL     1       4.017   3.794  18.400  0.00  0.00    +0.000 N 
ATOM     17  H   UNL     1       3.381   4.530  18.104  0.00  0.00    +0.000 HD
BRANCH  16  18
ATOM     18  C   UNL     1       5.443   4.026  18.334  0.00  0.00    +0.000 C 
ATOM     19  C   UNL     1       5.908   4.406  16.934  0.00  0.00    +0.000 C 
ATOM     20  C   UNL     1       7.275   5.033  17.166  0.00  0.00    +0.000 C 
ATOM     21  C   UNL     1       7.209   5.672  18.553  0.00  0.00    +0.000 C 
ATOM     22  C   UNL     1       5.886   5.221  19.172  0.00  0.00    +0.000 C 
ENDBRANCH  16  18
ENDBRANCH  13  15
ENDBRANCH   1  13
TORSDOF 6
ENDMDL
MODEL 9
REMARK VINA RESULT:      -7.4      5.864      7.562
REMARK  Name = 
REMARK  6 active torsions:
REMARK  status: ('A' for Active; 'I' for Inactive)
REMARK    1  A    between atoms: C_2  and  C_3
REMARK    2  A    between atoms: C_3  and  O_4
REMARK    3  A    between atoms: O_4  and  C_5
REMARK    4  A    between atoms: C_5  and  C_7
REMARK    5  A    between atoms: C_8  and  C_9
REMARK    6  A    between atoms: N_16  and  C_17
REMARK                            x       y       z     vdW  Elec       q    Type
REMARK                         _______ _______ _______ _____ _____    ______ ____
ROOT
ATOM      1  O   UNL     1       2.122   2.556  19.580  0.00  0.00    +0.000 OA
ENDROOT
BRANCH   1   2
ATOM      2  C   UNL     1       1.748   3.057  20.780  0.00  0.00    +0.000 C 
ATOM      3  O   UNL     1       1.873   2.512  21.864  0.00  0.00    +0.000 OA
BRANCH   2   4
ATOM      4  C   UNL     1       1.251   4.429  20.554  0.00  0.00    +0.000 C 
ATOM      5  C   UNL     1       2.017   5.488  20.852  0.00  0.00    +0.000 C 
BRANCH   5   6
ATOM      6  C   UNL     1       1.644   6.882  20.561  0.00  0.00    +0.000 A 
ATOM      7  C   UNL     1       0.932   7.682  21.469  0.00  0.00    +0.000 A 
ATOM      8  C   UNL     1       0.600   9.002  21.151  0.00  0.00    +0.000 A 
ATOM      9  C   UNL     1       0.988   9.544  19.927  0.00  0.00    +0.000 A 
ATOM     10  C   UNL     1       1.709   8.763  19.029  0.00  0.00    +0.000 A 
ATOM     11 CL   UNL     1       2.196   9.433  17.520  0.00  0.00    +0.000 Cl
ATOM     12  C   UNL     1       2.041   7.443  19.340  0.00  0.00    +0.000 A 
ENDBRANCH   5   6
ENDBRANCH   2   4
ENDBRANCH   1   2
BRANCH   1  13
ATOM     13  C   UNL     1       3.446   2.016  19.537  0.00  0.00    +0.000 C 
BRANCH  13  15
ATOM     14  O   UNL     1       5.266   3.587  19.772  0.00  0.00    +0.000 OA
ATOM     15  C   UNL     1       4.416   3.083  19.041  0.00  0.00    +0.000 C 
ATOM     16  N   UNL     1       4.290   3.391  17.701  0.00  0.00    +0.000 N 
ATOM     17  H   UNL     1       3.535   2.958  17.175  0.00  0.00    +0.000 HD
BRANCH  16  18
ATOM     18  C   UNL     1       5.123   4.379  17.053  0.00  0.00    +0.000 C 
ATOM     19  C   UNL     1       5.358   4.067  15.579  0.00  0.00    +0.000 C 
ATOM     20  C   UNL     1       5.834   5.393  15.003  0.00  0.00    +0.000 C 
ATOM     21  C   UNL     1       5.157   6.478  15.840  0.00  0.00    +0.000 C 
ATOM     22  C   UNL     1       4.478   5.760  17.007  0.00  0.00    +0.000 C 
ENDBRANCH  16  18
ENDBRANCH  13  15
ENDBRANCH   1  13
TORSDOF 6
ENDMDL
