MODEL 1
REMARK VINA RESULT:      -8.2      0.000      0.000
REMARK  Name = 
REMARK  7 active torsions:
REMARK  status: ('A' for Active; 'I' for Inactive)
REMARK    1  A    between atoms: C_1  and  O_2
REMARK    2  A    between atoms: O_2  and  C_3
REMARK    3  A    between atoms: C_3  and  C_5
REMARK    4  A    between atoms: C_6  and  N_7
REMARK    5  A    between atoms: C_16  and  C_17
REMARK    6  A    between atoms: C_17  and  C_18
REMARK    7  A    between atoms: C_18  and  C_20
REMARK                            x       y       z     vdW  Elec       q    Type
REMARK                         _______ _______ _______ _____ _____    ______ ____
ROOT
ATOM      1  C   UNL     1       3.188   4.183  18.272  0.00  0.00    +0.000 C 
ATOM      2  C   UNL     1       4.071   3.210  18.580  0.00  0.00    +0.000 C 
ATOM      3  O   UNL     1       5.410   3.481  18.821  0.00  0.00    +0.000 OA
ATOM      4  C   UNL     1       5.912   4.720  18.515  0.00  0.00    +0.000 A 
ATOM      5  C   UNL     1       7.302   4.859  18.586  0.00  0.00    +0.000 A 
ATOM      6  C   UNL     1       7.897   6.085  18.293  0.00  0.00    +0.000 A 
ATOM      7  C   UNL     1       7.102   7.155  17.899  0.00  0.00    +0.000 A 
ATOM      8 BR   UNL     1       7.890   8.837  17.545  0.00  0.00    +0.000 Br
ATOM      9  C   UNL     1       5.719   7.006  17.796  0.00  0.00    +0.000 A 
ATOM     10  C   UNL     1       5.102   5.796  18.151  0.00  0.00    +0.000 A 
ATOM     11  C   UNL     1       3.593   5.641  18.152  0.00  0.00    +0.000 C 
ENDROOT
BRANCH   2  12
ATOM     12  N   UNL     1       3.780   1.870  18.706  0.00  0.00    +0.000 N 
ATOM     13  H   UNL     1       3.953   1.332  17.852  0.00  0.00    +0.000 HD
ATOM     14  H   UNL     1       2.855   1.714  19.097  0.00  0.00    +0.000 HD
ENDBRANCH   2  12
BRANCH   1  15
ATOM     15  C   UNL     1       1.764   3.809  18.044  0.00  0.00    +0.000 C 
ATOM     16  O   UNL     1       1.120   4.099  17.047  0.00  0.00    +0.000 OA
BRANCH  15  18
ATOM     17  C   UNL     1       0.853   3.855  20.211  0.00  0.00    +0.000 C 
ATOM     18  O   UNL     1       1.303   3.083  19.093  0.00  0.00    +0.000 OA
ENDBRANCH  15  18
ENDBRANCH   1  15
BRANCH  11  19
ATOM     19  C   UNL     1       2.936   6.457  19.288  0.00  0.00    +0.000 C 
BRANCH  19  20
ATOM     20  C   UNL     1       2.263   7.755  18.870  0.00  0.00    +0.000 C 
ATOM     21  O   UNL     1       2.417   8.211  17.736  0.00  0.00    +0.000 OA
BRANCH  20  22
ATOM     22  C   UNL     1       1.445   8.535  19.847  0.00  0.00    +0.000 A 
ATOM     23  C   UNL     1       0.779   9.679  19.384  0.00  0.00    +0.000 A 
ATOM     24  C   UNL     1       0.029  10.468  20.261  0.00  0.00    +0.000 A 
ATOM     25  C   UNL     1      -0.069  10.105  21.601  0.00  0.00    +0.000 A 
ATOM     26 BR   UNL     1      -1.060  11.178  22.799  0.00  0.00    +0.000 Br
ATOM     27  C   UNL     1       0.565   8.955  22.068  0.00  0.00    +0.000 A 
ATOM     28  C   UNL     1       1.322   8.172  21.191  0.00  0.00    +0.000 A 
ENDBRANCH  20  22
ENDBRANCH  19  20
ENDBRANCH  11  19
TORSDOF 6
ENDMDL
MODEL 2
REMARK VINA RESULT:      -8.0      2.677      4.222
REMARK  Name = 
REMARK  7 active torsions:
REMARK  status: ('A' for Active; 'I' for Inactive)
REMARK    1  A    between atoms: C_1  and  O_2
REMARK    2  A    between atoms: O_2  and  C_3
REMARK    3  A    between atoms: C_3  and  C_5
REMARK    4  A    between atoms: C_6  and  N_7
REMARK    5  A    between atoms: C_16  and  C_17
REMARK    6  A    between atoms: C_17  and  C_18
REMARK    7  A    between atoms: C_18  and  C_20
REMARK                            x       y       z     vdW  Elec       q    Type
REMARK                         _______ _______ _______ _____ _____    ______ ____
ROOT
ATOM      1  C   UNL     1       4.694   5.481  16.855  0.00  0.00    +0.000 C 
ATOM      2  C   UNL     1       4.963   4.297  16.266  0.00  0.00    +0.000 C 
ATOM      3  O   UNL     1       4.385   3.112  16.697  0.00  0.00    +0.000 OA
ATOM      4  C   UNL     1       3.708   3.088  17.890  0.00  0.00    +0.000 A 
ATOM      5  C   UNL     1       3.333   1.827  18.363  0.00  0.00    +0.000 A 
ATOM      6  C   UNL     1       2.639   1.711  19.567  0.00  0.00    +0.000 A 
ATOM      7  C   UNL     1       2.354   2.854  20.306  0.00  0.00    +0.000 A 
ATOM      8 BR   UNL     1       1.373   2.716  21.916  0.00  0.00    +0.000 Br
ATOM      9  C   UNL     1       2.758   4.108  19.849  0.00  0.00    +0.000 A 
ATOM     10  C   UNL     1       3.399   4.244  18.608  0.00  0.00    +0.000 A 
ATOM     11  C   UNL     1       3.752   5.605  18.039  0.00  0.00    +0.000 C 
ENDROOT
BRANCH   2  12
ATOM     12  N   UNL     1       5.804   4.105  15.192  0.00  0.00    +0.000 N 
ATOM     13  H   UNL     1       5.461   3.408  14.525  0.00  0.00    +0.000 HD
ATOM     14  H   UNL     1       6.764   3.944  15.482  0.00  0.00    +0.000 HD
ENDBRANCH   2  12
BRANCH   1  15
ATOM     15  C   UNL     1       5.345   6.709  16.319  0.00  0.00    +0.000 C 
ATOM     16  O   UNL     1       5.233   7.110  15.170  0.00  0.00    +0.000 OA
BRANCH  15  18
ATOM     17  C   UNL     1       7.430   6.925  17.386  0.00  0.00    +0.000 C 
ATOM     18  O   UNL     1       6.057   7.321  17.299  0.00  0.00    +0.000 OA
ENDBRANCH  15  18
ENDBRANCH   1  15
BRANCH  11  19
ATOM     19  C   UNL     1       2.491   6.393  17.618  0.00  0.00    +0.000 C 
BRANCH  19  20
ATOM     20  C   UNL     1       2.469   7.865  17.999  0.00  0.00    +0.000 C 
ATOM     21  O   UNL     1       3.081   8.700  17.332  0.00  0.00    +0.000 OA
BRANCH  20  22
ATOM     22  C   UNL     1       1.747   8.321  19.224  0.00  0.00    +0.000 A 
ATOM     23  C   UNL     1       1.027   9.523  19.157  0.00  0.00    +0.000 A 
ATOM     24  C   UNL     1       0.363  10.018  20.282  0.00  0.00    +0.000 A 
ATOM     25  C   UNL     1       0.403   9.302  21.475  0.00  0.00    +0.000 A 
ATOM     26 BR   UNL     1      -0.471   9.975  23.009  0.00  0.00    +0.000 Br
ATOM     27  C   UNL     1       1.091   8.092  21.548  0.00  0.00    +0.000 A 
ATOM     28  C   UNL     1       1.763   7.604  20.424  0.00  0.00    +0.000 A 
ENDBRANCH  20  22
ENDBRANCH  19  20
ENDBRANCH  11  19
TORSDOF 6
ENDMDL
MODEL 3
REMARK VINA RESULT:      -7.9      2.635      4.838
REMARK  Name = 
REMARK  7 active torsions:
REMARK  status: ('A' for Active; 'I' for Inactive)
REMARK    1  A    between atoms: C_1  and  O_2
REMARK    2  A    between atoms: O_2  and  C_3
REMARK    3  A    between atoms: C_3  and  C_5
REMARK    4  A    between atoms: C_6  and  N_7
REMARK    5  A    between atoms: C_16  and  C_17
REMARK    6  A    between atoms: C_17  and  C_18
REMARK    7  A    between atoms: C_18  and  C_20
REMARK                            x       y       z     vdW  Elec       q    Type
REMARK                         _______ _______ _______ _____ _____    ______ ____
ROOT
ATOM      1  C   UNL     1       6.068   4.201  17.493  0.00  0.00    +0.000 C 
ATOM      2  C   UNL     1       5.502   3.552  16.454  0.00  0.00    +0.000 C 
ATOM      3  O   UNL     1       4.213   3.044  16.517  0.00  0.00    +0.000 OA
ATOM      4  C   UNL     1       3.571   2.983  17.728  0.00  0.00    +0.000 A 
ATOM      5  C   UNL     1       2.367   2.273  17.755  0.00  0.00    +0.000 A 
ATOM      6  C   UNL     1       1.648   2.163  18.945  0.00  0.00    +0.000 A 
ATOM      7  C   UNL     1       2.154   2.735  20.106  0.00  0.00    +0.000 A 
ATOM      8 BR   UNL     1       1.168   2.634  21.716  0.00  0.00    +0.000 Br
ATOM      9  C   UNL     1       3.373   3.414  20.085  0.00  0.00    +0.000 A 
ATOM     10  C   UNL     1       4.073   3.587  18.881  0.00  0.00    +0.000 A 
ATOM     11  C   UNL     1       5.344   4.413  18.811  0.00  0.00    +0.000 C 
ENDROOT
BRANCH   2  12
ATOM     12  N   UNL     1       6.093   3.322  15.231  0.00  0.00    +0.000 N 
ATOM     13  H   UNL     1       7.017   2.888  15.299  0.00  0.00    +0.000 HD
ATOM     14  H   UNL     1       6.081   4.148  14.639  0.00  0.00    +0.000 HD
ENDBRANCH   2  12
BRANCH   1  15
ATOM     15  C   UNL     1       7.451   4.731  17.336  0.00  0.00    +0.000 C 
ATOM     16  O   UNL     1       8.452   4.209  17.803  0.00  0.00    +0.000 OA
BRANCH  15  18
ATOM     17  C   UNL     1       7.640   7.075  17.309  0.00  0.00    +0.000 C 
ATOM     18  O   UNL     1       7.432   5.859  16.583  0.00  0.00    +0.000 OA
ENDBRANCH  15  18
ENDBRANCH   1  15
BRANCH  11  19
ATOM     19  C   UNL     1       5.060   5.918  19.011  0.00  0.00    +0.000 C 
BRANCH  19  20
ATOM     20  C   UNL     1       4.046   6.534  18.059  0.00  0.00    +0.000 C 
ATOM     21  O   UNL     1       4.105   6.322  16.847  0.00  0.00    +0.000 OA
BRANCH  20  22
ATOM     22  C   UNL     1       2.988   7.456  18.571  0.00  0.00    +0.000 A 
ATOM     23  C   UNL     1       2.466   7.215  19.851  0.00  0.00    +0.000 A 
ATOM     24  C   UNL     1       1.448   8.021  20.366  0.00  0.00    +0.000 A 
ATOM     25  C   UNL     1       0.960   9.083  19.609  0.00  0.00    +0.000 A 
ATOM     26 BR   UNL     1      -0.433  10.164  20.287  0.00  0.00    +0.000 Br
ATOM     27  C   UNL     1       1.489   9.350  18.348  0.00  0.00    +0.000 A 
ATOM     28  C   UNL     1       2.501   8.536  17.829  0.00  0.00    +0.000 A 
ENDBRANCH  20  22
ENDBRANCH  19  20
ENDBRANCH  11  19
TORSDOF 6
ENDMDL
MODEL 4
REMARK VINA RESULT:      -7.5      3.314      4.266
REMARK  Name = 
REMARK  7 active torsions:
REMARK  status: ('A' for Active; 'I' for Inactive)
REMARK    1  A    between atoms: C_1  and  O_2
REMARK    2  A    between atoms: O_2  and  C_3
REMARK    3  A    between atoms: C_3  and  C_5
REMARK    4  A    between atoms: C_6  and  N_7
REMARK    5  A    between atoms: C_16  and  C_17
REMARK    6  A    between atoms: C_17  and  C_18
REMARK    7  A    between atoms: C_18  and  C_20
REMARK                            x       y       z     vdW  Elec       q    Type
REMARK                         _______ _______ _______ _____ _____    ______ ____
ROOT
ATOM      1  C   UNL     1       5.939   4.408  17.788  0.00  0.00    +0.000 C 
ATOM      2  C   UNL     1       7.233   4.693  17.529  0.00  0.00    +0.000 C 
ATOM      3  O   UNL     1       7.705   4.862  16.236  0.00  0.00    +0.000 OA
ATOM      4  C   UNL     1       6.911   4.506  15.176  0.00  0.00    +0.000 A 
ATOM      5  C   UNL     1       7.520   4.505  13.918  0.00  0.00    +0.000 A 
ATOM      6  C   UNL     1       6.784   4.156  12.786  0.00  0.00    +0.000 A 
ATOM      7  C   UNL     1       5.453   3.780  12.923  0.00  0.00    +0.000 A 
ATOM      8 BR   UNL     1       4.430   3.351  11.392  0.00  0.00    +0.000 Br
ATOM      9  C   UNL     1       4.855   3.749  14.183  0.00  0.00    +0.000 A 
ATOM     10  C   UNL     1       5.566   4.160  15.321  0.00  0.00    +0.000 A 
ATOM     11  C   UNL     1       4.908   4.238  16.686  0.00  0.00    +0.000 C 
ENDROOT
BRANCH   2  12
ATOM     12  N   UNL     1       8.224   4.862  18.471  0.00  0.00    +0.000 N 
ATOM     13  H   UNL     1       8.024   4.398  19.361  0.00  0.00    +0.000 HD
ATOM     14  H   UNL     1       8.488   5.837  18.577  0.00  0.00    +0.000 HD
ENDBRANCH   2  12
BRANCH   1  15
ATOM     15  C   UNL     1       5.511   4.259  19.206  0.00  0.00    +0.000 C 
ATOM     16  O   UNL     1       5.381   5.184  19.994  0.00  0.00    +0.000 OA
BRANCH  15  18
ATOM     17  C   UNL     1       4.005   2.690  20.101  0.00  0.00    +0.000 C 
ATOM     18  O   UNL     1       5.269   2.953  19.481  0.00  0.00    +0.000 OA
ENDBRANCH  15  18
ENDBRANCH   1  15
BRANCH  11  19
ATOM     19  C   UNL     1       3.878   5.387  16.758  0.00  0.00    +0.000 C 
BRANCH  19  20
ATOM     20  C   UNL     1       2.694   5.161  17.685  0.00  0.00    +0.000 C 
ATOM     21  O   UNL     1       2.011   4.139  17.601  0.00  0.00    +0.000 OA
BRANCH  20  22
ATOM     22  C   UNL     1       2.301   6.201  18.683  0.00  0.00    +0.000 A 
ATOM     23  C   UNL     1       1.958   5.778  19.976  0.00  0.00    +0.000 A 
ATOM     24  C   UNL     1       1.546   6.702  20.940  0.00  0.00    +0.000 A 
ATOM     25  C   UNL     1       1.492   8.055  20.618  0.00  0.00    +0.000 A 
ATOM     26 BR   UNL     1       0.915   9.310  21.907  0.00  0.00    +0.000 Br
ATOM     27  C   UNL     1       1.857   8.492  19.345  0.00  0.00    +0.000 A 
ATOM     28  C   UNL     1       2.259   7.564  18.379  0.00  0.00    +0.000 A 
ENDBRANCH  20  22
ENDBRANCH  19  20
ENDBRANCH  11  19
TORSDOF 6
ENDMDL
MODEL 5
REMARK VINA RESULT:      -7.4      2.636      4.487
REMARK  Name = 
REMARK  7 active torsions:
REMARK  status: ('A' for Active; 'I' for Inactive)
REMARK    1  A    between atoms: C_1  and  O_2
REMARK    2  A    between atoms: O_2  and  C_3
REMARK    3  A    between atoms: C_3  and  C_5
REMARK    4  A    between atoms: C_6  and  N_7
REMARK    5  A    between atoms: C_16  and  C_17
REMARK    6  A    between atoms: C_17  and  C_18
REMARK    7  A    between atoms: C_18  and  C_20
REMARK                            x       y       z     vdW  Elec       q    Type
REMARK                         _______ _______ _______ _____ _____    ______ ____
ROOT
ATOM      1  C   UNL     1       5.899   4.899  17.202  0.00  0.00    +0.000 C 
ATOM      2  C   UNL     1       5.506   4.014  16.261  0.00  0.00    +0.000 C 
ATOM      3  O   UNL     1       4.368   3.237  16.411  0.00  0.00    +0.000 OA
ATOM      4  C   UNL     1       3.747   3.179  17.633  0.00  0.00    +0.000 A 
ATOM      5  C   UNL     1       2.737   2.222  17.770  0.00  0.00    +0.000 A 
ATOM      6  C   UNL     1       2.053   2.096  18.978  0.00  0.00    +0.000 A 
ATOM      7  C   UNL     1       2.405   2.907  20.051  0.00  0.00    +0.000 A 
ATOM      8 BR   UNL     1       1.454   2.782  21.680  0.00  0.00    +0.000 Br
ATOM      9  C   UNL     1       3.435   3.839  19.924  0.00  0.00    +0.000 A 
ATOM     10  C   UNL     1       4.087   4.020  18.694  0.00  0.00    +0.000 A 
ATOM     11  C   UNL     1       5.135   5.099  18.499  0.00  0.00    +0.000 C 
ENDROOT
BRANCH   2  12
ATOM     12  N   UNL     1       6.144   3.778  15.064  0.00  0.00    +0.000 N 
ATOM     13  H   UNL     1       6.789   2.983  15.094  0.00  0.00    +0.000 HD
ATOM     14  H   UNL     1       6.565   4.620  14.681  0.00  0.00    +0.000 HD
ENDBRANCH   2  12
BRANCH   1  15
ATOM     15  C   UNL     1       7.125   5.707  16.955  0.00  0.00    +0.000 C 
ATOM     16  O   UNL     1       7.475   6.121  15.860  0.00  0.00    +0.000 OA
BRANCH  15  18
ATOM     17  C   UNL     1       8.104   7.300  18.382  0.00  0.00    +0.000 C 
ATOM     18  O   UNL     1       7.776   5.931  18.124  0.00  0.00    +0.000 OA
ENDBRANCH  15  18
ENDBRANCH   1  15
BRANCH  11  19
ATOM     19  C   UNL     1       4.510   6.512  18.520  0.00  0.00    +0.000 C 
BRANCH  19  20
ATOM     20  C   UNL     1       3.000   6.573  18.350  0.00  0.00    +0.000 C 
ATOM     21  O   UNL     1       2.432   5.902  17.488  0.00  0.00    +0.000 OA
BRANCH  20  22
ATOM     22  C   UNL     1       2.179   7.493  19.194  0.00  0.00    +0.000 A 
ATOM     23  C   UNL     1       1.759   8.707  18.630  0.00  0.00    +0.000 A 
ATOM     24  C   UNL     1       1.021   9.623  19.384  0.00  0.00    +0.000 A 
ATOM     25  C   UNL     1       0.686   9.320  20.701  0.00  0.00    +0.000 A 
ATOM     26 BR   UNL     1      -0.291  10.562  21.736  0.00  0.00    +0.000 Br
ATOM     27  C   UNL     1       1.072   8.105  21.264  0.00  0.00    +0.000 A 
ATOM     28  C   UNL     1       1.820   7.194  20.511  0.00  0.00    +0.000 A 
ENDBRANCH  20  22
ENDBRANCH  19  20
ENDBRANCH  11  19
TORSDOF 6
ENDMDL
MODEL 6
REMARK VINA RESULT:      -7.3      2.744      4.354
REMARK  Name = 
REMARK  7 active torsions:
REMARK  status: ('A' for Active; 'I' for Inactive)
REMARK    1  A    between atoms: C_1  and  O_2
REMARK    2  A    between atoms: O_2  and  C_3
REMARK    3  A    between atoms: C_3  and  C_5
REMARK    4  A    between atoms: C_6  and  N_7
REMARK    5  A    between atoms: C_16  and  C_17
REMARK    6  A    between atoms: C_17  and  C_18
REMARK    7  A    between atoms: C_18  and  C_20
REMARK                            x       y       z     vdW  Elec       q    Type
REMARK                         _______ _______ _______ _____ _____    ______ ____
ROOT
ATOM      1  C   UNL     1       4.957   5.255  16.681  0.00  0.00    +0.000 C 
ATOM      2  C   UNL     1       5.158   4.037  16.134  0.00  0.00    +0.000 C 
ATOM      3  O   UNL     1       4.522   2.901  16.612  0.00  0.00    +0.000 OA
ATOM      4  C   UNL     1       3.855   2.956  17.810  0.00  0.00    +0.000 A 
ATOM      5  C   UNL     1       3.418   1.734  18.331  0.00  0.00    +0.000 A 
ATOM      6  C   UNL     1       2.731   1.698  19.544  0.00  0.00    +0.000 A 
ATOM      7  C   UNL     1       2.513   2.880  20.243  0.00  0.00    +0.000 A 
ATOM      8 BR   UNL     1       1.541   2.853  21.863  0.00  0.00    +0.000 Br
ATOM      9  C   UNL     1       2.979   4.095  19.738  0.00  0.00    +0.000 A 
ATOM     10  C   UNL     1       3.614   4.152  18.488  0.00  0.00    +0.000 A 
ATOM     11  C   UNL     1       4.034   5.471  17.867  0.00  0.00    +0.000 C 
ENDROOT
BRANCH   2  12
ATOM     12  N   UNL     1       5.977   3.762  15.062  0.00  0.00    +0.000 N 
ATOM     13  H   UNL     1       6.975   3.848  15.277  0.00  0.00    +0.000 HD
ATOM     14  H   UNL     1       5.702   4.275  14.229  0.00  0.00    +0.000 HD
ENDBRANCH   2  12
BRANCH   1  15
ATOM     15  C   UNL     1       5.667   6.426  16.097  0.00  0.00    +0.000 C 
ATOM     16  O   UNL     1       5.207   7.158  15.234  0.00  0.00    +0.000 OA
BRANCH  15  18
ATOM     17  C   UNL     1       7.041   7.749  17.472  0.00  0.00    +0.000 C 
ATOM     18  O   UNL     1       6.884   6.568  16.680  0.00  0.00    +0.000 OA
ENDBRANCH  15  18
ENDBRANCH   1  15
BRANCH  11  19
ATOM     19  C   UNL     1       2.813   6.309  17.427  0.00  0.00    +0.000 C 
BRANCH  19  20
ATOM     20  C   UNL     1       2.828   7.773  17.839  0.00  0.00    +0.000 C 
ATOM     21  O   UNL     1       3.522   8.592  17.237  0.00  0.00    +0.000 OA
BRANCH  20  22
ATOM     22  C   UNL     1       2.039   8.236  19.020  0.00  0.00    +0.000 A 
ATOM     23  C   UNL     1       2.034   7.428  20.167  0.00  0.00    +0.000 A 
ATOM     24  C   UNL     1       1.283   7.792  21.289  0.00  0.00    +0.000 A 
ATOM     25  C   UNL     1       0.550   8.975  21.272  0.00  0.00    +0.000 A 
ATOM     26 BR   UNL     1      -0.486   9.464  22.774  0.00  0.00    +0.000 Br
ATOM     27  C   UNL     1       0.570   9.801  20.150  0.00  0.00    +0.000 A 
ATOM     28  C   UNL     1       1.313   9.430  19.025  0.00  0.00    +0.000 A 
ENDBRANCH  20  22
ENDBRANCH  19  20
ENDBRANCH  11  19
TORSDOF 6
ENDMDL
MODEL 7
REMARK VINA RESULT:      -7.2      3.357      4.184
REMARK  Name = 
REMARK  7 active torsions:
REMARK  status: ('A' for Active; 'I' for Inactive)
REMARK    1  A    between atoms: C_1  and  O_2
REMARK    2  A    between atoms: O_2  and  C_3
REMARK    3  A    between atoms: C_3  and  C_5
REMARK    4  A    between atoms: C_6  and  N_7
REMARK    5  A    between atoms: C_16  and  C_17
REMARK    6  A    between atoms: C_17  and  C_18
REMARK    7  A    between atoms: C_18  and  C_20
REMARK                            x       y       z     vdW  Elec       q    Type
REMARK                         _______ _______ _______ _____ _____    ______ ____
ROOT
ATOM      1  C   UNL     1       6.039   4.452  17.870  0.00  0.00    +0.000 C 
ATOM      2  C   UNL     1       7.185   5.120  17.615  0.00  0.00    +0.000 C 
ATOM      3  O   UNL     1       7.585   5.429  16.324  0.00  0.00    +0.000 OA
ATOM      4  C   UNL     1       6.941   4.848  15.262  0.00  0.00    +0.000 A 
ATOM      5  C   UNL     1       7.525   5.037  14.005  0.00  0.00    +0.000 A 
ATOM      6  C   UNL     1       6.934   4.483  12.870  0.00  0.00    +0.000 A 
ATOM      7  C   UNL     1       5.782   3.716  13.003  0.00  0.00    +0.000 A 
ATOM      8 BR   UNL     1       4.944   2.999  11.468  0.00  0.00    +0.000 Br
ATOM      9  C   UNL     1       5.219   3.501  14.261  0.00  0.00    +0.000 A 
ATOM     10  C   UNL     1       5.767   4.107  15.402  0.00  0.00    +0.000 A 
ATOM     11  C   UNL     1       5.113   3.977  16.765  0.00  0.00    +0.000 C 
ENDROOT
BRANCH   2  12
ATOM     12  N   UNL     1       8.073   5.582  18.561  0.00  0.00    +0.000 N 
ATOM     13  H   UNL     1       8.365   4.866  19.232  0.00  0.00    +0.000 HD
ATOM     14  H   UNL     1       7.751   6.438  19.003  0.00  0.00    +0.000 HD
ENDBRANCH   2  12
BRANCH   1  15
ATOM     15  C   UNL     1       5.674   4.176  19.287  0.00  0.00    +0.000 C 
ATOM     16  O   UNL     1       5.796   4.974  20.204  0.00  0.00    +0.000 OA
BRANCH  15  18
ATOM     17  C   UNL     1       3.892   2.840  20.042  0.00  0.00    +0.000 C 
ATOM     18  O   UNL     1       5.168   2.922  19.398  0.00  0.00    +0.000 OA
ENDBRANCH  15  18
ENDBRANCH   1  15
BRANCH  11  19
ATOM     19  C   UNL     1       3.780   4.755  16.835  0.00  0.00    +0.000 C 
BRANCH  19  20
ATOM     20  C   UNL     1       3.897   6.253  17.075  0.00  0.00    +0.000 C 
ATOM     21  O   UNL     1       4.714   6.932  16.452  0.00  0.00    +0.000 OA
BRANCH  20  22
ATOM     22  C   UNL     1       3.059   6.923  18.114  0.00  0.00    +0.000 A 
ATOM     23  C   UNL     1       2.556   8.202  17.832  0.00  0.00    +0.000 A 
ATOM     24  C   UNL     1       1.797   8.892  18.781  0.00  0.00    +0.000 A 
ATOM     25  C   UNL     1       1.524   8.297  20.009  0.00  0.00    +0.000 A 
ATOM     26 BR   UNL     1       0.519   9.232  21.308  0.00  0.00    +0.000 Br
ATOM     27  C   UNL     1       1.993   7.016  20.291  0.00  0.00    +0.000 A 
ATOM     28  C   UNL     1       2.761   6.331  19.345  0.00  0.00    +0.000 A 
ENDBRANCH  20  22
ENDBRANCH  19  20
ENDBRANCH  11  19
TORSDOF 6
ENDMDL
MODEL 8
REMARK VINA RESULT:      -7.0      2.890      4.567
REMARK  Name = 
REMARK  7 active torsions:
REMARK  status: ('A' for Active; 'I' for Inactive)
REMARK    1  A    between atoms: C_1  and  O_2
REMARK    2  A    between atoms: O_2  and  C_3
REMARK    3  A    between atoms: C_3  and  C_5
REMARK    4  A    between atoms: C_6  and  N_7
REMARK    5  A    between atoms: C_16  and  C_17
REMARK    6  A    between atoms: C_17  and  C_18
REMARK    7  A    between atoms: C_18  and  C_20
REMARK                            x       y       z     vdW  Elec       q    Type
REMARK                         _______ _______ _______ _____ _____    ______ ____
ROOT
ATOM      1  C   UNL     1       4.667   5.510  16.918  0.00  0.00    +0.000 C 
ATOM      2  C   UNL     1       4.780   4.378  16.191  0.00  0.00    +0.000 C 
ATOM      3  O   UNL     1       4.130   3.206  16.549  0.00  0.00    +0.000 OA
ATOM      4  C   UNL     1       3.550   3.109  17.788  0.00  0.00    +0.000 A 
ATOM      5  C   UNL     1       3.099   1.839  18.163  0.00  0.00    +0.000 A 
ATOM      6  C   UNL     1       2.495   1.651  19.405  0.00  0.00    +0.000 A 
ATOM      7  C   UNL     1       2.375   2.726  20.278  0.00  0.00    +0.000 A 
ATOM      8 BR   UNL     1       1.516   2.497  21.946  0.00  0.00    +0.000 Br
ATOM      9  C   UNL     1       2.855   3.985  19.917  0.00  0.00    +0.000 A 
ATOM     10  C   UNL     1       3.406   4.202  18.644  0.00  0.00    +0.000 A 
ATOM     11  C   UNL     1       3.837   5.582  18.187  0.00  0.00    +0.000 C 
ENDROOT
BRANCH   2  12
ATOM     12  N   UNL     1       5.511   4.235  15.033  0.00  0.00    +0.000 N 
ATOM     13  H   UNL     1       4.993   3.780  14.276  0.00  0.00    +0.000 HD
ATOM     14  H   UNL     1       6.421   3.816  15.205  0.00  0.00    +0.000 HD
ENDBRANCH   2  12
BRANCH   1  15
ATOM     15  C   UNL     1       5.384   6.730  16.454  0.00  0.00    +0.000 C 
ATOM     16  O   UNL     1       5.291   7.206  15.333  0.00  0.00    +0.000 OA
BRANCH  15  18
ATOM     17  C   UNL     1       7.413   6.626  17.638  0.00  0.00    +0.000 C 
ATOM     18  O   UNL     1       6.132   7.240  17.464  0.00  0.00    +0.000 OA
ENDBRANCH  15  18
ENDBRANCH   1  15
BRANCH  11  19
ATOM     19  C   UNL     1       2.625   6.513  17.960  0.00  0.00    +0.000 C 
BRANCH  19  20
ATOM     20  C   UNL     1       2.179   7.329  19.164  0.00  0.00    +0.000 C 
ATOM     21  O   UNL     1       2.063   6.808  20.274  0.00  0.00    +0.000 OA
BRANCH  20  22
ATOM     22  C   UNL     1       1.821   8.771  19.012  0.00  0.00    +0.000 A 
ATOM     23  C   UNL     1       0.980   9.347  19.977  0.00  0.00    +0.000 A 
ATOM     24  C   UNL     1       0.580  10.681  19.866  0.00  0.00    +0.000 A 
ATOM     25  C   UNL     1       1.035  11.449  18.798  0.00  0.00    +0.000 A 
ATOM     26 BR   UNL     1       0.482  13.248  18.626  0.00  0.00    +0.000 Br
ATOM     27  C   UNL     1       1.893  10.898  17.848  0.00  0.00    +0.000 A 
ATOM     28  C   UNL     1       2.283   9.559  17.955  0.00  0.00    +0.000 A 
ENDBRANCH  20  22
ENDBRANCH  19  20
ENDBRANCH  11  19
TORSDOF 6
ENDMDL
MODEL 9
REMARK VINA RESULT:      -7.0      2.792      4.801
REMARK  Name = 
REMARK  7 active torsions:
REMARK  status: ('A' for Active; 'I' for Inactive)
REMARK    1  A    between atoms: C_1  and  O_2
REMARK    2  A    between atoms: O_2  and  C_3
REMARK    3  A    between atoms: C_3  and  C_5
REMARK    4  A    between atoms: C_6  and  N_7
REMARK    5  A    between atoms: C_16  and  C_17
REMARK    6  A    between atoms: C_17  and  C_18
REMARK    7  A    between atoms: C_18  and  C_20
REMARK                            x       y       z     vdW  Elec       q    Type
REMARK                         _______ _______ _______ _____ _____    ______ ____
ROOT
ATOM      1  C   UNL     1       5.826   4.292  16.866  0.00  0.00    +0.000 C 
ATOM      2  C   UNL     1       5.052   3.749  15.903  0.00  0.00    +0.000 C 
ATOM      3  O   UNL     1       3.749   3.342  16.147  0.00  0.00    +0.000 OA
ATOM      4  C   UNL     1       3.300   3.262  17.440  0.00  0.00    +0.000 A 
ATOM      5  C   UNL     1       2.057   2.650  17.627  0.00  0.00    +0.000 A 
ATOM      6  C   UNL     1       1.524   2.528  18.910  0.00  0.00    +0.000 A 
ATOM      7  C   UNL     1       2.251   2.991  20.001  0.00  0.00    +0.000 A 
ATOM      8 BR   UNL     1       1.521   2.877  21.740  0.00  0.00    +0.000 Br
ATOM      9  C   UNL     1       3.506   3.572  19.816  0.00  0.00    +0.000 A 
ATOM     10  C   UNL     1       4.024   3.759  18.525  0.00  0.00    +0.000 A 
ATOM     11  C   UNL     1       5.336   4.484  18.291  0.00  0.00    +0.000 C 
ENDROOT
BRANCH   2  12
ATOM     12  N   UNL     1       5.424   3.544  14.593  0.00  0.00    +0.000 N 
ATOM     13  H   UNL     1       4.994   4.202  13.937  0.00  0.00    +0.000 HD
ATOM     14  H   UNL     1       5.318   2.573  14.313  0.00  0.00    +0.000 HD
ENDBRANCH   2  12
BRANCH   1  15
ATOM     15  C   UNL     1       7.209   4.719  16.515  0.00  0.00    +0.000 C 
ATOM     16  O   UNL     1       8.226   4.241  16.994  0.00  0.00    +0.000 OA
BRANCH  15  18
ATOM     17  C   UNL     1       7.801   5.367  14.333  0.00  0.00    +0.000 C 
ATOM     18  O   UNL     1       7.167   5.695  15.574  0.00  0.00    +0.000 OA
ENDBRANCH  15  18
ENDBRANCH   1  15
BRANCH  11  19
ATOM     19  C   UNL     1       5.217   5.993  18.599  0.00  0.00    +0.000 C 
BRANCH  19  20
ATOM     20  C   UNL     1       4.181   6.757  17.789  0.00  0.00    +0.000 C 
ATOM     21  O   UNL     1       4.260   6.825  16.562  0.00  0.00    +0.000 OA
BRANCH  20  22
ATOM     22  C   UNL     1       3.072   7.488  18.473  0.00  0.00    +0.000 A 
ATOM     23  C   UNL     1       2.510   8.595  17.820  0.00  0.00    +0.000 A 
ATOM     24  C   UNL     1       1.497   9.341  18.428  0.00  0.00    +0.000 A 
ATOM     25  C   UNL     1       1.029   8.969  19.686  0.00  0.00    +0.000 A 
ATOM     26 BR   UNL     1      -0.325   9.984  20.526  0.00  0.00    +0.000 Br
ATOM     27  C   UNL     1       1.559   7.855  20.333  0.00  0.00    +0.000 A 
ATOM     28  C   UNL     1       2.580   7.117  19.727  0.00  0.00    +0.000 A 
ENDBRANCH  20  22
ENDBRANCH  19  20
ENDBRANCH  11  19
TORSDOF 6
ENDMDL
