MODEL 1
REMARK VINA RESULT:      -8.2      0.000      0.000
REMARK  Name = 
REMARK  3 active torsions:
REMARK  status: ('A' for Active; 'I' for Inactive)
REMARK    1  A    between atoms: C_5  and  C_7
REMARK    2  A    between atoms: N_10  and  C_11
REMARK    3  A    between atoms: C_21  and  C_22
REMARK                            x       y       z     vdW  Elec       q    Type
REMARK                         _______ _______ _______ _____ _____    ______ ____
ROOT
ATOM      1  C   UNL     1       6.356   4.390  16.555  0.00  0.00    +0.000 A 
ATOM      2  C   UNL     1       7.143   4.708  17.676  0.00  0.00    +0.000 A 
ATOM      3  N   UNL     1       6.508   4.539  18.828  0.00  0.00    +0.000 NA
ATOM      4  N   UNL     1       5.244   4.184  18.490  0.00  0.00    +0.000 N 
ATOM      5  C   UNL     1       5.138   4.006  17.102  0.00  0.00    +0.000 A 
ENDROOT
BRANCH   1  10
ATOM      6  N   UNL     1       5.925   2.658  12.300  0.00  0.00    +0.000 NA
ATOM      7  C   UNL     1       6.498   3.613  12.932  0.00  0.00    +0.000 C 
ATOM      8  N   UNL     1       7.252   4.556  12.329  0.00  0.00    +0.000 N 
ATOM      9  N   UNL     1       6.299   3.622  14.278  0.00  0.00    +0.000 N 
ATOM     10  C   UNL     1       6.822   4.518  15.184  0.00  0.00    +0.000 C 
ATOM     11  O   UNL     1       7.696   5.332  14.888  0.00  0.00    +0.000 OA
ATOM     12  H   UNL     1       6.118   2.769  11.300  0.00  0.00    +0.000 HD
ATOM     13  H   UNL     1       7.737   4.293  11.485  0.00  0.00    +0.000 HD
ATOM     14  H   UNL     1       7.829   5.110  12.967  0.00  0.00    +0.000 HD
ATOM     15  H   UNL     1       5.678   2.896  14.596  0.00  0.00    +0.000 HD
ENDBRANCH   1  10
BRANCH   4  16
ATOM     16  C   UNL     1       4.236   4.048  19.501  0.00  0.00    +0.000 A 
ATOM     17  C   UNL     1       4.141   2.818  20.176  0.00  0.00    +0.000 A 
ATOM     18  C   UNL     1       3.143   2.598  21.118  0.00  0.00    +0.000 A 
ATOM     19  C   UNL     1       2.243   3.612  21.419  0.00  0.00    +0.000 A 
ATOM     20  C   UNL     1       2.326   4.864  20.797  0.00  0.00    +0.000 A 
ATOM     21  C   UNL     1       1.391   5.853  21.149  0.00  0.00    +0.000 A 
ATOM     22  C   UNL     1       1.405   7.110  20.553  0.00  0.00    +0.000 A 
ATOM     23  C   UNL     1       2.352   7.390  19.585  0.00  0.00    +0.000 A 
ATOM     24  C   UNL     1       3.284   6.414  19.219  0.00  0.00    +0.000 A 
ATOM     25  C   UNL     1       3.327   5.120  19.819  0.00  0.00    +0.000 A 
ENDBRANCH   4  16
BRANCH   5  26
ATOM     26  C   UNL     1       3.891   3.619  16.318  0.00  0.00    +0.000 C 
ATOM     27  C   UNL     1       3.027   2.471  16.753  0.00  0.00    +0.000 C 
ATOM     28  C   UNL     1       2.509   3.885  16.834  0.00  0.00    +0.000 C 
ENDBRANCH   5  26
TORSDOF 3
ENDMDL
MODEL 2
REMARK VINA RESULT:      -8.1      4.496      7.254
REMARK  Name = 
REMARK  3 active torsions:
REMARK  status: ('A' for Active; 'I' for Inactive)
REMARK    1  A    between atoms: C_5  and  C_7
REMARK    2  A    between atoms: N_10  and  C_11
REMARK    3  A    between atoms: C_21  and  C_22
REMARK                            x       y       z     vdW  Elec       q    Type
REMARK                         _______ _______ _______ _____ _____    ______ ____
ROOT
ATOM      1  C   UNL     1       2.388   7.579  18.745  0.00  0.00    +0.000 A 
ATOM      2  C   UNL     1       2.569   8.350  17.582  0.00  0.00    +0.000 A 
ATOM      3  N   UNL     1       2.000   9.545  17.652  0.00  0.00    +0.000 NA
ATOM      4  N   UNL     1       1.348   9.562  18.841  0.00  0.00    +0.000 N 
ATOM      5  C   UNL     1       1.631   8.399  19.572  0.00  0.00    +0.000 A 
ENDROOT
BRANCH   1  10
ATOM      6  N   UNL     1       2.034   3.267  17.143  0.00  0.00    +0.000 NA
ATOM      7  C   UNL     1       2.725   3.972  17.959  0.00  0.00    +0.000 C 
ATOM      8  N   UNL     1       3.764   3.482  18.667  0.00  0.00    +0.000 N 
ATOM      9  N   UNL     1       2.341   5.271  18.075  0.00  0.00    +0.000 N 
ATOM     10  C   UNL     1       2.896   6.226  18.898  0.00  0.00    +0.000 C 
ATOM     11  O   UNL     1       3.715   5.955  19.777  0.00  0.00    +0.000 OA
ATOM     12  H   UNL     1       2.429   2.322  17.114  0.00  0.00    +0.000 HD
ATOM     13  H   UNL     1       3.741   2.504  18.910  0.00  0.00    +0.000 HD
ATOM     14  H   UNL     1       4.071   4.080  19.438  0.00  0.00    +0.000 HD
ATOM     15  H   UNL     1       1.586   5.523  17.458  0.00  0.00    +0.000 HD
ENDBRANCH   1  10
BRANCH   4  16
ATOM     16  C   UNL     1       0.506  10.669  19.188  0.00  0.00    +0.000 A 
ATOM     17  C   UNL     1       1.052  11.688  19.990  0.00  0.00    +0.000 A 
ATOM     18  C   UNL     1       0.269  12.753  20.419  0.00  0.00    +0.000 A 
ATOM     19  C   UNL     1      -1.062  12.832  20.030  0.00  0.00    +0.000 A 
ATOM     20  C   UNL     1      -1.635  11.858  19.201  0.00  0.00    +0.000 A 
ATOM     21  C   UNL     1      -2.985  11.997  18.836  0.00  0.00    +0.000 A 
ATOM     22  C   UNL     1      -3.619  11.054  18.033  0.00  0.00    +0.000 A 
ATOM     23  C   UNL     1      -2.910   9.952  17.593  0.00  0.00    +0.000 A 
ATOM     24  C   UNL     1      -1.568   9.797  17.955  0.00  0.00    +0.000 A 
ATOM     25  C   UNL     1      -0.866  10.748  18.754  0.00  0.00    +0.000 A 
ENDBRANCH   4  16
BRANCH   5  26
ATOM     26  C   UNL     1       1.093   8.024  20.947  0.00  0.00    +0.000 C 
ATOM     27  C   UNL     1       1.211   8.967  22.109  0.00  0.00    +0.000 C 
ATOM     28  C   UNL     1      -0.141   8.655  21.520  0.00  0.00    +0.000 C 
ENDBRANCH   5  26
TORSDOF 3
ENDMDL
MODEL 3
REMARK VINA RESULT:      -8.1      4.400      7.308
REMARK  Name = 
REMARK  3 active torsions:
REMARK  status: ('A' for Active; 'I' for Inactive)
REMARK    1  A    between atoms: C_5  and  C_7
REMARK    2  A    between atoms: N_10  and  C_11
REMARK    3  A    between atoms: C_21  and  C_22
REMARK                            x       y       z     vdW  Elec       q    Type
REMARK                         _______ _______ _______ _____ _____    ______ ____
ROOT
ATOM      1  C   UNL     1       2.411   7.492  18.762  0.00  0.00    +0.000 A 
ATOM      2  C   UNL     1       2.597   8.240  17.585  0.00  0.00    +0.000 A 
ATOM      3  N   UNL     1       2.044   9.444  17.635  0.00  0.00    +0.000 NA
ATOM      4  N   UNL     1       1.397   9.490  18.826  0.00  0.00    +0.000 N 
ATOM      5  C   UNL     1       1.668   8.337  19.577  0.00  0.00    +0.000 A 
ENDROOT
BRANCH   1  10
ATOM      6  N   UNL     1       6.230   4.955  19.273  0.00  0.00    +0.000 NA
ATOM      7  C   UNL     1       4.954   4.845  19.283  0.00  0.00    +0.000 C 
ATOM      8  N   UNL     1       4.310   3.688  19.539  0.00  0.00    +0.000 N 
ATOM      9  N   UNL     1       4.270   5.990  19.014  0.00  0.00    +0.000 N 
ATOM     10  C   UNL     1       2.902   6.136  18.938  0.00  0.00    +0.000 C 
ATOM     11  O   UNL     1       2.129   5.178  18.931  0.00  0.00    +0.000 OA
ATOM     12  H   UNL     1       6.636   4.047  19.517  0.00  0.00    +0.000 HD
ATOM     13  H   UNL     1       4.779   2.831  19.289  0.00  0.00    +0.000 HD
ATOM     14  H   UNL     1       3.318   3.690  19.288  0.00  0.00    +0.000 HD
ATOM     15  H   UNL     1       4.864   6.793  18.891  0.00  0.00    +0.000 HD
ENDBRANCH   1  10
BRANCH   4  16
ATOM     16  C   UNL     1       0.571  10.614  19.157  0.00  0.00    +0.000 A 
ATOM     17  C   UNL     1       1.132  11.639  19.940  0.00  0.00    +0.000 A 
ATOM     18  C   UNL     1       0.365  12.722  20.353  0.00  0.00    +0.000 A 
ATOM     19  C   UNL     1      -0.966  12.812  19.965  0.00  0.00    +0.000 A 
ATOM     20  C   UNL     1      -1.553  11.832  19.154  0.00  0.00    +0.000 A 
ATOM     21  C   UNL     1      -2.903  11.983  18.789  0.00  0.00    +0.000 A 
ATOM     22  C   UNL     1      -3.552  11.035  18.004  0.00  0.00    +0.000 A 
ATOM     23  C   UNL     1      -2.858   9.916  17.581  0.00  0.00    +0.000 A 
ATOM     24  C   UNL     1      -1.518   9.749  17.943  0.00  0.00    +0.000 A 
ATOM     25  C   UNL     1      -0.801  10.704  18.724  0.00  0.00    +0.000 A 
ENDBRANCH   4  16
BRANCH   5  26
ATOM     26  C   UNL     1       1.130   7.994  20.961  0.00  0.00    +0.000 C 
ATOM     27  C   UNL     1       1.221   8.975  22.093  0.00  0.00    +0.000 C 
ATOM     28  C   UNL     1      -0.120   8.614  21.507  0.00  0.00    +0.000 C 
ENDBRANCH   5  26
TORSDOF 3
ENDMDL
MODEL 4
REMARK VINA RESULT:      -8.0      4.545      7.649
REMARK  Name = 
REMARK  3 active torsions:
REMARK  status: ('A' for Active; 'I' for Inactive)
REMARK    1  A    between atoms: C_5  and  C_7
REMARK    2  A    between atoms: N_10  and  C_11
REMARK    3  A    between atoms: C_21  and  C_22
REMARK                            x       y       z     vdW  Elec       q    Type
REMARK                         _______ _______ _______ _____ _____    ______ ____
ROOT
ATOM      1  C   UNL     1       2.360   7.358  19.092  0.00  0.00    +0.000 A 
ATOM      2  C   UNL     1       2.648   7.906  17.828  0.00  0.00    +0.000 A 
ATOM      3  N   UNL     1       2.160   9.127  17.663  0.00  0.00    +0.000 NA
ATOM      4  N   UNL     1       1.457   9.387  18.793  0.00  0.00    +0.000 N 
ATOM      5  C   UNL     1       1.625   8.352  19.725  0.00  0.00    +0.000 A 
ENDROOT
BRANCH   1  10
ATOM      6  N   UNL     1       0.788   3.274  20.552  0.00  0.00    +0.000 NA
ATOM      7  C   UNL     1       1.874   3.853  20.198  0.00  0.00    +0.000 C 
ATOM      8  N   UNL     1       3.065   3.223  20.134  0.00  0.00    +0.000 N 
ATOM      9  N   UNL     1       1.754   5.171  19.883  0.00  0.00    +0.000 N 
ATOM     10  C   UNL     1       2.766   6.024  19.499  0.00  0.00    +0.000 C 
ATOM     11  O   UNL     1       3.957   5.720  19.572  0.00  0.00    +0.000 OA
ATOM     12  H   UNL     1       0.991   2.287  20.735  0.00  0.00    +0.000 HD
ATOM     13  H   UNL     1       3.216   2.450  20.765  0.00  0.00    +0.000 HD
ATOM     14  H   UNL     1       3.872   3.847  20.065  0.00  0.00    +0.000 HD
ATOM     15  H   UNL     1       0.806   5.508  19.922  0.00  0.00    +0.000 HD
ENDBRANCH   1  10
BRANCH   4  16
ATOM     16  C   UNL     1       0.678  10.586  18.900  0.00  0.00    +0.000 A 
ATOM     17  C   UNL     1       1.279  11.713  19.488  0.00  0.00    +0.000 A 
ATOM     18  C   UNL     1       0.558  12.885  19.685  0.00  0.00    +0.000 A 
ATOM     19  C   UNL     1      -0.766  12.957  19.270  0.00  0.00    +0.000 A 
ATOM     20  C   UNL     1      -1.391  11.870  18.646  0.00  0.00    +0.000 A 
ATOM     21  C   UNL     1      -2.731  12.007  18.242  0.00  0.00    +0.000 A 
ATOM     22  C   UNL     1      -3.416  10.958  17.636  0.00  0.00    +0.000 A 
ATOM     23  C   UNL     1      -2.770   9.753  17.436  0.00  0.00    +0.000 A 
ATOM     24  C   UNL     1      -1.440   9.600  17.839  0.00  0.00    +0.000 A 
ATOM     25  C   UNL     1      -0.687  10.652  18.440  0.00  0.00    +0.000 A 
ENDBRANCH   4  16
BRANCH   5  26
ATOM     26  C   UNL     1       0.998   8.252  21.110  0.00  0.00    +0.000 C 
ATOM     27  C   UNL     1       1.152   9.360  22.112  0.00  0.00    +0.000 C 
ATOM     28  C   UNL     1      -0.197   9.065  21.505  0.00  0.00    +0.000 C 
ENDBRANCH   5  26
TORSDOF 3
ENDMDL
MODEL 5
REMARK VINA RESULT:      -7.7      3.461      5.731
REMARK  Name = 
REMARK  3 active torsions:
REMARK  status: ('A' for Active; 'I' for Inactive)
REMARK    1  A    between atoms: C_5  and  C_7
REMARK    2  A    between atoms: N_10  and  C_11
REMARK    3  A    between atoms: C_21  and  C_22
REMARK                            x       y       z     vdW  Elec       q    Type
REMARK                         _______ _______ _______ _____ _____    ______ ____
ROOT
ATOM      1  C   UNL     1       2.833   6.617  18.522  0.00  0.00    +0.000 A 
ATOM      2  C   UNL     1       2.900   7.848  17.844  0.00  0.00    +0.000 A 
ATOM      3  N   UNL     1       2.341   8.846  18.514  0.00  0.00    +0.000 NA
ATOM      4  N   UNL     1       1.809   8.278  19.624  0.00  0.00    +0.000 N 
ATOM      5  C   UNL     1       2.161   6.922  19.699  0.00  0.00    +0.000 A 
ENDROOT
BRANCH   1  10
ATOM      6  N   UNL     1       6.671   4.122  17.954  0.00  0.00    +0.000 NA
ATOM      7  C   UNL     1       5.405   4.055  17.772  0.00  0.00    +0.000 C 
ATOM      8  N   UNL     1       4.781   2.960  17.289  0.00  0.00    +0.000 N 
ATOM      9  N   UNL     1       4.711   5.176  18.102  0.00  0.00    +0.000 N 
ATOM     10  C   UNL     1       3.353   5.373  17.979  0.00  0.00    +0.000 C 
ATOM     11  O   UNL     1       2.618   4.592  17.374  0.00  0.00    +0.000 OA
ATOM     12  H   UNL     1       7.084   3.218  17.703  0.00  0.00    +0.000 HD
ATOM     13  H   UNL     1       5.303   2.367  16.662  0.00  0.00    +0.000 HD
ATOM     14  H   UNL     1       3.820   3.122  16.981  0.00  0.00    +0.000 HD
ATOM     15  H   UNL     1       5.285   5.903  18.498  0.00  0.00    +0.000 HD
ENDBRANCH   1  10
BRANCH   4  16
ATOM     16  C   UNL     1       1.006   9.057  20.521  0.00  0.00    +0.000 A 
ATOM     17  C   UNL     1       1.152   8.833  21.902  0.00  0.00    +0.000 A 
ATOM     18  C   UNL     1       0.354   9.505  22.821  0.00  0.00    +0.000 A 
ATOM     19  C   UNL     1      -0.581  10.431  22.375  0.00  0.00    +0.000 A 
ATOM     20  C   UNL     1      -0.732  10.711  21.011  0.00  0.00    +0.000 A 
ATOM     21  C   UNL     1      -1.691  11.663  20.623  0.00  0.00    +0.000 A 
ATOM     22  C   UNL     1      -1.905  11.971  19.283  0.00  0.00    +0.000 A 
ATOM     23  C   UNL     1      -1.168  11.320  18.312  0.00  0.00    +0.000 A 
ATOM     24  C   UNL     1      -0.217  10.364  18.683  0.00  0.00    +0.000 A 
ATOM     25  C   UNL     1       0.059  10.033  20.042  0.00  0.00    +0.000 A 
ENDBRANCH   4  16
BRANCH   5  26
ATOM     26  C   UNL     1       1.759   5.926  20.779  0.00  0.00    +0.000 C 
ATOM     27  C   UNL     1       1.039   4.655  20.432  0.00  0.00    +0.000 C 
ATOM     28  C   UNL     1       2.455   4.610  20.948  0.00  0.00    +0.000 C 
ENDBRANCH   5  26
TORSDOF 3
ENDMDL
MODEL 6
REMARK VINA RESULT:      -7.7      3.406      5.572
REMARK  Name = 
REMARK  3 active torsions:
REMARK  status: ('A' for Active; 'I' for Inactive)
REMARK    1  A    between atoms: C_5  and  C_7
REMARK    2  A    between atoms: N_10  and  C_11
REMARK    3  A    between atoms: C_21  and  C_22
REMARK                            x       y       z     vdW  Elec       q    Type
REMARK                         _______ _______ _______ _____ _____    ______ ____
ROOT
ATOM      1  C   UNL     1       2.981   5.529  18.697  0.00  0.00    +0.000 A 
ATOM      2  C   UNL     1       3.407   6.670  17.994  0.00  0.00    +0.000 A 
ATOM      3  N   UNL     1       2.974   7.805  18.526  0.00  0.00    +0.000 NA
ATOM      4  N   UNL     1       2.172   7.435  19.555  0.00  0.00    +0.000 N 
ATOM      5  C   UNL     1       2.216   6.045  19.736  0.00  0.00    +0.000 A 
ENDROOT
BRANCH   1  10
ATOM      6  N   UNL     1       5.155   1.677  20.009  0.00  0.00    +0.000 NA
ATOM      7  C   UNL     1       4.407   2.127  19.072  0.00  0.00    +0.000 C 
ATOM      8  N   UNL     1       3.971   1.373  18.042  0.00  0.00    +0.000 N 
ATOM      9  N   UNL     1       4.071   3.441  19.177  0.00  0.00    +0.000 N 
ATOM     10  C   UNL     1       3.305   4.171  18.295  0.00  0.00    +0.000 C 
ATOM     11  O   UNL     1       2.976   3.744  17.187  0.00  0.00    +0.000 OA
ATOM     12  H   UNL     1       5.317   0.679  19.844  0.00  0.00    +0.000 HD
ATOM     13  H   UNL     1       4.558   0.607  17.747  0.00  0.00    +0.000 HD
ATOM     14  H   UNL     1       3.585   1.906  17.259  0.00  0.00    +0.000 HD
ATOM     15  H   UNL     1       4.417   3.878  20.016  0.00  0.00    +0.000 HD
ENDBRANCH   1  10
BRANCH   4  16
ATOM     16  C   UNL     1       1.422   8.420  20.277  0.00  0.00    +0.000 A 
ATOM     17  C   UNL     1       1.575   8.472  21.674  0.00  0.00    +0.000 A 
ATOM     18  C   UNL     1       0.826   9.357  22.441  0.00  0.00    +0.000 A 
ATOM     19  C   UNL     1      -0.065  10.223  21.821  0.00  0.00    +0.000 A 
ATOM     20  C   UNL     1      -0.221  10.230  20.428  0.00  0.00    +0.000 A 
ATOM     21  C   UNL     1      -1.134  11.134  19.859  0.00  0.00    +0.000 A 
ATOM     22  C   UNL     1      -1.351  11.177  18.485  0.00  0.00    +0.000 A 
ATOM     23  C   UNL     1      -0.662  10.304  17.663  0.00  0.00    +0.000 A 
ATOM     24  C   UNL     1       0.244   9.394  18.216  0.00  0.00    +0.000 A 
ATOM     25  C   UNL     1       0.520   9.329  19.614  0.00  0.00    +0.000 A 
ENDBRANCH   4  16
BRANCH   5  26
ATOM     26  C   UNL     1       1.454   5.228  20.773  0.00  0.00    +0.000 C 
ATOM     27  C   UNL     1       0.879   3.885  20.430  0.00  0.00    +0.000 C 
ATOM     28  C   UNL     1       2.032   3.993  21.396  0.00  0.00    +0.000 C 
ENDBRANCH   5  26
TORSDOF 3
ENDMDL
MODEL 7
REMARK VINA RESULT:      -7.6      0.992      1.274
REMARK  Name = 
REMARK  3 active torsions:
REMARK  status: ('A' for Active; 'I' for Inactive)
REMARK    1  A    between atoms: C_5  and  C_7
REMARK    2  A    between atoms: N_10  and  C_11
REMARK    3  A    between atoms: C_21  and  C_22
REMARK                            x       y       z     vdW  Elec       q    Type
REMARK                         _______ _______ _______ _____ _____    ______ ____
ROOT
ATOM      1  C   UNL     1       5.947   4.240  16.316  0.00  0.00    +0.000 A 
ATOM      2  C   UNL     1       6.820   4.650  17.340  0.00  0.00    +0.000 A 
ATOM      3  N   UNL     1       6.287   4.562  18.550  0.00  0.00    +0.000 NA
ATOM      4  N   UNL     1       5.005   4.169  18.349  0.00  0.00    +0.000 N 
ATOM      5  C   UNL     1       4.786   3.886  16.992  0.00  0.00    +0.000 A 
ENDROOT
BRANCH   1  10
ATOM      6  N   UNL     1       8.880   6.038  13.242  0.00  0.00    +0.000 NA
ATOM      7  C   UNL     1       7.923   5.191  13.327  0.00  0.00    +0.000 C 
ATOM      8  N   UNL     1       7.495   4.447  12.286  0.00  0.00    +0.000 N 
ATOM      9  N   UNL     1       7.350   5.082  14.556  0.00  0.00    +0.000 N 
ATOM     10  C   UNL     1       6.294   4.270  14.905  0.00  0.00    +0.000 C 
ATOM     11  O   UNL     1       5.617   3.662  14.075  0.00  0.00    +0.000 OA
ATOM     12  H   UNL     1       9.252   6.014  12.289  0.00  0.00    +0.000 HD
ATOM     13  H   UNL     1       7.595   4.841  11.363  0.00  0.00    +0.000 HD
ATOM     14  H   UNL     1       6.591   3.993  12.432  0.00  0.00    +0.000 HD
ATOM     15  H   UNL     1       7.793   5.653  15.257  0.00  0.00    +0.000 HD
ENDBRANCH   1  10
BRANCH   4  16
ATOM     16  C   UNL     1       4.089   4.099  19.449  0.00  0.00    +0.000 A 
ATOM     17  C   UNL     1       4.035   2.904  20.188  0.00  0.00    +0.000 A 
ATOM     18  C   UNL     1       3.120   2.746  21.223  0.00  0.00    +0.000 A 
ATOM     19  C   UNL     1       2.266   3.791  21.553  0.00  0.00    +0.000 A 
ATOM     20  C   UNL     1       2.312   5.011  20.866  0.00  0.00    +0.000 A 
ATOM     21  C   UNL     1       1.427   6.032  21.252  0.00  0.00    +0.000 A 
ATOM     22  C   UNL     1       1.407   7.260  20.597  0.00  0.00    +0.000 A 
ATOM     23  C   UNL     1       2.270   7.477  19.538  0.00  0.00    +0.000 A 
ATOM     24  C   UNL     1       3.151   6.467  19.139  0.00  0.00    +0.000 A 
ATOM     25  C   UNL     1       3.227   5.202  19.794  0.00  0.00    +0.000 A 
ENDBRANCH   4  16
BRANCH   5  26
ATOM     26  C   UNL     1       3.484   3.428  16.348  0.00  0.00    +0.000 C 
ATOM     27  C   UNL     1       2.677   2.309  16.941  0.00  0.00    +0.000 C 
ATOM     28  C   UNL     1       2.146   3.720  16.957  0.00  0.00    +0.000 C 
ENDBRANCH   5  26
TORSDOF 3
ENDMDL
MODEL 8
REMARK VINA RESULT:      -7.5      1.334      2.295
REMARK  Name = 
REMARK  3 active torsions:
REMARK  status: ('A' for Active; 'I' for Inactive)
REMARK    1  A    between atoms: C_5  and  C_7
REMARK    2  A    between atoms: N_10  and  C_11
REMARK    3  A    between atoms: C_21  and  C_22
REMARK                            x       y       z     vdW  Elec       q    Type
REMARK                         _______ _______ _______ _____ _____    ______ ____
ROOT
ATOM      1  C   UNL     1       5.649   4.856  15.944  0.00  0.00    +0.000 A 
ATOM      2  C   UNL     1       4.590   4.018  15.548  0.00  0.00    +0.000 A 
ATOM      3  N   UNL     1       3.680   3.840  16.496  0.00  0.00    +0.000 NA
ATOM      4  N   UNL     1       4.163   4.492  17.582  0.00  0.00    +0.000 N 
ATOM      5  C   UNL     1       5.333   5.193  17.254  0.00  0.00    +0.000 A 
ENDROOT
BRANCH   1  10
ATOM      6  N   UNL     1       7.400   4.284  11.714  0.00  0.00    +0.000 NA
ATOM      7  C   UNL     1       7.626   4.910  12.808  0.00  0.00    +0.000 C 
ATOM      8  N   UNL     1       8.657   5.764  12.975  0.00  0.00    +0.000 N 
ATOM      9  N   UNL     1       6.746   4.659  13.814  0.00  0.00    +0.000 N 
ATOM     10  C   UNL     1       6.778   5.180  15.089  0.00  0.00    +0.000 C 
ATOM     11  O   UNL     1       7.739   5.815  15.525  0.00  0.00    +0.000 OA
ATOM     12  H   UNL     1       8.101   4.570  11.024  0.00  0.00    +0.000 HD
ATOM     13  H   UNL     1       9.492   5.594  12.437  0.00  0.00    +0.000 HD
ATOM     14  H   UNL     1       8.850   6.009  13.949  0.00  0.00    +0.000 HD
ATOM     15  H   UNL     1       5.994   4.045  13.546  0.00  0.00    +0.000 HD
ENDBRANCH   1  10
BRANCH   4  16
ATOM     16  C   UNL     1       3.487   4.396  18.843  0.00  0.00    +0.000 A 
ATOM     17  C   UNL     1       3.497   3.154  19.503  0.00  0.00    +0.000 A 
ATOM     18  C   UNL     1       2.803   2.975  20.694  0.00  0.00    +0.000 A 
ATOM     19  C   UNL     1       2.113   4.042  21.257  0.00  0.00    +0.000 A 
ATOM     20  C   UNL     1       2.109   5.304  20.651  0.00  0.00    +0.000 A 
ATOM     21  C   UNL     1       1.398   6.346  21.273  0.00  0.00    +0.000 A 
ATOM     22  C   UNL     1       1.336   7.617  20.712  0.00  0.00    +0.000 A 
ATOM     23  C   UNL     1       1.979   7.861  19.512  0.00  0.00    +0.000 A 
ATOM     24  C   UNL     1       2.683   6.832  18.878  0.00  0.00    +0.000 A 
ATOM     25  C   UNL     1       2.798   5.520  19.425  0.00  0.00    +0.000 A 
ENDBRANCH   4  16
BRANCH   5  26
ATOM     26  C   UNL     1       6.189   6.040  18.187  0.00  0.00    +0.000 C 
ATOM     27  C   UNL     1       6.554   5.552  19.559  0.00  0.00    +0.000 C 
ATOM     28  C   UNL     1       7.614   5.693  18.496  0.00  0.00    +0.000 C 
ENDBRANCH   5  26
TORSDOF 3
ENDMDL
MODEL 9
REMARK VINA RESULT:      -7.4      4.346      7.525
REMARK  Name = 
REMARK  3 active torsions:
REMARK  status: ('A' for Active; 'I' for Inactive)
REMARK    1  A    between atoms: C_5  and  C_7
REMARK    2  A    between atoms: N_10  and  C_11
REMARK    3  A    between atoms: C_21  and  C_22
REMARK                            x       y       z     vdW  Elec       q    Type
REMARK                         _______ _______ _______ _____ _____    ______ ____
ROOT
ATOM      1  C   UNL     1       1.553   8.233  19.885  0.00  0.00    +0.000 A 
ATOM      2  C   UNL     1       1.831   8.800  18.627  0.00  0.00    +0.000 A 
ATOM      3  N   UNL     1       2.332   7.932  17.760  0.00  0.00    +0.000 NA
ATOM      4  N   UNL     1       2.481   6.777  18.456  0.00  0.00    +0.000 N 
ATOM      5  C   UNL     1       1.938   6.906  19.743  0.00  0.00    +0.000 A 
ENDROOT
BRANCH   1  10
ATOM      6  N   UNL     1      -1.320  11.653  21.041  0.00  0.00    +0.000 NA
ATOM      7  C   UNL     1      -0.572  10.759  21.572  0.00  0.00    +0.000 C 
ATOM      8  N   UNL     1      -0.474  10.570  22.904  0.00  0.00    +0.000 N 
ATOM      9  N   UNL     1       0.133   9.995  20.696  0.00  0.00    +0.000 N 
ATOM     10  C   UNL     1       1.022   8.990  21.006  0.00  0.00    +0.000 C 
ATOM     11  O   UNL     1       1.422   8.784  22.153  0.00  0.00    +0.000 OA
ATOM     12  H   UNL     1      -1.821  12.143  21.787  0.00  0.00    +0.000 HD
ATOM     13  H   UNL     1      -0.616  11.372  23.499  0.00  0.00    +0.000 HD
ATOM     14  H   UNL     1       0.319   9.992  23.193  0.00  0.00    +0.000 HD
ATOM     15  H   UNL     1      -0.067  10.203  19.731  0.00  0.00    +0.000 HD
ENDBRANCH   1  10
BRANCH   4  16
ATOM     16  C   UNL     1       3.129   5.649  17.854  0.00  0.00    +0.000 A 
ATOM     17  C   UNL     1       2.347   4.517  17.562  0.00  0.00    +0.000 A 
ATOM     18  C   UNL     1       2.926   3.365  17.042  0.00  0.00    +0.000 A 
ATOM     19  C   UNL     1       4.290   3.338  16.779  0.00  0.00    +0.000 A 
ATOM     20  C   UNL     1       5.098   4.456  17.021  0.00  0.00    +0.000 A 
ATOM     21  C   UNL     1       6.470   4.368  16.727  0.00  0.00    +0.000 A 
ATOM     22  C   UNL     1       7.331   5.436  16.964  0.00  0.00    +0.000 A 
ATOM     23  C   UNL     1       6.830   6.604  17.508  0.00  0.00    +0.000 A 
ATOM     24  C   UNL     1       5.468   6.702  17.811  0.00  0.00    +0.000 A 
ATOM     25  C   UNL     1       4.541   5.647  17.564  0.00  0.00    +0.000 A 
ENDBRANCH   4  16
BRANCH   5  26
ATOM     26  C   UNL     1       1.911   5.848  20.839  0.00  0.00    +0.000 C 
ATOM     27  C   UNL     1       1.176   4.553  20.647  0.00  0.00    +0.000 C 
ATOM     28  C   UNL     1       2.682   4.568  20.731  0.00  0.00    +0.000 C 
ENDBRANCH   5  26
TORSDOF 3
ENDMDL
