MODEL 1
REMARK VINA RESULT:      -7.4      0.000      0.000
REMARK  Name = 
REMARK  5 active torsions:
REMARK  status: ('A' for Active; 'I' for Inactive)
REMARK    1  A    between atoms: C_4  and  C_5
REMARK    2  A    between atoms: C_5  and  C_6
REMARK    3  A    between atoms: C_6  and  C_7
REMARK    4  A    between atoms: C_7  and  C_8
REMARK    5  A    between atoms: C_12  and  C_13
REMARK                            x       y       z     vdW  Elec       q    Type
REMARK                         _______ _______ _______ _____ _____    ______ ____
ROOT
ATOM      1  C   UNL     1       2.510   3.123  20.691  0.00  0.00    +0.000 C 
ATOM      2  C   UNL     1       1.287   2.655  19.884  0.00  0.00    +0.000 C 
ATOM      3  C   UNL     1       1.499   2.625  18.375  0.00  0.00    +0.000 C 
ATOM      4  C   UNL     1       2.845   2.009  17.998  0.00  0.00    +0.000 C 
ATOM      5  C   UNL     1       4.029   2.604  18.782  0.00  0.00    +0.000 C 
ATOM      6  N   UNL     1       3.753   2.498  20.220  0.00  0.00    +0.000 NA
ATOM      7  H   UNL     1       4.544   2.830  20.761  0.00  0.00    +0.000 HD
ENDROOT
BRANCH   5   8
ATOM      8  C   UNL     1       4.562   3.961  18.318  0.00  0.00    +0.000 A 
ATOM      9  C   UNL     1       4.121   4.594  17.142  0.00  0.00    +0.000 A 
ATOM     10  C   UNL     1       4.706   5.781  16.689  0.00  0.00    +0.000 A 
ATOM     11  C   UNL     1       5.749   6.361  17.398  0.00  0.00    +0.000 A 
ATOM     12  C   UNL     1       6.188   5.771  18.579  0.00  0.00    +0.000 A 
ATOM     13  C   UNL     1       5.602   4.585  19.034  0.00  0.00    +0.000 A 
ENDBRANCH   5   8
BRANCH   1  14
ATOM     14  C   UNL     1       2.676   4.650  20.827  0.00  0.00    +0.000 C 
BRANCH  14  15
ATOM     15  C   UNL     1       1.432   5.503  20.562  0.00  0.00    +0.000 C 
BRANCH  15  16
ATOM     16  C   UNL     1       1.568   6.935  21.069  0.00  0.00    +0.000 C 
BRANCH  16  20
ATOM     17  C   UNL     1       1.838   9.749  17.811  0.00  0.00    +0.000 A 
ATOM     18  C   UNL     1       2.456   8.505  17.714  0.00  0.00    +0.000 A 
ATOM     19  C   UNL     1       2.378   7.602  18.773  0.00  0.00    +0.000 A 
ATOM     20  C   UNL     1       1.666   7.929  19.936  0.00  0.00    +0.000 A 
ATOM     21  C   UNL     1       1.058   9.186  20.032  0.00  0.00    +0.000 A 
ATOM     22  C   UNL     1       1.134  10.092  18.972  0.00  0.00    +0.000 A 
ENDBRANCH  16  20
ENDBRANCH  15  16
ENDBRANCH  14  15
ENDBRANCH   1  14
TORSDOF 5
ENDMDL
MODEL 2
REMARK VINA RESULT:      -7.4      0.649      1.452
REMARK  Name = 
REMARK  5 active torsions:
REMARK  status: ('A' for Active; 'I' for Inactive)
REMARK    1  A    between atoms: C_4  and  C_5
REMARK    2  A    between atoms: C_5  and  C_6
REMARK    3  A    between atoms: C_6  and  C_7
REMARK    4  A    between atoms: C_7  and  C_8
REMARK    5  A    between atoms: C_12  and  C_13
REMARK                            x       y       z     vdW  Elec       q    Type
REMARK                         _______ _______ _______ _____ _____    ______ ____
ROOT
ATOM      1  C   UNL     1       2.207   3.151  20.674  0.00  0.00    +0.000 C 
ATOM      2  C   UNL     1       0.896   3.037  19.878  0.00  0.00    +0.000 C 
ATOM      3  C   UNL     1       1.068   3.093  18.365  0.00  0.00    +0.000 C 
ATOM      4  C   UNL     1       2.236   2.229  17.889  0.00  0.00    +0.000 C 
ATOM      5  C   UNL     1       3.537   2.478  18.674  0.00  0.00    +0.000 C 
ATOM      6  N   UNL     1       3.271   2.310  20.109  0.00  0.00    +0.000 NA
ATOM      7  H   UNL     1       4.125   2.411  20.644  0.00  0.00    +0.000 HD
ENDROOT
BRANCH   5   8
ATOM      8  C   UNL     1       4.351   3.718  18.302  0.00  0.00    +0.000 A 
ATOM      9  C   UNL     1       5.381   4.227  19.113  0.00  0.00    +0.000 A 
ATOM     10  C   UNL     1       6.033   5.424  18.800  0.00  0.00    +0.000 A 
ATOM     11  C   UNL     1       5.668   6.144  17.669  0.00  0.00    +0.000 A 
ATOM     12  C   UNL     1       4.670   5.650  16.835  0.00  0.00    +0.000 A 
ATOM     13  C   UNL     1       4.019   4.452  17.147  0.00  0.00    +0.000 A 
ENDBRANCH   5   8
BRANCH   1  14
ATOM     14  C   UNL     1       2.713   4.586  20.927  0.00  0.00    +0.000 C 
BRANCH  14  15
ATOM     15  C   UNL     1       1.812   5.726  20.446  0.00  0.00    +0.000 C 
BRANCH  15  16
ATOM     16  C   UNL     1       2.544   6.742  19.575  0.00  0.00    +0.000 C 
BRANCH  16  20
ATOM     17  C   UNL     1       0.455  10.511  19.378  0.00  0.00    +0.000 A 
ATOM     18  C   UNL     1       1.114  10.017  18.255  0.00  0.00    +0.000 A 
ATOM     19  C   UNL     1       1.800   8.805  18.325  0.00  0.00    +0.000 A 
ATOM     20  C   UNL     1       1.818   8.066  19.516  0.00  0.00    +0.000 A 
ATOM     21  C   UNL     1       1.164   8.573  20.644  0.00  0.00    +0.000 A 
ATOM     22  C   UNL     1       0.477   9.787  20.577  0.00  0.00    +0.000 A 
ENDBRANCH  16  20
ENDBRANCH  15  16
ENDBRANCH  14  15
ENDBRANCH   1  14
TORSDOF 5
ENDMDL
MODEL 3
REMARK VINA RESULT:      -7.4      0.310      1.096
REMARK  Name = 
REMARK  5 active torsions:
REMARK  status: ('A' for Active; 'I' for Inactive)
REMARK    1  A    between atoms: C_4  and  C_5
REMARK    2  A    between atoms: C_5  and  C_6
REMARK    3  A    between atoms: C_6  and  C_7
REMARK    4  A    between atoms: C_7  and  C_8
REMARK    5  A    between atoms: C_12  and  C_13
REMARK                            x       y       z     vdW  Elec       q    Type
REMARK                         _______ _______ _______ _____ _____    ______ ____
ROOT
ATOM      1  C   UNL     1       2.246   2.982  20.758  0.00  0.00    +0.000 C 
ATOM      2  C   UNL     1       0.958   2.706  19.964  0.00  0.00    +0.000 C 
ATOM      3  C   UNL     1       1.116   2.800  18.451  0.00  0.00    +0.000 C 
ATOM      4  C   UNL     1       2.385   2.101  17.963  0.00  0.00    +0.000 C 
ATOM      5  C   UNL     1       3.645   2.510  18.747  0.00  0.00    +0.000 C 
ATOM      6  N   UNL     1       3.408   2.294  20.181  0.00  0.00    +0.000 NA
ATOM      7  H   UNL     1       4.244   2.500  20.715  0.00  0.00    +0.000 HD
ENDROOT
BRANCH   5   8
ATOM      8  C   UNL     1       4.288   3.850  18.387  0.00  0.00    +0.000 A 
ATOM      9  C   UNL     1       3.878   4.623  17.287  0.00  0.00    +0.000 A 
ATOM     10  C   UNL     1       4.557   5.789  16.919  0.00  0.00    +0.000 A 
ATOM     11  C   UNL     1       5.667   6.208  17.642  0.00  0.00    +0.000 A 
ATOM     12  C   UNL     1       6.080   5.477  18.751  0.00  0.00    +0.000 A 
ATOM     13  C   UNL     1       5.399   4.311  19.119  0.00  0.00    +0.000 A 
ENDBRANCH   5   8
BRANCH   1  14
ATOM     14  C   UNL     1       2.561   4.468  21.025  0.00  0.00    +0.000 C 
BRANCH  14  15
ATOM     15  C   UNL     1       1.562   5.491  20.476  0.00  0.00    +0.000 C 
BRANCH  15  16
ATOM     16  C   UNL     1       1.784   6.898  21.021  0.00  0.00    +0.000 C 
BRANCH  16  20
ATOM     17  C   UNL     1       1.571   9.913  17.942  0.00  0.00    +0.000 A 
ATOM     18  C   UNL     1       0.922  10.107  19.159  0.00  0.00    +0.000 A 
ATOM     19  C   UNL     1       0.981   9.126  20.147  0.00  0.00    +0.000 A 
ATOM     20  C   UNL     1       1.706   7.945  19.935  0.00  0.00    +0.000 A 
ATOM     21  C   UNL     1       2.347   7.750  18.706  0.00  0.00    +0.000 A 
ATOM     22  C   UNL     1       2.289   8.731  17.714  0.00  0.00    +0.000 A 
ENDBRANCH  16  20
ENDBRANCH  15  16
ENDBRANCH  14  15
ENDBRANCH   1  14
TORSDOF 5
ENDMDL
MODEL 4
REMARK VINA RESULT:      -7.3      2.107      4.451
REMARK  Name = 
REMARK  5 active torsions:
REMARK  status: ('A' for Active; 'I' for Inactive)
REMARK    1  A    between atoms: C_4  and  C_5
REMARK    2  A    between atoms: C_5  and  C_6
REMARK    3  A    between atoms: C_6  and  C_7
REMARK    4  A    between atoms: C_7  and  C_8
REMARK    5  A    between atoms: C_12  and  C_13
REMARK                            x       y       z     vdW  Elec       q    Type
REMARK                         _______ _______ _______ _____ _____    ______ ____
ROOT
ATOM      1  C   UNL     1       5.007   4.147  18.298  0.00  0.00    +0.000 C 
ATOM      2  C   UNL     1       4.389   4.010  16.896  0.00  0.00    +0.000 C 
ATOM      3  C   UNL     1       5.187   4.682  15.785  0.00  0.00    +0.000 C 
ATOM      4  C   UNL     1       6.684   4.400  15.904  0.00  0.00    +0.000 C 
ATOM      5  C   UNL     1       7.242   4.658  17.316  0.00  0.00    +0.000 C 
ATOM      6  N   UNL     1       6.454   3.893  18.290  0.00  0.00    +0.000 NA
ATOM      7  H   UNL     1       6.838   4.000  19.222  0.00  0.00    +0.000 HD
ENDROOT
BRANCH   5   8
ATOM      8  C   UNL     1       7.523   6.112  17.701  0.00  0.00    +0.000 A 
ATOM      9  C   UNL     1       7.179   7.200  16.879  0.00  0.00    +0.000 A 
ATOM     10  C   UNL     1       7.547   8.509  17.209  0.00  0.00    +0.000 A 
ATOM     11  C   UNL     1       8.271   8.760  18.367  0.00  0.00    +0.000 A 
ATOM     12  C   UNL     1       8.602   7.706  19.212  0.00  0.00    +0.000 A 
ATOM     13  C   UNL     1       8.233   6.397  18.883  0.00  0.00    +0.000 A 
ENDBRANCH   5   8
BRANCH   1  14
ATOM     14  C   UNL     1       4.680   5.455  19.048  0.00  0.00    +0.000 C 
BRANCH  14  15
ATOM     15  C   UNL     1       3.515   6.286  18.502  0.00  0.00    +0.000 C 
BRANCH  15  16
ATOM     16  C   UNL     1       2.310   6.315  19.437  0.00  0.00    +0.000 C 
BRANCH  16  20
ATOM     17  C   UNL     1       1.244   2.356  20.777  0.00  0.00    +0.000 A 
ATOM     18  C   UNL     1       0.990   2.743  19.463  0.00  0.00    +0.000 A 
ATOM     19  C   UNL     1       1.323   4.027  19.036  0.00  0.00    +0.000 A 
ATOM     20  C   UNL     1       1.931   4.934  19.916  0.00  0.00    +0.000 A 
ATOM     21  C   UNL     1       2.173   4.544  21.238  0.00  0.00    +0.000 A 
ATOM     22  C   UNL     1       1.840   3.258  21.668  0.00  0.00    +0.000 A 
ENDBRANCH  16  20
ENDBRANCH  15  16
ENDBRANCH  14  15
ENDBRANCH   1  14
TORSDOF 5
ENDMDL
MODEL 5
REMARK VINA RESULT:      -7.3      2.093      4.507
REMARK  Name = 
REMARK  5 active torsions:
REMARK  status: ('A' for Active; 'I' for Inactive)
REMARK    1  A    between atoms: C_4  and  C_5
REMARK    2  A    between atoms: C_5  and  C_6
REMARK    3  A    between atoms: C_6  and  C_7
REMARK    4  A    between atoms: C_7  and  C_8
REMARK    5  A    between atoms: C_12  and  C_13
REMARK                            x       y       z     vdW  Elec       q    Type
REMARK                         _______ _______ _______ _____ _____    ______ ____
ROOT
ATOM      1  C   UNL     1       4.951   4.211  18.273  0.00  0.00    +0.000 C 
ATOM      2  C   UNL     1       4.370   4.070  16.855  0.00  0.00    +0.000 C 
ATOM      3  C   UNL     1       5.215   4.710  15.760  0.00  0.00    +0.000 C 
ATOM      4  C   UNL     1       6.701   4.395  15.925  0.00  0.00    +0.000 C 
ATOM      5  C   UNL     1       7.224   4.658  17.349  0.00  0.00    +0.000 C 
ATOM      6  N   UNL     1       6.391   3.923  18.309  0.00  0.00    +0.000 NA
ATOM      7  H   UNL     1       6.750   4.032  19.251  0.00  0.00    +0.000 HD
ENDROOT
BRANCH   5   8
ATOM      8  C   UNL     1       7.528   6.110  17.725  0.00  0.00    +0.000 A 
ATOM      9  C   UNL     1       7.209   7.197  16.893  0.00  0.00    +0.000 A 
ATOM     10  C   UNL     1       7.597   8.501  17.215  0.00  0.00    +0.000 A 
ATOM     11  C   UNL     1       8.318   8.749  18.377  0.00  0.00    +0.000 A 
ATOM     12  C   UNL     1       8.624   7.696  19.232  0.00  0.00    +0.000 A 
ATOM     13  C   UNL     1       8.234   6.391  18.911  0.00  0.00    +0.000 A 
ENDBRANCH   5   8
BRANCH   1  14
ATOM     14  C   UNL     1       4.633   5.535  18.997  0.00  0.00    +0.000 C 
BRANCH  14  15
ATOM     15  C   UNL     1       3.436   6.334  18.474  0.00  0.00    +0.000 C 
BRANCH  15  16
ATOM     16  C   UNL     1       2.248   6.329  19.430  0.00  0.00    +0.000 C 
BRANCH  16  20
ATOM     17  C   UNL     1       1.246   2.360  20.793  0.00  0.00    +0.000 A 
ATOM     18  C   UNL     1       1.861   3.263  21.658  0.00  0.00    +0.000 A 
ATOM     19  C   UNL     1       2.196   4.540  21.211  0.00  0.00    +0.000 A 
ATOM     20  C   UNL     1       1.902   4.934  19.898  0.00  0.00    +0.000 A 
ATOM     21  C   UNL     1       1.295   4.019  19.030  0.00  0.00    +0.000 A 
ATOM     22  C   UNL     1       0.959   2.739  19.476  0.00  0.00    +0.000 A 
ENDBRANCH  16  20
ENDBRANCH  15  16
ENDBRANCH  14  15
ENDBRANCH   1  14
TORSDOF 5
ENDMDL
MODEL 6
REMARK VINA RESULT:      -7.3      0.561      1.625
REMARK  Name = 
REMARK  5 active torsions:
REMARK  status: ('A' for Active; 'I' for Inactive)
REMARK    1  A    between atoms: C_4  and  C_5
REMARK    2  A    between atoms: C_5  and  C_6
REMARK    3  A    between atoms: C_6  and  C_7
REMARK    4  A    between atoms: C_7  and  C_8
REMARK    5  A    between atoms: C_12  and  C_13
REMARK                            x       y       z     vdW  Elec       q    Type
REMARK                         _______ _______ _______ _____ _____    ______ ____
ROOT
ATOM      1  C   UNL     1       2.381   3.255  20.609  0.00  0.00    +0.000 C 
ATOM      2  C   UNL     1       1.064   3.126  19.825  0.00  0.00    +0.000 C 
ATOM      3  C   UNL     1       1.226   3.143  18.310  0.00  0.00    +0.000 C 
ATOM      4  C   UNL     1       2.386   2.262  17.848  0.00  0.00    +0.000 C 
ATOM      5  C   UNL     1       3.693   2.524  18.617  0.00  0.00    +0.000 C 
ATOM      6  N   UNL     1       3.437   2.395  20.057  0.00  0.00    +0.000 NA
ATOM      7  H   UNL     1       4.296   2.505  20.584  0.00  0.00    +0.000 HD
ENDROOT
BRANCH   5   8
ATOM      8  C   UNL     1       4.511   3.751  18.208  0.00  0.00    +0.000 A 
ATOM      9  C   UNL     1       5.508   4.312  19.025  0.00  0.00    +0.000 A 
ATOM     10  C   UNL     1       6.162   5.497  18.671  0.00  0.00    +0.000 A 
ATOM     11  C   UNL     1       5.830   6.152  17.492  0.00  0.00    +0.000 A 
ATOM     12  C   UNL     1       4.866   5.605  16.651  0.00  0.00    +0.000 A 
ATOM     13  C   UNL     1       4.213   4.419  17.005  0.00  0.00    +0.000 A 
ENDBRANCH   5   8
BRANCH   1  14
ATOM     14  C   UNL     1       2.895   4.693  20.821  0.00  0.00    +0.000 C 
BRANCH  14  15
ATOM     15  C   UNL     1       1.958   5.827  20.396  0.00  0.00    +0.000 C 
BRANCH  15  16
ATOM     16  C   UNL     1       2.471   6.609  19.191  0.00  0.00    +0.000 C 
BRANCH  16  20
ATOM     17  C   UNL     1       1.008  10.667  19.174  0.00  0.00    +0.000 A 
ATOM     18  C   UNL     1       0.824   9.861  20.295  0.00  0.00    +0.000 A 
ATOM     19  C   UNL     1       1.286   8.546  20.292  0.00  0.00    +0.000 A 
ATOM     20  C   UNL     1       1.954   8.028  19.174  0.00  0.00    +0.000 A 
ATOM     21  C   UNL     1       2.125   8.838  18.046  0.00  0.00    +0.000 A 
ATOM     22  C   UNL     1       1.663  10.156  18.046  0.00  0.00    +0.000 A 
ENDBRANCH  16  20
ENDBRANCH  15  16
ENDBRANCH  14  15
ENDBRANCH   1  14
TORSDOF 5
ENDMDL
MODEL 7
REMARK VINA RESULT:      -7.3      1.609      5.205
REMARK  Name = 
REMARK  5 active torsions:
REMARK  status: ('A' for Active; 'I' for Inactive)
REMARK    1  A    between atoms: C_4  and  C_5
REMARK    2  A    between atoms: C_5  and  C_6
REMARK    3  A    between atoms: C_6  and  C_7
REMARK    4  A    between atoms: C_7  and  C_8
REMARK    5  A    between atoms: C_12  and  C_13
REMARK                            x       y       z     vdW  Elec       q    Type
REMARK                         _______ _______ _______ _____ _____    ______ ____
ROOT
ATOM      1  C   UNL     1       5.360   3.536  16.691  0.00  0.00    +0.000 C 
ATOM      2  C   UNL     1       6.238   4.149  15.588  0.00  0.00    +0.000 C 
ATOM      3  C   UNL     1       6.483   5.646  15.734  0.00  0.00    +0.000 C 
ATOM      4  C   UNL     1       6.819   6.034  17.174  0.00  0.00    +0.000 C 
ATOM      5  C   UNL     1       5.833   5.460  18.206  0.00  0.00    +0.000 C 
ATOM      6  N   UNL     1       5.746   4.005  18.029  0.00  0.00    +0.000 NA
ATOM      7  H   UNL     1       5.146   3.594  18.735  0.00  0.00    +0.000 HD
ENDROOT
BRANCH   5   8
ATOM      8  C   UNL     1       4.491   6.179  18.366  0.00  0.00    +0.000 A 
ATOM      9  C   UNL     1       4.089   7.239  17.534  0.00  0.00    +0.000 A 
ATOM     10  C   UNL     1       2.907   7.947  17.773  0.00  0.00    +0.000 A 
ATOM     11  C   UNL     1       2.101   7.614  18.854  0.00  0.00    +0.000 A 
ATOM     12  C   UNL     1       2.460   6.553  19.678  0.00  0.00    +0.000 A 
ATOM     13  C   UNL     1       3.642   5.844  19.437  0.00  0.00    +0.000 A 
ENDBRANCH   5   8
BRANCH   1  14
ATOM     14  C   UNL     1       3.837   3.660  16.480  0.00  0.00    +0.000 C 
BRANCH  14  15
ATOM     15  C   UNL     1       2.998   2.415  16.779  0.00  0.00    +0.000 C 
BRANCH  15  16
ATOM     16  C   UNL     1       3.397   1.720  18.077  0.00  0.00    +0.000 C 
BRANCH  16  20
ATOM     17  C   UNL     1       1.339   3.360  21.495  0.00  0.00    +0.000 A 
ATOM     18  C   UNL     1       2.639   2.877  21.626  0.00  0.00    +0.000 A 
ATOM     19  C   UNL     1       3.297   2.335  20.523  0.00  0.00    +0.000 A 
ATOM     20  C   UNL     1       2.667   2.288  19.271  0.00  0.00    +0.000 A 
ATOM     21  C   UNL     1       1.357   2.764  19.149  0.00  0.00    +0.000 A 
ATOM     22  C   UNL     1       0.696   3.307  20.252  0.00  0.00    +0.000 A 
ENDBRANCH  16  20
ENDBRANCH  15  16
ENDBRANCH  14  15
ENDBRANCH   1  14
TORSDOF 5
ENDMDL
MODEL 8
REMARK VINA RESULT:      -7.2      1.593      5.247
REMARK  Name = 
REMARK  5 active torsions:
REMARK  status: ('A' for Active; 'I' for Inactive)
REMARK    1  A    between atoms: C_4  and  C_5
REMARK    2  A    between atoms: C_5  and  C_6
REMARK    3  A    between atoms: C_6  and  C_7
REMARK    4  A    between atoms: C_7  and  C_8
REMARK    5  A    between atoms: C_12  and  C_13
REMARK                            x       y       z     vdW  Elec       q    Type
REMARK                         _______ _______ _______ _____ _____    ______ ____
ROOT
ATOM      1  C   UNL     1       5.561   3.564  16.928  0.00  0.00    +0.000 C 
ATOM      2  C   UNL     1       6.537   4.190  15.918  0.00  0.00    +0.000 C 
ATOM      3  C   UNL     1       6.758   5.687  16.096  0.00  0.00    +0.000 C 
ATOM      4  C   UNL     1       6.955   6.066  17.564  0.00  0.00    +0.000 C 
ATOM      5  C   UNL     1       5.878   5.479  18.494  0.00  0.00    +0.000 C 
ATOM      6  N   UNL     1       5.817   4.025  18.299  0.00  0.00    +0.000 NA
ATOM      7  H   UNL     1       5.155   3.606  18.943  0.00  0.00    +0.000 HD
ENDROOT
BRANCH   5   8
ATOM      8  C   UNL     1       4.524   6.191  18.531  0.00  0.00    +0.000 A 
ATOM      9  C   UNL     1       4.187   7.238  17.655  0.00  0.00    +0.000 A 
ATOM     10  C   UNL     1       2.984   7.940  17.785  0.00  0.00    +0.000 A 
ATOM     11  C   UNL     1       2.091   7.614  18.798  0.00  0.00    +0.000 A 
ATOM     12  C   UNL     1       2.387   6.565  19.663  0.00  0.00    +0.000 A 
ATOM     13  C   UNL     1       3.589   5.862  19.531  0.00  0.00    +0.000 A 
ENDBRANCH   5   8
BRANCH   1  14
ATOM     14  C   UNL     1       4.065   3.683  16.574  0.00  0.00    +0.000 C 
BRANCH  14  15
ATOM     15  C   UNL     1       3.207   2.433  16.789  0.00  0.00    +0.000 C 
BRANCH  15  16
ATOM     16  C   UNL     1       3.522   1.706  18.093  0.00  0.00    +0.000 C 
BRANCH  16  20
ATOM     17  C   UNL     1       1.292   3.312  21.418  0.00  0.00    +0.000 A 
ATOM     18  C   UNL     1       0.703   3.221  20.158  0.00  0.00    +0.000 A 
ATOM     19  C   UNL     1       1.431   2.715  19.083  0.00  0.00    +0.000 A 
ATOM     20  C   UNL     1       2.750   2.276  19.260  0.00  0.00    +0.000 A 
ATOM     21  C   UNL     1       3.340   2.380  20.525  0.00  0.00    +0.000 A 
ATOM     22  C   UNL     1       2.614   2.887  21.604  0.00  0.00    +0.000 A 
ENDBRANCH  16  20
ENDBRANCH  15  16
ENDBRANCH  14  15
ENDBRANCH   1  14
TORSDOF 5
ENDMDL
MODEL 9
REMARK VINA RESULT:      -7.2      1.770      5.281
REMARK  Name = 
REMARK  5 active torsions:
REMARK  status: ('A' for Active; 'I' for Inactive)
REMARK    1  A    between atoms: C_4  and  C_5
REMARK    2  A    between atoms: C_5  and  C_6
REMARK    3  A    between atoms: C_6  and  C_7
REMARK    4  A    between atoms: C_7  and  C_8
REMARK    5  A    between atoms: C_12  and  C_13
REMARK                            x       y       z     vdW  Elec       q    Type
REMARK                         _______ _______ _______ _____ _____    ______ ____
ROOT
ATOM      1  C   UNL     1       5.331   3.439  16.427  0.00  0.00    +0.000 C 
ATOM      2  C   UNL     1       5.971   4.055  15.171  0.00  0.00    +0.000 C 
ATOM      3  C   UNL     1       6.239   5.552  15.268  0.00  0.00    +0.000 C 
ATOM      4  C   UNL     1       6.857   5.938  16.611  0.00  0.00    +0.000 C 
ATOM      5  C   UNL     1       6.097   5.362  17.819  0.00  0.00    +0.000 C 
ATOM      6  N   UNL     1       5.977   3.907  17.661  0.00  0.00    +0.000 NA
ATOM      7  H   UNL     1       5.531   3.495  18.472  0.00  0.00    +0.000 HD
ENDROOT
BRANCH   5   8
ATOM      8  C   UNL     1       4.814   6.080  18.245  0.00  0.00    +0.000 A 
ATOM      9  C   UNL     1       4.049   5.682  19.356  0.00  0.00    +0.000 A 
ATOM     10  C   UNL     1       2.825   6.289  19.655  0.00  0.00    +0.000 A 
ATOM     11  C   UNL     1       2.335   7.307  18.847  0.00  0.00    +0.000 A 
ATOM     12  C   UNL     1       3.083   7.739  17.757  0.00  0.00    +0.000 A 
ATOM     13  C   UNL     1       4.308   7.132  17.459  0.00  0.00    +0.000 A 
ENDBRANCH   5   8
BRANCH   1  14
ATOM     14  C   UNL     1       3.797   3.563  16.524  0.00  0.00    +0.000 C 
BRANCH  14  15
ATOM     15  C   UNL     1       3.022   2.277  16.822  0.00  0.00    +0.000 C 
BRANCH  15  16
ATOM     16  C   UNL     1       3.412   1.634  18.149  0.00  0.00    +0.000 C 
BRANCH  16  20
ATOM     17  C   UNL     1       1.284   3.376  21.473  0.00  0.00    +0.000 A 
ATOM     18  C   UNL     1       0.678   3.288  20.222  0.00  0.00    +0.000 A 
ATOM     19  C   UNL     1       1.373   2.737  19.146  0.00  0.00    +0.000 A 
ATOM     20  C   UNL     1       2.677   2.251  19.315  0.00  0.00    +0.000 A 
ATOM     21  C   UNL     1       3.285   2.354  20.572  0.00  0.00    +0.000 A 
ATOM     22  C   UNL     1       2.591   2.905  21.650  0.00  0.00    +0.000 A 
ENDBRANCH  16  20
ENDBRANCH  15  16
ENDBRANCH  14  15
ENDBRANCH   1  14
TORSDOF 5
ENDMDL
