MODEL 1
REMARK VINA RESULT:      -7.8      0.000      0.000
REMARK  Name = 
REMARK  5 active torsions:
REMARK  status: ('A' for Active; 'I' for Inactive)
REMARK    1  A    between atoms: C_1  and  C_2
REMARK    2  A    between atoms: C_2  and  C_3
REMARK    3  A    between atoms: C_2  and  N_4
REMARK    4  A    between atoms: C_7  and  O_8
REMARK    5  A    between atoms: O_8  and  C_9
REMARK                            x       y       z     vdW  Elec       q    Type
REMARK                         _______ _______ _______ _____ _____    ______ ____
ROOT
ATOM      1  C   UNL     1       2.510   7.532  18.812  0.00  0.00    +0.000 A 
ATOM      2  C   UNL     1       2.221   8.487  17.841  0.00  0.00    +0.000 A 
ATOM      3  C   UNL     1       1.355   9.554  18.108  0.00  0.00    +0.000 A 
ATOM      4  C   UNL     1       0.814   9.653  19.395  0.00  0.00    +0.000 A 
ATOM      5  C   UNL     1       1.096   8.720  20.396  0.00  0.00    +0.000 A 
ATOM      6  C   UNL     1       1.956   7.645  20.094  0.00  0.00    +0.000 A 
ATOM      7  C   UNL     1       0.411   9.143  21.570  0.00  0.00    +0.000 A 
ATOM      8  C   UNL     1      -0.208  10.349  21.297  0.00  0.00    +0.000 A 
ATOM      9  N   UNL     1      -0.005  10.601  19.960  0.00  0.00    +0.000 N 
ATOM     10  C   UNL     1      -0.481  11.814  19.320  0.00  0.00    +0.000 C 
ATOM     11  C   UNL     1      -1.565  12.497  20.151  0.00  0.00    +0.000 C 
ATOM     12  N   UNL     1      -1.343  12.415  21.582  0.00  0.00    +0.000 N 
ATOM     13  C   UNL     1      -0.898  11.257  22.179  0.00  0.00    +0.000 C 
ATOM     14  O   UNL     1      -1.068  11.077  23.383  0.00  0.00    +0.000 OA
ATOM     15  H   UNL     1      -1.878  13.004  22.207  0.00  0.00    +0.000 HD
ENDROOT
BRANCH   1  16
ATOM     16  O   UNL     1       3.336   6.454  18.627  0.00  0.00    +0.000 OA
BRANCH  16  20
ATOM     17  N   UNL     1       3.052   3.001  19.065  0.00  0.00    +0.000 NA
ATOM     18  C   UNL     1       1.914   3.929  19.125  0.00  0.00    +0.000 C 
ATOM     19  C   UNL     1       1.768   4.728  17.833  0.00  0.00    +0.000 C 
ATOM     20  C   UNL     1       3.034   5.538  17.559  0.00  0.00    +0.000 C 
ATOM     21  C   UNL     1       4.198   4.548  17.451  0.00  0.00    +0.000 C 
ATOM     22  C   UNL     1       4.310   3.683  18.710  0.00  0.00    +0.000 C 
BRANCH  17  24
ATOM     23  C   UNL     1       4.661   1.878  20.701  0.00  0.00    +0.000 C 
ATOM     24  C   UNL     1       3.210   2.181  20.290  0.00  0.00    +0.000 C 
ATOM     25  C   UNL     1       2.466   2.800  21.483  0.00  0.00    +0.000 C 
ENDBRANCH  17  24
ENDBRANCH  16  20
ENDBRANCH   1  16
TORSDOF 3
ENDMDL
MODEL 2
REMARK VINA RESULT:      -7.8      1.803      2.998
REMARK  Name = 
REMARK  5 active torsions:
REMARK  status: ('A' for Active; 'I' for Inactive)
REMARK    1  A    between atoms: C_1  and  C_2
REMARK    2  A    between atoms: C_2  and  C_3
REMARK    3  A    between atoms: C_2  and  N_4
REMARK    4  A    between atoms: C_7  and  O_8
REMARK    5  A    between atoms: O_8  and  C_9
REMARK                            x       y       z     vdW  Elec       q    Type
REMARK                         _______ _______ _______ _____ _____    ______ ____
ROOT
ATOM      1  C   UNL     1       2.648   7.616  18.287  0.00  0.00    +0.000 A 
ATOM      2  C   UNL     1       2.170   8.715  17.578  0.00  0.00    +0.000 A 
ATOM      3  C   UNL     1       1.307   9.643  18.173  0.00  0.00    +0.000 A 
ATOM      4  C   UNL     1       0.963   9.452  19.516  0.00  0.00    +0.000 A 
ATOM      5  C   UNL     1       1.438   8.367  20.260  0.00  0.00    +0.000 A 
ATOM      6  C   UNL     1       2.290   7.438  19.630  0.00  0.00    +0.000 A 
ATOM      7  C   UNL     1       0.920   8.504  21.579  0.00  0.00    +0.000 A 
ATOM      8  C   UNL     1       0.212   9.690  21.642  0.00  0.00    +0.000 A 
ATOM      9  N   UNL     1       0.198  10.209  20.370  0.00  0.00    +0.000 N 
ATOM     10  C   UNL     1      -0.426  11.483  20.059  0.00  0.00    +0.000 C 
ATOM     11  C   UNL     1      -1.401  11.910  21.154  0.00  0.00    +0.000 C 
ATOM     12  N   UNL     1      -0.961  11.571  22.494  0.00  0.00    +0.000 N 
ATOM     13  C   UNL     1      -0.377  10.357  22.778  0.00  0.00    +0.000 C 
ATOM     14  O   UNL     1      -0.354   9.937  23.932  0.00  0.00    +0.000 OA
ATOM     15  H   UNL     1      -1.421  11.987  23.293  0.00  0.00    +0.000 HD
ENDROOT
BRANCH   1  16
ATOM     16  O   UNL     1       3.485   6.659  17.775  0.00  0.00    +0.000 OA
BRANCH  16  20
ATOM     17  N   UNL     1       5.603   4.073  16.764  0.00  0.00    +0.000 NA
ATOM     18  C   UNL     1       6.034   5.202  17.600  0.00  0.00    +0.000 C 
ATOM     19  C   UNL     1       5.215   5.298  18.884  0.00  0.00    +0.000 C 
ATOM     20  C   UNL     1       3.732   5.478  18.560  0.00  0.00    +0.000 C 
ATOM     21  C   UNL     1       3.294   4.267  17.731  0.00  0.00    +0.000 C 
ATOM     22  C   UNL     1       4.158   4.110  16.477  0.00  0.00    +0.000 C 
BRANCH  17  24
ATOM     23  C   UNL     1       5.583   3.902  14.215  0.00  0.00    +0.000 C 
ATOM     24  C   UNL     1       6.397   3.924  15.520  0.00  0.00    +0.000 C 
ATOM     25  C   UNL     1       7.489   4.999  15.416  0.00  0.00    +0.000 C 
ENDBRANCH  17  24
ENDBRANCH  16  20
ENDBRANCH   1  16
TORSDOF 3
ENDMDL
MODEL 3
REMARK VINA RESULT:      -7.5      1.224      2.487
REMARK  Name = 
REMARK  5 active torsions:
REMARK  status: ('A' for Active; 'I' for Inactive)
REMARK    1  A    between atoms: C_1  and  C_2
REMARK    2  A    between atoms: C_2  and  C_3
REMARK    3  A    between atoms: C_2  and  N_4
REMARK    4  A    between atoms: C_7  and  O_8
REMARK    5  A    between atoms: O_8  and  C_9
REMARK                            x       y       z     vdW  Elec       q    Type
REMARK                         _______ _______ _______ _____ _____    ______ ____
ROOT
ATOM      1  C   UNL     1       2.542   7.400  19.256  0.00  0.00    +0.000 A 
ATOM      2  C   UNL     1       2.262   8.230  18.174  0.00  0.00    +0.000 A 
ATOM      3  C   UNL     1       1.343   9.279  18.283  0.00  0.00    +0.000 A 
ATOM      4  C   UNL     1       0.736   9.494  19.526  0.00  0.00    +0.000 A 
ATOM      5  C   UNL     1       1.008   8.688  20.636  0.00  0.00    +0.000 A 
ATOM      6  C   UNL     1       1.923   7.626  20.493  0.00  0.00    +0.000 A 
ATOM      7  C   UNL     1       0.250   9.205  21.725  0.00  0.00    +0.000 A 
ATOM      8  C   UNL     1      -0.402  10.345  21.293  0.00  0.00    +0.000 A 
ATOM      9  N   UNL     1      -0.145  10.460  19.947  0.00  0.00    +0.000 N 
ATOM     10  C   UNL     1      -0.638  11.573  19.156  0.00  0.00    +0.000 C 
ATOM     11  C   UNL     1      -1.787  12.293  19.859  0.00  0.00    +0.000 C 
ATOM     12  N   UNL     1      -1.632  12.377  21.298  0.00  0.00    +0.000 N 
ATOM     13  C   UNL     1      -1.170  11.312  22.039  0.00  0.00    +0.000 C 
ATOM     14  O   UNL     1      -1.390  11.257  23.246  0.00  0.00    +0.000 OA
ATOM     15  H   UNL     1      -2.219  13.006  21.831  0.00  0.00    +0.000 HD
ENDROOT
BRANCH   1  16
ATOM     16  O   UNL     1       3.419   6.347  19.228  0.00  0.00    +0.000 OA
BRANCH  16  20
ATOM     17  N   UNL     1       4.794   3.774  17.307  0.00  0.00    +0.000 NA
ATOM     18  C   UNL     1       5.137   4.014  18.716  0.00  0.00    +0.000 C 
ATOM     19  C   UNL     1       3.903   3.961  19.613  0.00  0.00    +0.000 C 
ATOM     20  C   UNL     1       2.881   5.012  19.181  0.00  0.00    +0.000 C 
ATOM     21  C   UNL     1       2.503   4.713  17.727  0.00  0.00    +0.000 C 
ATOM     22  C   UNL     1       3.740   4.685  16.826  0.00  0.00    +0.000 C 
BRANCH  17  24
ATOM     23  C   UNL     1       5.700   4.270  14.970  0.00  0.00    +0.000 C 
ATOM     24  C   UNL     1       5.971   3.785  16.404  0.00  0.00    +0.000 C 
ATOM     25  C   UNL     1       7.131   4.595  17.000  0.00  0.00    +0.000 C 
ENDBRANCH  17  24
ENDBRANCH  16  20
ENDBRANCH   1  16
TORSDOF 3
ENDMDL
MODEL 4
REMARK VINA RESULT:      -7.4      1.870      3.269
REMARK  Name = 
REMARK  5 active torsions:
REMARK  status: ('A' for Active; 'I' for Inactive)
REMARK    1  A    between atoms: C_1  and  C_2
REMARK    2  A    between atoms: C_2  and  C_3
REMARK    3  A    between atoms: C_2  and  N_4
REMARK    4  A    between atoms: C_7  and  O_8
REMARK    5  A    between atoms: O_8  and  C_9
REMARK                            x       y       z     vdW  Elec       q    Type
REMARK                         _______ _______ _______ _____ _____    ______ ____
ROOT
ATOM      1  C   UNL     1       2.213   7.457  19.166  0.00  0.00    +0.000 A 
ATOM      2  C   UNL     1       1.888   7.198  20.495  0.00  0.00    +0.000 A 
ATOM      3  C   UNL     1       1.175   8.127  21.262  0.00  0.00    +0.000 A 
ATOM      4  C   UNL     1       0.766   9.314  20.642  0.00  0.00    +0.000 A 
ATOM      5  C   UNL     1       1.062   9.596  19.305  0.00  0.00    +0.000 A 
ATOM      6  C   UNL     1       1.798   8.651  18.562  0.00  0.00    +0.000 A 
ATOM      7  C   UNL     1       0.473  10.856  19.002  0.00  0.00    +0.000 A 
ATOM      8  C   UNL     1      -0.228  11.283  20.115  0.00  0.00    +0.000 A 
ATOM      9  N   UNL     1       0.019  10.368  21.110  0.00  0.00    +0.000 N 
ATOM     10  C   UNL     1      -0.591  10.467  22.424  0.00  0.00    +0.000 C 
ATOM     11  C   UNL     1      -1.127  11.873  22.686  0.00  0.00    +0.000 C 
ATOM     12  N   UNL     1      -1.704  12.507  21.516  0.00  0.00    +0.000 N 
ATOM     13  C   UNL     1      -1.112  12.411  20.276  0.00  0.00    +0.000 C 
ATOM     14  O   UNL     1      -1.380  13.228  19.398  0.00  0.00    +0.000 OA
ATOM     15  H   UNL     1      -2.268  13.340  21.623  0.00  0.00    +0.000 HD
ENDROOT
BRANCH   1  16
ATOM     16  O   UNL     1       2.915   6.606  18.353  0.00  0.00    +0.000 OA
BRANCH  16  20
ATOM     17  N   UNL     1       5.683   4.588  17.672  0.00  0.00    +0.000 NA
ATOM     18  C   UNL     1       5.501   5.328  18.928  0.00  0.00    +0.000 C 
ATOM     19  C   UNL     1       4.203   4.938  19.630  0.00  0.00    +0.000 C 
ATOM     20  C   UNL     1       3.002   5.219  18.728  0.00  0.00    +0.000 C 
ATOM     21  C   UNL     1       3.188   4.401  17.447  0.00  0.00    +0.000 C 
ATOM     22  C   UNL     1       4.524   4.723  16.771  0.00  0.00    +0.000 C 
BRANCH  17  24
ATOM     23  C   UNL     1       6.952   4.664  15.456  0.00  0.00    +0.000 C 
ATOM     24  C   UNL     1       6.950   4.914  16.973  0.00  0.00    +0.000 C 
ATOM     25  C   UNL     1       7.389   6.360  17.247  0.00  0.00    +0.000 C 
ENDBRANCH  17  24
ENDBRANCH  16  20
ENDBRANCH   1  16
TORSDOF 3
ENDMDL
MODEL 5
REMARK VINA RESULT:      -7.3      1.914      8.178
REMARK  Name = 
REMARK  5 active torsions:
REMARK  status: ('A' for Active; 'I' for Inactive)
REMARK    1  A    between atoms: C_1  and  C_2
REMARK    2  A    between atoms: C_2  and  C_3
REMARK    3  A    between atoms: C_2  and  N_4
REMARK    4  A    between atoms: C_7  and  O_8
REMARK    5  A    between atoms: O_8  and  C_9
REMARK                            x       y       z     vdW  Elec       q    Type
REMARK                         _______ _______ _______ _____ _____    ______ ____
ROOT
ATOM      1  C   UNL     1       1.470   9.005  19.326  0.00  0.00    +0.000 A 
ATOM      2  C   UNL     1       2.046   9.033  18.059  0.00  0.00    +0.000 A 
ATOM      3  C   UNL     1       2.826   7.970  17.593  0.00  0.00    +0.000 A 
ATOM      4  C   UNL     1       2.983   6.856  18.426  0.00  0.00    +0.000 A 
ATOM      5  C   UNL     1       2.404   6.789  19.697  0.00  0.00    +0.000 A 
ATOM      6  C   UNL     1       1.640   7.883  20.149  0.00  0.00    +0.000 A 
ATOM      7  C   UNL     1       2.739   5.518  20.244  0.00  0.00    +0.000 A 
ATOM      8  C   UNL     1       3.439   4.808  19.287  0.00  0.00    +0.000 A 
ATOM      9  N   UNL     1       3.630   5.660  18.225  0.00  0.00    +0.000 N 
ATOM     10  C   UNL     1       4.298   5.243  17.005  0.00  0.00    +0.000 C 
ATOM     11  C   UNL     1       5.117   3.973  17.224  0.00  0.00    +0.000 C 
ATOM     12  N   UNL     1       4.498   3.024  18.130  0.00  0.00    +0.000 N 
ATOM     13  C   UNL     1       3.873   3.432  19.287  0.00  0.00    +0.000 C 
ATOM     14  O   UNL     1       3.690   2.636  20.204  0.00  0.00    +0.000 OA
ATOM     15  H   UNL     1       4.847   2.076  18.180  0.00  0.00    +0.000 HD
ENDROOT
BRANCH   1  16
ATOM     16  O   UNL     1       0.703  10.008  19.860  0.00  0.00    +0.000 OA
BRANCH  16  20
ATOM     17  N   UNL     1      -1.235  12.718  20.907  0.00  0.00    +0.000 NA
ATOM     18  C   UNL     1       0.146  12.482  21.351  0.00  0.00    +0.000 C 
ATOM     19  C   UNL     1       1.114  12.418  20.172  0.00  0.00    +0.000 C 
ATOM     20  C   UNL     1       0.717  11.295  19.215  0.00  0.00    +0.000 C 
ATOM     21  C   UNL     1      -0.705  11.587  18.728  0.00  0.00    +0.000 C 
ATOM     22  C   UNL     1      -1.676  11.732  19.903  0.00  0.00    +0.000 C 
BRANCH  17  24
ATOM     23  C   UNL     1      -3.687  12.834  21.616  0.00  0.00    +0.000 C 
ATOM     24  C   UNL     1      -2.204  12.819  22.025  0.00  0.00    +0.000 C 
ATOM     25  C   UNL     1      -1.980  11.715  23.068  0.00  0.00    +0.000 C 
ENDBRANCH  17  24
ENDBRANCH  16  20
ENDBRANCH   1  16
TORSDOF 3
ENDMDL
MODEL 6
REMARK VINA RESULT:      -7.3      1.962      8.432
REMARK  Name = 
REMARK  5 active torsions:
REMARK  status: ('A' for Active; 'I' for Inactive)
REMARK    1  A    between atoms: C_1  and  C_2
REMARK    2  A    between atoms: C_2  and  C_3
REMARK    3  A    between atoms: C_2  and  N_4
REMARK    4  A    between atoms: C_7  and  O_8
REMARK    5  A    between atoms: O_8  and  C_9
REMARK                            x       y       z     vdW  Elec       q    Type
REMARK                         _______ _______ _______ _____ _____    ______ ____
ROOT
ATOM      1  C   UNL     1       1.594   8.005  20.237  0.00  0.00    +0.000 A 
ATOM      2  C   UNL     1       1.305   6.912  21.050  0.00  0.00    +0.000 A 
ATOM      3  C   UNL     1       1.680   5.615  20.682  0.00  0.00    +0.000 A 
ATOM      4  C   UNL     1       2.388   5.451  19.486  0.00  0.00    +0.000 A 
ATOM      5  C   UNL     1       2.708   6.529  18.656  0.00  0.00    +0.000 A 
ATOM      6  C   UNL     1       2.301   7.822  19.041  0.00  0.00    +0.000 A 
ATOM      7  C   UNL     1       3.448   6.008  17.557  0.00  0.00    +0.000 A 
ATOM      8  C   UNL     1       3.634   4.654  17.767  0.00  0.00    +0.000 A 
ATOM      9  N   UNL     1       2.929   4.331  18.902  0.00  0.00    +0.000 N 
ATOM     10  C   UNL     1       2.926   2.989  19.458  0.00  0.00    +0.000 C 
ATOM     11  C   UNL     1       3.387   1.958  18.430  0.00  0.00    +0.000 C 
ATOM     12  N   UNL     1       4.445   2.431  17.559  0.00  0.00    +0.000 N 
ATOM     13  C   UNL     1       4.434   3.704  17.033  0.00  0.00    +0.000 C 
ATOM     14  O   UNL     1       5.101   3.967  16.035  0.00  0.00    +0.000 OA
ATOM     15  H   UNL     1       4.962   1.772  16.992  0.00  0.00    +0.000 HD
ENDROOT
BRANCH   1  16
ATOM     16  O   UNL     1       1.253   9.302  20.520  0.00  0.00    +0.000 OA
BRANCH  16  20
ATOM     17  N   UNL     1       0.105  12.497  19.701  0.00  0.00    +0.000 NA
ATOM     18  C   UNL     1       0.256  11.409  18.725  0.00  0.00    +0.000 C 
ATOM     19  C   UNL     1      -0.568  10.184  19.114  0.00  0.00    +0.000 C 
ATOM     20  C   UNL     1      -0.140   9.664  20.485  0.00  0.00    +0.000 C 
ATOM     21  C   UNL     1      -0.352  10.797  21.493  0.00  0.00    +0.000 C 
ATOM     22  C   UNL     1       0.407  12.060  21.076  0.00  0.00    +0.000 C 
BRANCH  17  24
ATOM     23  C   UNL     1       1.999  13.518  18.324  0.00  0.00    +0.000 C 
ATOM     24  C   UNL     1       0.866  13.719  19.344  0.00  0.00    +0.000 C 
ATOM     25  C   UNL     1      -0.063  14.839  18.851  0.00  0.00    +0.000 C 
ENDBRANCH  17  24
ENDBRANCH  16  20
ENDBRANCH   1  16
TORSDOF 3
ENDMDL
MODEL 7
REMARK VINA RESULT:      -7.3      2.325      3.942
REMARK  Name = 
REMARK  5 active torsions:
REMARK  status: ('A' for Active; 'I' for Inactive)
REMARK    1  A    between atoms: C_1  and  C_2
REMARK    2  A    between atoms: C_2  and  C_3
REMARK    3  A    between atoms: C_2  and  N_4
REMARK    4  A    between atoms: C_7  and  O_8
REMARK    5  A    between atoms: O_8  and  C_9
REMARK                            x       y       z     vdW  Elec       q    Type
REMARK                         _______ _______ _______ _____ _____    ______ ____
ROOT
ATOM      1  C   UNL     1       3.028   6.856  18.410  0.00  0.00    +0.000 A 
ATOM      2  C   UNL     1       2.596   6.570  19.702  0.00  0.00    +0.000 A 
ATOM      3  C   UNL     1       1.791   7.466  20.414  0.00  0.00    +0.000 A 
ATOM      4  C   UNL     1       1.401   8.648  19.774  0.00  0.00    +0.000 A 
ATOM      5  C   UNL     1       1.805   8.959  18.472  0.00  0.00    +0.000 A 
ATOM      6  C   UNL     1       2.631   8.047  17.786  0.00  0.00    +0.000 A 
ATOM      7  C   UNL     1       1.206  10.205  18.133  0.00  0.00    +0.000 A 
ATOM      8  C   UNL     1       0.397  10.594  19.185  0.00  0.00    +0.000 A 
ATOM      9  N   UNL     1       0.585   9.673  20.188  0.00  0.00    +0.000 N 
ATOM     10  C   UNL     1      -0.141   9.736  21.444  0.00  0.00    +0.000 C 
ATOM     11  C   UNL     1      -0.740  11.122  21.674  0.00  0.00    +0.000 C 
ATOM     12  N   UNL     1      -1.232  11.755  20.466  0.00  0.00    +0.000 N 
ATOM     13  C   UNL     1      -0.532  11.694  19.281  0.00  0.00    +0.000 C 
ATOM     14  O   UNL     1      -0.746  12.515  18.393  0.00  0.00    +0.000 OA
ATOM     15  H   UNL     1      -1.829  12.569  20.533  0.00  0.00    +0.000 HD
ENDROOT
BRANCH   1  16
ATOM     16  O   UNL     1       3.825   6.039  17.652  0.00  0.00    +0.000 OA
BRANCH  16  20
ATOM     17  N   UNL     1       6.279   4.183  15.999  0.00  0.00    +0.000 NA
ATOM     18  C   UNL     1       6.497   5.535  16.531  0.00  0.00    +0.000 C 
ATOM     19  C   UNL     1       6.220   5.603  18.031  0.00  0.00    +0.000 C 
ATOM     20  C   UNL     1       4.777   5.197  18.327  0.00  0.00    +0.000 C 
ATOM     21  C   UNL     1       4.587   3.768  17.808  0.00  0.00    +0.000 C 
ATOM     22  C   UNL     1       4.936   3.666  16.321  0.00  0.00    +0.000 C 
BRANCH  17  24
ATOM     23  C   UNL     1       5.340   3.891  13.641  0.00  0.00    +0.000 C 
ATOM     24  C   UNL     1       6.569   4.066  14.549  0.00  0.00    +0.000 C 
ATOM     25  C   UNL     1       7.405   5.251  14.044  0.00  0.00    +0.000 C 
ENDBRANCH  17  24
ENDBRANCH  16  20
ENDBRANCH   1  16
TORSDOF 3
ENDMDL
MODEL 8
REMARK VINA RESULT:      -7.1      1.855      8.357
REMARK  Name = 
REMARK  5 active torsions:
REMARK  status: ('A' for Active; 'I' for Inactive)
REMARK    1  A    between atoms: C_1  and  C_2
REMARK    2  A    between atoms: C_2  and  C_3
REMARK    3  A    between atoms: C_2  and  N_4
REMARK    4  A    between atoms: C_7  and  O_8
REMARK    5  A    between atoms: O_8  and  C_9
REMARK                            x       y       z     vdW  Elec       q    Type
REMARK                         _______ _______ _______ _____ _____    ______ ____
ROOT
ATOM      1  C   UNL     1       1.518   8.513  19.858  0.00  0.00    +0.000 A 
ATOM      2  C   UNL     1       1.275   7.573  20.857  0.00  0.00    +0.000 A 
ATOM      3  C   UNL     1       1.705   6.248  20.726  0.00  0.00    +0.000 A 
ATOM      4  C   UNL     1       2.419   5.900  19.573  0.00  0.00    +0.000 A 
ATOM      5  C   UNL     1       2.693   6.823  18.560  0.00  0.00    +0.000 A 
ATOM      6  C   UNL     1       2.231   8.146  18.709  0.00  0.00    +0.000 A 
ATOM      7  C   UNL     1       3.455   6.144  17.567  0.00  0.00    +0.000 A 
ATOM      8  C   UNL     1       3.697   4.858  18.016  0.00  0.00    +0.000 A 
ATOM      9  N   UNL     1       3.007   4.716  19.196  0.00  0.00    +0.000 N 
ATOM     10  C   UNL     1       3.061   3.498  19.985  0.00  0.00    +0.000 C 
ATOM     11  C   UNL     1       3.565   2.319  19.156  0.00  0.00    +0.000 C 
ATOM     12  N   UNL     1       4.603   2.671  18.206  0.00  0.00    +0.000 N 
ATOM     13  C   UNL     1       4.537   3.826  17.459  0.00  0.00    +0.000 C 
ATOM     14  O   UNL     1       5.192   3.932  16.425  0.00  0.00    +0.000 OA
ATOM     15  H   UNL     1       5.146   1.942  17.763  0.00  0.00    +0.000 HD
ENDROOT
BRANCH   1  16
ATOM     16  O   UNL     1       1.122   9.823  19.905  0.00  0.00    +0.000 OA
BRANCH  16  20
ATOM     17  N   UNL     1      -1.171  12.431  19.526  0.00  0.00    +0.000 NA
ATOM     18  C   UNL     1       0.250  12.632  19.841  0.00  0.00    +0.000 C 
ATOM     19  C   UNL     1       1.156  12.015  18.778  0.00  0.00    +0.000 C 
ATOM     20  C   UNL     1       0.897  10.513  18.661  0.00  0.00    +0.000 C 
ATOM     21  C   UNL     1      -0.576  10.330  18.285  0.00  0.00    +0.000 C 
ATOM     22  C   UNL     1      -1.497  11.011  19.301  0.00  0.00    +0.000 C 
BRANCH  17  24
ATOM     23  C   UNL     1      -3.582  12.752  20.308  0.00  0.00    +0.000 C 
ATOM     24  C   UNL     1      -2.087  13.045  20.518  0.00  0.00    +0.000 C 
ATOM     25  C   UNL     1      -1.696  12.669  21.955  0.00  0.00    +0.000 C 
ENDBRANCH  17  24
ENDBRANCH  16  20
ENDBRANCH   1  16
TORSDOF 3
ENDMDL
MODEL 9
REMARK VINA RESULT:      -7.1      1.888      8.409
REMARK  Name = 
REMARK  5 active torsions:
REMARK  status: ('A' for Active; 'I' for Inactive)
REMARK    1  A    between atoms: C_1  and  C_2
REMARK    2  A    between atoms: C_2  and  C_3
REMARK    3  A    between atoms: C_2  and  N_4
REMARK    4  A    between atoms: C_7  and  O_8
REMARK    5  A    between atoms: O_8  and  C_9
REMARK                            x       y       z     vdW  Elec       q    Type
REMARK                         _______ _______ _______ _____ _____    ______ ____
ROOT
ATOM      1  C   UNL     1       1.583   8.224  20.027  0.00  0.00    +0.000 A 
ATOM      2  C   UNL     1       1.325   7.189  20.923  0.00  0.00    +0.000 A 
ATOM      3  C   UNL     1       1.715   5.875  20.645  0.00  0.00    +0.000 A 
ATOM      4  C   UNL     1       2.404   5.633  19.451  0.00  0.00    +0.000 A 
ATOM      5  C   UNL     1       2.692   6.652  18.538  0.00  0.00    +0.000 A 
ATOM      6  C   UNL     1       2.271   7.964  18.834  0.00  0.00    +0.000 A 
ATOM      7  C   UNL     1       3.422   6.062  17.467  0.00  0.00    +0.000 A 
ATOM      8  C   UNL     1       3.632   4.730  17.772  0.00  0.00    +0.000 A 
ATOM      9  N   UNL     1       2.953   4.481  18.941  0.00  0.00    +0.000 N 
ATOM     10  C   UNL     1       2.982   3.184  19.594  0.00  0.00    +0.000 C 
ATOM     11  C   UNL     1       3.441   2.087  18.636  0.00  0.00    +0.000 C 
ATOM     12  N   UNL     1       4.476   2.510  17.713  0.00  0.00    +0.000 N 
ATOM     13  C   UNL     1       4.435   3.740  17.095  0.00  0.00    +0.000 C 
ATOM     14  O   UNL     1       5.079   3.938  16.069  0.00  0.00    +0.000 OA
ATOM     15  H   UNL     1       4.993   1.818  17.186  0.00  0.00    +0.000 HD
ENDROOT
BRANCH   1  16
ATOM     16  O   UNL     1       1.226   9.533  20.220  0.00  0.00    +0.000 OA
BRANCH  16  20
ATOM     17  N   UNL     1      -0.351  12.641  20.448  0.00  0.00    +0.000 NA
ATOM     18  C   UNL     1       1.102  12.471  20.308  0.00  0.00    +0.000 C 
ATOM     19  C   UNL     1       1.459  11.687  19.047  0.00  0.00    +0.000 C 
ATOM     20  C   UNL     1       0.812  10.303  19.076  0.00  0.00    +0.000 C 
ATOM     21  C   UNL     1      -0.702  10.506  19.173  0.00  0.00    +0.000 C 
ATOM     22  C   UNL     1      -1.072  11.357  20.391  0.00  0.00    +0.000 C 
BRANCH  17  24
ATOM     23  C   UNL     1      -1.158  12.597  22.871  0.00  0.00    +0.000 C 
ATOM     24  C   UNL     1      -0.739  13.426  21.645  0.00  0.00    +0.000 C 
ATOM     25  C   UNL     1       0.364  14.412  22.056  0.00  0.00    +0.000 C 
ENDBRANCH  17  24
ENDBRANCH  16  20
ENDBRANCH   1  16
TORSDOF 3
ENDMDL
