MODEL 1
REMARK VINA RESULT:      -7.7      0.000      0.000
REMARK  Name = 
REMARK  6 active torsions:
REMARK  status: ('A' for Active; 'I' for Inactive)
REMARK    1  A    between atoms: N_3  and  C_4
REMARK    2  A    between atoms: N_10  and  C_11
REMARK    3  A    between atoms: C_11  and  C_12
REMARK    4  A    between atoms: C_11  and  C_18
REMARK    5  A    between atoms: C_18  and  C_19
REMARK    6  A    between atoms: C_19  and  O_20
REMARK                            x       y       z     vdW  Elec       q    Type
REMARK                         _______ _______ _______ _____ _____    ______ ____
ROOT
ATOM      1  C   UNL     1       3.469   5.794  18.814  0.00  0.00    +0.000 C 
ENDROOT
BRANCH   1   5
ATOM      2  O   UNL     1       2.153   7.989  19.886  0.00  0.00    +0.000 OA
ATOM      3  C   UNL     1       2.193   7.901  18.661  0.00  0.00    +0.000 C 
ATOM      4  N   UNL     1       1.533   8.723  17.776  0.00  0.00    +0.000 N 
ATOM      5  N   UNL     1       2.865   6.878  18.039  0.00  0.00    +0.000 N 
ATOM      6  H   UNL     1       1.347   8.332  16.866  0.00  0.00    +0.000 HD
ATOM      7  H   UNL     1       3.094   6.975  17.059  0.00  0.00    +0.000 HD
BRANCH   4   8
ATOM      8  C   UNL     1       0.785   9.869  18.141  0.00  0.00    +0.000 A 
ATOM      9  C   UNL     1       1.380  11.021  18.668  0.00  0.00    +0.000 A 
ATOM     10  C   UNL     1       0.602  12.111  19.061  0.00  0.00    +0.000 A 
ATOM     11  C   UNL     1      -0.781  12.069  18.916  0.00  0.00    +0.000 A 
ATOM     12  C   UNL     1      -1.382  10.940  18.362  0.00  0.00    +0.000 A 
ATOM     13  C   UNL     1      -0.602   9.848  17.968  0.00  0.00    +0.000 A 
ENDBRANCH   4   8
ENDBRANCH   1   5
BRANCH   1  14
ATOM     14  C   UNL     1       4.864   5.432  18.306  0.00  0.00    +0.000 A 
ATOM     15  C   UNL     1       5.985   5.357  19.145  0.00  0.00    +0.000 A 
ATOM     16  C   UNL     1       7.266   5.198  18.606  0.00  0.00    +0.000 A 
ATOM     17  C   UNL     1       7.444   5.107  17.227  0.00  0.00    +0.000 A 
ATOM     18  C   UNL     1       6.338   5.119  16.385  0.00  0.00    +0.000 A 
ATOM     19  C   UNL     1       5.058   5.260  16.922  0.00  0.00    +0.000 A 
ENDBRANCH   1  14
BRANCH   1  20
ATOM     20  C   UNL     1       2.494   4.555  19.008  0.00  0.00    +0.000 C 
ATOM     21  C   UNL     1       1.628   4.698  20.286  0.00  0.00    +0.000 C 
ATOM     22  C   UNL     1       0.929   3.407  20.700  0.00  0.00    +0.000 C 
ATOM     23  O   UNL     1       1.875   2.353  20.860  0.00  0.00    +0.000 OA
ATOM     24  C   UNL     1       2.541   2.043  19.640  0.00  0.00    +0.000 C 
ATOM     25  C   UNL     1       3.333   3.247  19.140  0.00  0.00    +0.000 C 
BRANCH  20  26
ATOM     26  C   UNL     1       1.595   4.479  17.736  0.00  0.00    +0.000 C 
BRANCH  26  27
ATOM     27  O   UNL     1       1.981   3.482  16.805  0.00  0.00    +0.000 OA
ATOM     28  H   UNL     1       2.475   2.797  17.287  0.00  0.00    +0.000 HD
ENDBRANCH  26  27
ENDBRANCH  20  26
ENDBRANCH   1  20
TORSDOF 6
ENDMDL
MODEL 2
REMARK VINA RESULT:      -7.7      0.207      1.376
REMARK  Name = 
REMARK  6 active torsions:
REMARK  status: ('A' for Active; 'I' for Inactive)
REMARK    1  A    between atoms: N_3  and  C_4
REMARK    2  A    between atoms: N_10  and  C_11
REMARK    3  A    between atoms: C_11  and  C_12
REMARK    4  A    between atoms: C_11  and  C_18
REMARK    5  A    between atoms: C_18  and  C_19
REMARK    6  A    between atoms: C_19  and  O_20
REMARK                            x       y       z     vdW  Elec       q    Type
REMARK                         _______ _______ _______ _____ _____    ______ ____
ROOT
ATOM      1  C   UNL     1       3.550   5.896  18.704  0.00  0.00    +0.000 C 
ENDROOT
BRANCH   1   5
ATOM      2  O   UNL     1       2.228   8.057  19.833  0.00  0.00    +0.000 OA
ATOM      3  C   UNL     1       2.202   7.961  18.609  0.00  0.00    +0.000 C 
ATOM      4  N   UNL     1       1.469   8.755  17.756  0.00  0.00    +0.000 N 
ATOM      5  N   UNL     1       2.871   6.954  17.956  0.00  0.00    +0.000 N 
ATOM      6  H   UNL     1       1.246   8.351  16.861  0.00  0.00    +0.000 HD
ATOM      7  H   UNL     1       3.042   7.050  16.964  0.00  0.00    +0.000 HD
BRANCH   4   8
ATOM      8  C   UNL     1       0.708   9.880  18.155  0.00  0.00    +0.000 A 
ATOM      9  C   UNL     1      -0.689   9.910  18.080  0.00  0.00    +0.000 A 
ATOM     10  C   UNL     1      -1.401  11.057  18.437  0.00  0.00    +0.000 A 
ATOM     11  C   UNL     1      -0.723  12.184  18.891  0.00  0.00    +0.000 A 
ATOM     12  C   UNL     1       0.666  12.155  19.002  0.00  0.00    +0.000 A 
ATOM     13  C   UNL     1       1.379  11.006  18.644  0.00  0.00    +0.000 A 
ENDBRANCH   4   8
ENDBRANCH   1   5
BRANCH   1  14
ATOM     14  C   UNL     1       4.916   5.558  18.109  0.00  0.00    +0.000 A 
ATOM     15  C   UNL     1       5.095   5.197  16.766  0.00  0.00    +0.000 A 
ATOM     16  C   UNL     1       6.331   4.725  16.314  0.00  0.00    +0.000 A 
ATOM     17  C   UNL     1       7.406   4.611  17.195  0.00  0.00    +0.000 A 
ATOM     18  C   UNL     1       7.263   5.020  18.515  0.00  0.00    +0.000 A 
ATOM     19  C   UNL     1       6.035   5.509  18.963  0.00  0.00    +0.000 A 
ENDBRANCH   1  14
BRANCH   1  20
ATOM     20  C   UNL     1       2.620   4.637  18.977  0.00  0.00    +0.000 C 
ATOM     21  C   UNL     1       1.793   4.804  20.278  0.00  0.00    +0.000 C 
ATOM     22  C   UNL     1       1.148   3.510  20.764  0.00  0.00    +0.000 C 
ATOM     23  O   UNL     1       2.130   2.490  20.930  0.00  0.00    +0.000 OA
ATOM     24  C   UNL     1       2.763   2.154  19.700  0.00  0.00    +0.000 C 
ATOM     25  C   UNL     1       3.501   3.359  19.129  0.00  0.00    +0.000 C 
BRANCH  20  26
ATOM     26  C   UNL     1       1.681   4.487  17.741  0.00  0.00    +0.000 C 
BRANCH  26  27
ATOM     27  O   UNL     1       2.044   3.442  16.854  0.00  0.00    +0.000 OA
ATOM     28  H   UNL     1       2.976   3.218  17.019  0.00  0.00    +0.000 HD
ENDBRANCH  26  27
ENDBRANCH  20  26
ENDBRANCH   1  20
TORSDOF 6
ENDMDL
MODEL 3
REMARK VINA RESULT:      -7.5      1.781      4.227
REMARK  Name = 
REMARK  6 active torsions:
REMARK  status: ('A' for Active; 'I' for Inactive)
REMARK    1  A    between atoms: N_3  and  C_4
REMARK    2  A    between atoms: N_10  and  C_11
REMARK    3  A    between atoms: C_11  and  C_12
REMARK    4  A    between atoms: C_11  and  C_18
REMARK    5  A    between atoms: C_18  and  C_19
REMARK    6  A    between atoms: C_19  and  O_20
REMARK                            x       y       z     vdW  Elec       q    Type
REMARK                         _______ _______ _______ _____ _____    ______ ____
ROOT
ATOM      1  C   UNL     1       3.069   6.007  18.172  0.00  0.00    +0.000 C 
ENDROOT
BRANCH   1   5
ATOM      2  O   UNL     1       1.364   8.050  17.389  0.00  0.00    +0.000 OA
ATOM      3  C   UNL     1       1.961   8.194  18.453  0.00  0.00    +0.000 C 
ATOM      4  N   UNL     1       1.959   9.333  19.226  0.00  0.00    +0.000 N 
ATOM      5  N   UNL     1       2.786   7.214  18.948  0.00  0.00    +0.000 N 
ATOM      6  H   UNL     1       2.750   9.450  19.839  0.00  0.00    +0.000 HD
ATOM      7  H   UNL     1       3.051   7.251  19.923  0.00  0.00    +0.000 HD
BRANCH   4   8
ATOM      8  C   UNL     1       1.179  10.485  18.965  0.00  0.00    +0.000 A 
ATOM      9  C   UNL     1       1.748  11.724  18.645  0.00  0.00    +0.000 A 
ATOM     10  C   UNL     1       0.946  12.848  18.443  0.00  0.00    +0.000 A 
ATOM     11  C   UNL     1      -0.438  12.743  18.542  0.00  0.00    +0.000 A 
ATOM     12  C   UNL     1      -1.018  11.509  18.828  0.00  0.00    +0.000 A 
ATOM     13  C   UNL     1      -0.214  10.382  19.030  0.00  0.00    +0.000 A 
ENDBRANCH   4   8
ENDBRANCH   1   5
BRANCH   1  14
ATOM     14  C   UNL     1       2.338   4.784  18.726  0.00  0.00    +0.000 A 
ATOM     15  C   UNL     1       1.972   3.690  17.929  0.00  0.00    +0.000 A 
ATOM     16  C   UNL     1       1.150   2.681  18.442  0.00  0.00    +0.000 A 
ATOM     17  C   UNL     1       0.690   2.748  19.756  0.00  0.00    +0.000 A 
ATOM     18  C   UNL     1       1.092   3.794  20.577  0.00  0.00    +0.000 A 
ATOM     19  C   UNL     1       1.926   4.792  20.072  0.00  0.00    +0.000 A 
ENDBRANCH   1  14
BRANCH   1  20
ATOM     20  C   UNL     1       4.621   5.787  17.913  0.00  0.00    +0.000 C 
ATOM     21  C   UNL     1       5.346   7.120  17.596  0.00  0.00    +0.000 C 
ATOM     22  C   UNL     1       6.744   6.935  17.016  0.00  0.00    +0.000 C 
ATOM     23  O   UNL     1       6.701   6.108  15.856  0.00  0.00    +0.000 OA
ATOM     24  C   UNL     1       6.242   4.794  16.153  0.00  0.00    +0.000 C 
ATOM     25  C   UNL     1       4.817   4.833  16.695  0.00  0.00    +0.000 C 
BRANCH  20  26
ATOM     26  C   UNL     1       5.209   5.129  19.199  0.00  0.00    +0.000 C 
BRANCH  26  27
ATOM     27  O   UNL     1       5.544   3.760  19.054  0.00  0.00    +0.000 OA
ATOM     28  H   UNL     1       5.341   3.496  18.140  0.00  0.00    +0.000 HD
ENDBRANCH  26  27
ENDBRANCH  20  26
ENDBRANCH   1  20
TORSDOF 6
ENDMDL
MODEL 4
REMARK VINA RESULT:      -7.5      0.920      1.932
REMARK  Name = 
REMARK  6 active torsions:
REMARK  status: ('A' for Active; 'I' for Inactive)
REMARK    1  A    between atoms: N_3  and  C_4
REMARK    2  A    between atoms: N_10  and  C_11
REMARK    3  A    between atoms: C_11  and  C_12
REMARK    4  A    between atoms: C_11  and  C_18
REMARK    5  A    between atoms: C_18  and  C_19
REMARK    6  A    between atoms: C_19  and  O_20
REMARK                            x       y       z     vdW  Elec       q    Type
REMARK                         _______ _______ _______ _____ _____    ______ ____
ROOT
ATOM      1  C   UNL     1       3.828   5.881  18.639  0.00  0.00    +0.000 C 
ENDROOT
BRANCH   1   5
ATOM      2  O   UNL     1       2.442   8.010  19.752  0.00  0.00    +0.000 OA
ATOM      3  C   UNL     1       2.376   7.873  18.533  0.00  0.00    +0.000 C 
ATOM      4  N   UNL     1       1.572   8.603  17.686  0.00  0.00    +0.000 N 
ATOM      5  N   UNL     1       3.069   6.880  17.886  0.00  0.00    +0.000 N 
ATOM      6  H   UNL     1       1.336   8.159  16.813  0.00  0.00    +0.000 HD
ATOM      7  H   UNL     1       3.199   6.952  16.886  0.00  0.00    +0.000 HD
BRANCH   4   8
ATOM      8  C   UNL     1       0.770   9.701  18.080  0.00  0.00    +0.000 A 
ATOM      9  C   UNL     1       1.304  10.851  18.672  0.00  0.00    +0.000 A 
ATOM     10  C   UNL     1       0.473  11.892  19.091  0.00  0.00    +0.000 A 
ATOM     11  C   UNL     1      -0.902  11.802  18.906  0.00  0.00    +0.000 A 
ATOM     12  C   UNL     1      -1.443  10.677  18.288  0.00  0.00    +0.000 A 
ATOM     13  C   UNL     1      -0.611   9.634  17.868  0.00  0.00    +0.000 A 
ENDBRANCH   4   8
ENDBRANCH   1   5
BRANCH   1  14
ATOM     14  C   UNL     1       5.176   5.572  17.988  0.00  0.00    +0.000 A 
ATOM     15  C   UNL     1       5.316   5.300  16.619  0.00  0.00    +0.000 A 
ATOM     16  C   UNL     1       6.536   4.849  16.105  0.00  0.00    +0.000 A 
ATOM     17  C   UNL     1       7.631   4.668  16.949  0.00  0.00    +0.000 A 
ATOM     18  C   UNL     1       7.527   4.989  18.297  0.00  0.00    +0.000 A 
ATOM     19  C   UNL     1       6.315   5.457  18.807  0.00  0.00    +0.000 A 
ENDBRANCH   1  14
BRANCH   1  20
ATOM     20  C   UNL     1       2.965   4.599  19.010  0.00  0.00    +0.000 C 
ATOM     21  C   UNL     1       3.746   3.285  18.750  0.00  0.00    +0.000 C 
ATOM     22  C   UNL     1       2.868   2.038  18.765  0.00  0.00    +0.000 C 
ATOM     23  O   UNL     1       1.796   2.167  17.836  0.00  0.00    +0.000 OA
ATOM     24  C   UNL     1       0.925   3.242  18.172  0.00  0.00    +0.000 C 
ATOM     25  C   UNL     1       1.673   4.570  18.138  0.00  0.00    +0.000 C 
BRANCH  20  26
ATOM     26  C   UNL     1       2.583   4.727  20.517  0.00  0.00    +0.000 C 
BRANCH  26  27
ATOM     27  O   UNL     1       1.399   5.467  20.758  0.00  0.00    +0.000 OA
ATOM     28  H   UNL     1       0.669   5.029  20.287  0.00  0.00    +0.000 HD
ENDBRANCH  26  27
ENDBRANCH  20  26
ENDBRANCH   1  20
TORSDOF 6
ENDMDL
MODEL 5
REMARK VINA RESULT:      -7.4      1.035      2.082
REMARK  Name = 
REMARK  6 active torsions:
REMARK  status: ('A' for Active; 'I' for Inactive)
REMARK    1  A    between atoms: N_3  and  C_4
REMARK    2  A    between atoms: N_10  and  C_11
REMARK    3  A    between atoms: C_11  and  C_12
REMARK    4  A    between atoms: C_11  and  C_18
REMARK    5  A    between atoms: C_18  and  C_19
REMARK    6  A    between atoms: C_19  and  O_20
REMARK                            x       y       z     vdW  Elec       q    Type
REMARK                         _______ _______ _______ _____ _____    ______ ____
ROOT
ATOM      1  C   UNL     1       3.629   5.970  18.924  0.00  0.00    +0.000 C 
ENDROOT
BRANCH   1   5
ATOM      2  O   UNL     1       2.184   8.133  19.886  0.00  0.00    +0.000 OA
ATOM      3  C   UNL     1       2.175   7.948  18.671  0.00  0.00    +0.000 C 
ATOM      4  N   UNL     1       1.410   8.639  17.760  0.00  0.00    +0.000 N 
ATOM      5  N   UNL     1       2.902   6.934  18.097  0.00  0.00    +0.000 N 
ATOM      6  H   UNL     1       1.217   8.160  16.894  0.00  0.00    +0.000 HD
ATOM      7  H   UNL     1       3.078   6.967  17.102  0.00  0.00    +0.000 HD
BRANCH   4   8
ATOM      8  C   UNL     1       0.586   9.747  18.072  0.00  0.00    +0.000 A 
ATOM      9  C   UNL     1      -0.799   9.738  17.870  0.00  0.00    +0.000 A 
ATOM     10  C   UNL     1      -1.570  10.869  18.145  0.00  0.00    +0.000 A 
ATOM     11  C   UNL     1      -0.965  12.019  18.641  0.00  0.00    +0.000 A 
ATOM     12  C   UNL     1       0.408  12.031  18.877  0.00  0.00    +0.000 A 
ATOM     13  C   UNL     1       1.180  10.897  18.602  0.00  0.00    +0.000 A 
ENDBRANCH   4   8
ENDBRANCH   1   5
BRANCH   1  14
ATOM     14  C   UNL     1       5.110   5.897  18.553  0.00  0.00    +0.000 A 
ATOM     15  C   UNL     1       6.098   5.457  19.445  0.00  0.00    +0.000 A 
ATOM     16  C   UNL     1       7.453   5.578  19.121  0.00  0.00    +0.000 A 
ATOM     17  C   UNL     1       7.839   6.133  17.902  0.00  0.00    +0.000 A 
ATOM     18  C   UNL     1       6.872   6.518  16.981  0.00  0.00    +0.000 A 
ATOM     19  C   UNL     1       5.519   6.382  17.296  0.00  0.00    +0.000 A 
ENDBRANCH   1  14
BRANCH   1  20
ATOM     20  C   UNL     1       2.901   4.560  19.015  0.00  0.00    +0.000 C 
ATOM     21  C   UNL     1       3.868   3.392  18.694  0.00  0.00    +0.000 C 
ATOM     22  C   UNL     1       3.162   2.064  18.437  0.00  0.00    +0.000 C 
ATOM     23  O   UNL     1       2.193   2.203  17.401  0.00  0.00    +0.000 OA
ATOM     24  C   UNL     1       1.160   3.116  17.754  0.00  0.00    +0.000 C 
ATOM     25  C   UNL     1       1.730   4.510  17.986  0.00  0.00    +0.000 C 
BRANCH  20  26
ATOM     26  C   UNL     1       2.338   4.431  20.463  0.00  0.00    +0.000 C 
BRANCH  26  27
ATOM     27  O   UNL     1       2.415   5.621  21.229  0.00  0.00    +0.000 OA
ATOM     28  H   UNL     1       3.332   5.943  21.191  0.00  0.00    +0.000 HD
ENDBRANCH  26  27
ENDBRANCH  20  26
ENDBRANCH   1  20
TORSDOF 6
ENDMDL
MODEL 6
REMARK VINA RESULT:      -7.4      1.481      1.896
REMARK  Name = 
REMARK  6 active torsions:
REMARK  status: ('A' for Active; 'I' for Inactive)
REMARK    1  A    between atoms: N_3  and  C_4
REMARK    2  A    between atoms: N_10  and  C_11
REMARK    3  A    between atoms: C_11  and  C_12
REMARK    4  A    between atoms: C_11  and  C_18
REMARK    5  A    between atoms: C_18  and  C_19
REMARK    6  A    between atoms: C_19  and  O_20
REMARK                            x       y       z     vdW  Elec       q    Type
REMARK                         _______ _______ _______ _____ _____    ______ ____
ROOT
ATOM      1  C   UNL     1       3.872   4.940  18.382  0.00  0.00    +0.000 C 
ENDROOT
BRANCH   1   5
ATOM      2  O   UNL     1       3.365   7.325  19.703  0.00  0.00    +0.000 OA
ATOM      3  C   UNL     1       2.790   7.143  18.633  0.00  0.00    +0.000 C 
ATOM      4  N   UNL     1       1.820   7.958  18.094  0.00  0.00    +0.000 N 
ATOM      5  N   UNL     1       3.017   6.016  17.881  0.00  0.00    +0.000 N 
ATOM      6  H   UNL     1       1.191   7.520  17.440  0.00  0.00    +0.000 HD
ATOM      7  H   UNL     1       2.737   6.017  16.910  0.00  0.00    +0.000 HD
BRANCH   4   8
ATOM      8  C   UNL     1       1.407   9.195  18.645  0.00  0.00    +0.000 A 
ATOM      9  C   UNL     1       1.808  10.428  18.117  0.00  0.00    +0.000 A 
ATOM     10  C   UNL     1       1.418  11.625  18.720  0.00  0.00    +0.000 A 
ATOM     11  C   UNL     1       0.608  11.604  19.849  0.00  0.00    +0.000 A 
ATOM     12  C   UNL     1       0.175  10.385  20.366  0.00  0.00    +0.000 A 
ATOM     13  C   UNL     1       0.565   9.185  19.762  0.00  0.00    +0.000 A 
ENDBRANCH   4   8
ENDBRANCH   1   5
BRANCH   1  14
ATOM     14  C   UNL     1       5.010   4.613  17.416  0.00  0.00    +0.000 A 
ATOM     15  C   UNL     1       6.362   4.685  17.780  0.00  0.00    +0.000 A 
ATOM     16  C   UNL     1       7.366   4.553  16.815  0.00  0.00    +0.000 A 
ATOM     17  C   UNL     1       7.034   4.342  15.478  0.00  0.00    +0.000 A 
ATOM     18  C   UNL     1       5.701   4.208  15.109  0.00  0.00    +0.000 A 
ATOM     19  C   UNL     1       4.699   4.323  16.074  0.00  0.00    +0.000 A 
ENDBRANCH   1  14
BRANCH   1  20
ATOM     20  C   UNL     1       3.047   3.676  18.880  0.00  0.00    +0.000 C 
ATOM     21  C   UNL     1       1.742   3.483  18.065  0.00  0.00    +0.000 C 
ATOM     22  C   UNL     1       0.759   2.508  18.704  0.00  0.00    +0.000 C 
ATOM     23  O   UNL     1       0.454   2.904  20.038  0.00  0.00    +0.000 OA
ATOM     24  C   UNL     1       1.603   2.882  20.878  0.00  0.00    +0.000 C 
ATOM     25  C   UNL     1       2.654   3.866  20.377  0.00  0.00    +0.000 C 
BRANCH  20  26
ATOM     26  C   UNL     1       3.980   2.435  18.732  0.00  0.00    +0.000 C 
BRANCH  26  27
ATOM     27  O   UNL     1       4.870   2.240  19.818  0.00  0.00    +0.000 OA
ATOM     28  H   UNL     1       4.476   2.651  20.606  0.00  0.00    +0.000 HD
ENDBRANCH  26  27
ENDBRANCH  20  26
ENDBRANCH   1  20
TORSDOF 6
ENDMDL
MODEL 7
REMARK VINA RESULT:      -7.4      1.877      4.164
REMARK  Name = 
REMARK  6 active torsions:
REMARK  status: ('A' for Active; 'I' for Inactive)
REMARK    1  A    between atoms: N_3  and  C_4
REMARK    2  A    between atoms: N_10  and  C_11
REMARK    3  A    between atoms: C_11  and  C_12
REMARK    4  A    between atoms: C_11  and  C_18
REMARK    5  A    between atoms: C_18  and  C_19
REMARK    6  A    between atoms: C_19  and  O_20
REMARK                            x       y       z     vdW  Elec       q    Type
REMARK                         _______ _______ _______ _____ _____    ______ ____
ROOT
ATOM      1  C   UNL     1       3.366   5.908  17.976  0.00  0.00    +0.000 C 
ENDROOT
BRANCH   1   5
ATOM      2  O   UNL     1       1.513   7.879  17.361  0.00  0.00    +0.000 OA
ATOM      3  C   UNL     1       2.080   7.961  18.448  0.00  0.00    +0.000 C 
ATOM      4  N   UNL     1       1.973   9.012  19.331  0.00  0.00    +0.000 N 
ATOM      5  N   UNL     1       2.974   7.005  18.862  0.00  0.00    +0.000 N 
ATOM      6  H   UNL     1       2.743   9.128  19.971  0.00  0.00    +0.000 HD
ATOM      7  H   UNL     1       3.220   6.964  19.842  0.00  0.00    +0.000 HD
BRANCH   4   8
ATOM      8  C   UNL     1       1.107  10.120  19.168  0.00  0.00    +0.000 A 
ATOM      9  C   UNL     1      -0.266  10.048  19.426  0.00  0.00    +0.000 A 
ATOM     10  C   UNL     1      -1.095  11.150  19.205  0.00  0.00    +0.000 A 
ATOM     11  C   UNL     1      -0.555  12.344  18.740  0.00  0.00    +0.000 A 
ATOM     12  C   UNL     1       0.816  12.439  18.510  0.00  0.00    +0.000 A 
ATOM     13  C   UNL     1       1.646  11.334  18.731  0.00  0.00    +0.000 A 
ENDBRANCH   4   8
ENDBRANCH   1   5
BRANCH   1  14
ATOM     14  C   UNL     1       2.584   4.628  18.267  0.00  0.00    +0.000 A 
ATOM     15  C   UNL     1       1.822   4.448  19.430  0.00  0.00    +0.000 A 
ATOM     16  C   UNL     1       1.274   3.197  19.734  0.00  0.00    +0.000 A 
ATOM     17  C   UNL     1       1.475   2.114  18.881  0.00  0.00    +0.000 A 
ATOM     18  C   UNL     1       2.178   2.289  17.695  0.00  0.00    +0.000 A 
ATOM     19  C   UNL     1       2.710   3.540  17.381  0.00  0.00    +0.000 A 
ENDBRANCH   1  14
BRANCH   1  20
ATOM     20  C   UNL     1       4.941   5.715  17.890  0.00  0.00    +0.000 C 
ATOM     21  C   UNL     1       5.670   7.055  17.616  0.00  0.00    +0.000 C 
ATOM     22  C   UNL     1       7.126   6.885  17.193  0.00  0.00    +0.000 C 
ATOM     23  O   UNL     1       7.222   6.029  16.058  0.00  0.00    +0.000 OA
ATOM     24  C   UNL     1       6.758   4.713  16.340  0.00  0.00    +0.000 C 
ATOM     25  C   UNL     1       5.283   4.736  16.726  0.00  0.00    +0.000 C 
BRANCH  20  26
ATOM     26  C   UNL     1       5.400   5.103  19.249  0.00  0.00    +0.000 C 
BRANCH  26  27
ATOM     27  O   UNL     1       5.660   3.710  19.204  0.00  0.00    +0.000 OA
ATOM     28  H   UNL     1       5.793   3.459  18.274  0.00  0.00    +0.000 HD
ENDBRANCH  26  27
ENDBRANCH  20  26
ENDBRANCH   1  20
TORSDOF 6
ENDMDL
MODEL 8
REMARK VINA RESULT:      -7.3      0.882      1.706
REMARK  Name = 
REMARK  6 active torsions:
REMARK  status: ('A' for Active; 'I' for Inactive)
REMARK    1  A    between atoms: N_3  and  C_4
REMARK    2  A    between atoms: N_10  and  C_11
REMARK    3  A    between atoms: C_11  and  C_12
REMARK    4  A    between atoms: C_11  and  C_18
REMARK    5  A    between atoms: C_18  and  C_19
REMARK    6  A    between atoms: C_19  and  O_20
REMARK                            x       y       z     vdW  Elec       q    Type
REMARK                         _______ _______ _______ _____ _____    ______ ____
ROOT
ATOM      1  C   UNL     1       3.480   5.973  18.944  0.00  0.00    +0.000 C 
ENDROOT
BRANCH   1   5
ATOM      2  O   UNL     1       2.184   8.226  19.915  0.00  0.00    +0.000 OA
ATOM      3  C   UNL     1       2.103   8.008  18.708  0.00  0.00    +0.000 C 
ATOM      4  N   UNL     1       1.321   8.708  17.817  0.00  0.00    +0.000 N 
ATOM      5  N   UNL     1       2.753   6.946  18.128  0.00  0.00    +0.000 N 
ATOM      6  H   UNL     1       1.062   8.214  16.978  0.00  0.00    +0.000 HD
ATOM      7  H   UNL     1       2.877   6.944  17.125  0.00  0.00    +0.000 HD
BRANCH   4   8
ATOM      8  C   UNL     1       0.565   9.861  18.138  0.00  0.00    +0.000 A 
ATOM      9  C   UNL     1       1.141  11.012  18.686  0.00  0.00    +0.000 A 
ATOM     10  C   UNL     1       0.353  12.110  19.034  0.00  0.00    +0.000 A 
ATOM     11  C   UNL     1      -1.021  12.076  18.822  0.00  0.00    +0.000 A 
ATOM     12  C   UNL     1      -1.603  10.948  18.247  0.00  0.00    +0.000 A 
ATOM     13  C   UNL     1      -0.813   9.848  17.898  0.00  0.00    +0.000 A 
ENDBRANCH   4   8
ENDBRANCH   1   5
BRANCH   1  14
ATOM     14  C   UNL     1       4.926   5.801  18.481  0.00  0.00    +0.000 A 
ATOM     15  C   UNL     1       5.982   5.536  19.364  0.00  0.00    +0.000 A 
ATOM     16  C   UNL     1       7.307   5.565  18.917  0.00  0.00    +0.000 A 
ATOM     17  C   UNL     1       7.594   5.853  17.584  0.00  0.00    +0.000 A 
ATOM     18  C   UNL     1       6.557   6.058  16.682  0.00  0.00    +0.000 A 
ATOM     19  C   UNL     1       5.233   6.012  17.123  0.00  0.00    +0.000 A 
ENDBRANCH   1  14
BRANCH   1  20
ATOM     20  C   UNL     1       2.682   4.612  19.140  0.00  0.00    +0.000 C 
ATOM     21  C   UNL     1       3.636   3.392  19.209  0.00  0.00    +0.000 C 
ATOM     22  C   UNL     1       2.926   2.050  19.058  0.00  0.00    +0.000 C 
ATOM     23  O   UNL     1       2.167   2.017  17.852  0.00  0.00    +0.000 OA
ATOM     24  C   UNL     1       1.130   2.992  17.847  0.00  0.00    +0.000 C 
ATOM     25  C   UNL     1       1.714   4.397  17.937  0.00  0.00    +0.000 C 
BRANCH  20  26
ATOM     26  C   UNL     1       1.863   4.750  20.460  0.00  0.00    +0.000 C 
BRANCH  26  27
ATOM     27  O   UNL     1       2.231   5.858  21.263  0.00  0.00    +0.000 OA
ATOM     28  H   UNL     1       2.516   5.519  22.130  0.00  0.00    +0.000 HD
ENDBRANCH  26  27
ENDBRANCH  20  26
ENDBRANCH   1  20
TORSDOF 6
ENDMDL
MODEL 9
REMARK VINA RESULT:      -7.3      1.898      4.019
REMARK  Name = 
REMARK  6 active torsions:
REMARK  status: ('A' for Active; 'I' for Inactive)
REMARK    1  A    between atoms: N_3  and  C_4
REMARK    2  A    between atoms: N_10  and  C_11
REMARK    3  A    between atoms: C_11  and  C_12
REMARK    4  A    between atoms: C_11  and  C_18
REMARK    5  A    between atoms: C_18  and  C_19
REMARK    6  A    between atoms: C_19  and  O_20
REMARK                            x       y       z     vdW  Elec       q    Type
REMARK                         _______ _______ _______ _____ _____    ______ ____
ROOT
ATOM      1  C   UNL     1       2.877   6.138  18.177  0.00  0.00    +0.000 C 
ENDROOT
BRANCH   1   5
ATOM      2  O   UNL     1       1.357   8.292  17.316  0.00  0.00    +0.000 OA
ATOM      3  C   UNL     1       1.858   8.370  18.435  0.00  0.00    +0.000 C 
ATOM      4  N   UNL     1       1.840   9.482  19.246  0.00  0.00    +0.000 N 
ATOM      5  N   UNL     1       2.584   7.333  18.967  0.00  0.00    +0.000 N 
ATOM      6  H   UNL     1       2.576   9.537  19.933  0.00  0.00    +0.000 HD
ATOM      7  H   UNL     1       2.757   7.325  19.963  0.00  0.00    +0.000 HD
BRANCH   4   8
ATOM      8  C   UNL     1       1.147  10.682  18.957  0.00  0.00    +0.000 A 
ATOM      9  C   UNL     1       1.805  11.876  18.639  0.00  0.00    +0.000 A 
ATOM     10  C   UNL     1       1.086  13.050  18.409  0.00  0.00    +0.000 A 
ATOM     11  C   UNL     1      -0.303  13.040  18.477  0.00  0.00    +0.000 A 
ATOM     12  C   UNL     1      -0.972  11.851  18.759  0.00  0.00    +0.000 A 
ATOM     13  C   UNL     1      -0.251  10.675  18.990  0.00  0.00    +0.000 A 
ENDBRANCH   4   8
ENDBRANCH   1   5
BRANCH   1  14
ATOM     14  C   UNL     1       2.217   4.888  18.758  0.00  0.00    +0.000 A 
ATOM     15  C   UNL     1       1.693   3.862  17.959  0.00  0.00    +0.000 A 
ATOM     16  C   UNL     1       0.942   2.829  18.530  0.00  0.00    +0.000 A 
ATOM     17  C   UNL     1       0.709   2.805  19.904  0.00  0.00    +0.000 A 
ATOM     18  C   UNL     1       1.271   3.781  20.718  0.00  0.00    +0.000 A 
ATOM     19  C   UNL     1       2.036   4.802  20.151  0.00  0.00    +0.000 A 
ENDBRANCH   1  14
BRANCH   1  20
ATOM     20  C   UNL     1       4.424   5.976  17.851  0.00  0.00    +0.000 C 
ATOM     21  C   UNL     1       4.714   4.671  17.066  0.00  0.00    +0.000 C 
ATOM     22  C   UNL     1       6.192   4.298  17.020  0.00  0.00    +0.000 C 
ATOM     23  O   UNL     1       6.728   4.211  18.338  0.00  0.00    +0.000 OA
ATOM     24  C   UNL     1       6.678   5.460  19.019  0.00  0.00    +0.000 C 
ATOM     25  C   UNL     1       5.235   5.925  19.182  0.00  0.00    +0.000 C 
BRANCH  20  26
ATOM     26  C   UNL     1       4.849   7.226  17.022  0.00  0.00    +0.000 C 
BRANCH  26  27
ATOM     27  O   UNL     1       5.031   6.976  15.639  0.00  0.00    +0.000 OA
ATOM     28  H   UNL     1       4.336   6.360  15.350  0.00  0.00    +0.000 HD
ENDBRANCH  26  27
ENDBRANCH  20  26
ENDBRANCH   1  20
TORSDOF 6
ENDMDL
