MODEL 1
REMARK VINA RESULT:      -7.8      0.000      0.000
REMARK  Name = 
REMARK  9 active torsions:
REMARK  status: ('A' for Active; 'I' for Inactive)
REMARK    1  A    between atoms: C_1  and  O_2
REMARK    2  A    between atoms: O_2  and  C_3
REMARK    3  A    between atoms: C_6  and  C_7
REMARK    4  A    between atoms: C_7  and  C_8
REMARK    5  A    between atoms: C_7  and  N_12
REMARK    6  A    between atoms: C_8  and  C_9
REMARK    7  A    between atoms: C_9  and  O_11
REMARK    8  A    between atoms: C_13  and  C_15
REMARK    9  A    between atoms: C_20  and  N_21
REMARK                            x       y       z     vdW  Elec       q    Type
REMARK                         _______ _______ _______ _____ _____    ______ ____
ROOT
ATOM      1  C   UNL     1       6.213   5.622  17.070  0.00  0.00    +0.000 C 
ENDROOT
BRANCH   1   5
ATOM      2  C   UNL     1       6.461   4.009  13.024  0.00  0.00    +0.000 A 
ATOM      3  C   UNL     1       5.323   3.800  13.794  0.00  0.00    +0.000 A 
ATOM      4  C   UNL     1       5.219   4.347  15.074  0.00  0.00    +0.000 A 
ATOM      5  C   UNL     1       6.264   5.100  15.631  0.00  0.00    +0.000 A 
ATOM      6  C   UNL     1       7.398   5.326  14.830  0.00  0.00    +0.000 A 
ATOM      7  C   UNL     1       7.497   4.783  13.538  0.00  0.00    +0.000 A 
BRANCH   2   9
ATOM      8  C   UNL     1       5.590   2.232  11.720  0.00  0.00    +0.000 C 
ATOM      9  O   UNL     1       6.451   3.354  11.825  0.00  0.00    +0.000 OA
ENDBRANCH   2   9
ENDBRANCH   1   5
BRANCH   1  10
ATOM     10  N   UNL     1       5.000   5.168  17.752  0.00  0.00    +0.000 N 
ATOM     11  C   UNL     1       4.949   4.834  19.090  0.00  0.00    +0.000 C 
ATOM     12  O   UNL     1       5.908   4.882  19.846  0.00  0.00    +0.000 OA
ATOM     13  H   UNL     1       4.300   4.751  17.145  0.00  0.00    +0.000 HD
BRANCH  11  14
ATOM     14  C   UNL     1       3.613   4.423  19.599  0.00  0.00    +0.000 A 
ATOM     15  C   UNL     1       2.681   5.413  19.956  0.00  0.00    +0.000 A 
ATOM     16  C   UNL     1       1.443   5.066  20.504  0.00  0.00    +0.000 A 
ATOM     17  C   UNL     1       1.117   3.728  20.716  0.00  0.00    +0.000 A 
ATOM     18  C   UNL     1       2.033   2.730  20.383  0.00  0.00    +0.000 A 
ATOM     19  C   UNL     1       3.275   3.086  19.832  0.00  0.00    +0.000 A 
BRANCH  19  20
ATOM     20  N   UNL     1       4.170   2.010  19.464  0.00  0.00    +0.000 N 
ATOM     21  O   UNL     1       3.919   1.399  18.418  0.00  0.00    +0.000 OA
ATOM     22  O   UNL     1       5.047   1.704  20.290  0.00  0.00    +0.000 OA
ENDBRANCH  19  20
ENDBRANCH  11  14
ENDBRANCH   1  10
BRANCH   1  23
ATOM     23  C   UNL     1       6.414   7.140  17.190  0.00  0.00    +0.000 C 
BRANCH  23  24
ATOM     24  C   UNL     1       7.677   7.513  17.911  0.00  0.00    +0.000 C 
ATOM     25  O   UNL     1       8.269   8.576  17.798  0.00  0.00    +0.000 OA
BRANCH  24  26
ATOM     26  O   UNL     1       8.089   6.536  18.754  0.00  0.00    +0.000 OA
ATOM     27  H   UNL     1       7.677   5.664  18.580  0.00  0.00    +0.000 HD
ENDBRANCH  24  26
ENDBRANCH  23  24
ENDBRANCH   1  23
TORSDOF 8
ENDMDL
MODEL 2
REMARK VINA RESULT:      -7.7      0.330      1.183
REMARK  Name = 
REMARK  9 active torsions:
REMARK  status: ('A' for Active; 'I' for Inactive)
REMARK    1  A    between atoms: C_1  and  O_2
REMARK    2  A    between atoms: O_2  and  C_3
REMARK    3  A    between atoms: C_6  and  C_7
REMARK    4  A    between atoms: C_7  and  C_8
REMARK    5  A    between atoms: C_7  and  N_12
REMARK    6  A    between atoms: C_8  and  C_9
REMARK    7  A    between atoms: C_9  and  O_11
REMARK    8  A    between atoms: C_13  and  C_15
REMARK    9  A    between atoms: C_20  and  N_21
REMARK                            x       y       z     vdW  Elec       q    Type
REMARK                         _______ _______ _______ _____ _____    ______ ____
ROOT
ATOM      1  C   UNL     1       6.444   5.715  17.101  0.00  0.00    +0.000 C 
ENDROOT
BRANCH   1   5
ATOM      2  C   UNL     1       6.467   3.903  13.132  0.00  0.00    +0.000 A 
ATOM      3  C   UNL     1       7.458   4.807  13.497  0.00  0.00    +0.000 A 
ATOM      4  C   UNL     1       7.481   5.360  14.778  0.00  0.00    +0.000 A 
ATOM      5  C   UNL     1       6.496   5.042  15.726  0.00  0.00    +0.000 A 
ATOM      6  C   UNL     1       5.515   4.106  15.352  0.00  0.00    +0.000 A 
ATOM      7  C   UNL     1       5.499   3.542  14.065  0.00  0.00    +0.000 A 
BRANCH   2   9
ATOM      8  C   UNL     1       5.857   2.297  11.500  0.00  0.00    +0.000 C 
ATOM      9  O   UNL     1       6.530   3.502  11.828  0.00  0.00    +0.000 OA
ENDBRANCH   2   9
ENDBRANCH   1   5
BRANCH   1  10
ATOM     10  N   UNL     1       5.206   5.379  17.806  0.00  0.00    +0.000 N 
ATOM     11  C   UNL     1       5.162   4.941  19.114  0.00  0.00    +0.000 C 
ATOM     12  O   UNL     1       6.148   4.788  19.820  0.00  0.00    +0.000 OA
ATOM     13  H   UNL     1       4.430   5.118  17.205  0.00  0.00    +0.000 HD
BRANCH  11  14
ATOM     14  C   UNL     1       3.802   4.678  19.657  0.00  0.00    +0.000 A 
ATOM     15  C   UNL     1       2.978   5.765  19.996  0.00  0.00    +0.000 A 
ATOM     16  C   UNL     1       1.722   5.559  20.575  0.00  0.00    +0.000 A 
ATOM     17  C   UNL     1       1.272   4.266  20.835  0.00  0.00    +0.000 A 
ATOM     18  C   UNL     1       2.080   3.173  20.520  0.00  0.00    +0.000 A 
ATOM     19  C   UNL     1       3.340   3.389  19.939  0.00  0.00    +0.000 A 
BRANCH  19  20
ATOM     20  N   UNL     1       4.118   2.219  19.592  0.00  0.00    +0.000 N 
ATOM     21  O   UNL     1       4.983   1.856  20.400  0.00  0.00    +0.000 OA
ATOM     22  O   UNL     1       3.942   1.745  18.457  0.00  0.00    +0.000 OA
ENDBRANCH  19  20
ENDBRANCH  11  14
ENDBRANCH   1  10
BRANCH   1  23
ATOM     23  C   UNL     1       6.697   7.230  17.062  0.00  0.00    +0.000 C 
BRANCH  23  24
ATOM     24  C   UNL     1       7.796   7.669  17.987  0.00  0.00    +0.000 C 
ATOM     25  O   UNL     1       8.297   8.783  18.013  0.00  0.00    +0.000 OA
BRANCH  24  26
ATOM     26  O   UNL     1       8.162   6.685  18.844  0.00  0.00    +0.000 OA
ATOM     27  H   UNL     1       9.109   6.708  19.091  0.00  0.00    +0.000 HD
ENDBRANCH  24  26
ENDBRANCH  23  24
ENDBRANCH   1  23
TORSDOF 8
ENDMDL
MODEL 3
REMARK VINA RESULT:      -7.6      2.996      7.240
REMARK  Name = 
REMARK  9 active torsions:
REMARK  status: ('A' for Active; 'I' for Inactive)
REMARK    1  A    between atoms: C_1  and  O_2
REMARK    2  A    between atoms: O_2  and  C_3
REMARK    3  A    between atoms: C_6  and  C_7
REMARK    4  A    between atoms: C_7  and  C_8
REMARK    5  A    between atoms: C_7  and  N_12
REMARK    6  A    between atoms: C_8  and  C_9
REMARK    7  A    between atoms: C_9  and  O_11
REMARK    8  A    between atoms: C_13  and  C_15
REMARK    9  A    between atoms: C_20  and  N_21
REMARK                            x       y       z     vdW  Elec       q    Type
REMARK                         _______ _______ _______ _____ _____    ______ ____
ROOT
ATOM      1  C   UNL     1       2.887   5.550  19.614  0.00  0.00    +0.000 C 
ENDROOT
BRANCH   1   5
ATOM      2  C   UNL     1       0.961   9.460  19.819  0.00  0.00    +0.000 A 
ATOM      3  C   UNL     1       0.970   8.623  20.928  0.00  0.00    +0.000 A 
ATOM      4  C   UNL     1       1.619   7.388  20.883  0.00  0.00    +0.000 A 
ATOM      5  C   UNL     1       2.259   6.944  19.716  0.00  0.00    +0.000 A 
ATOM      6  C   UNL     1       2.265   7.812  18.610  0.00  0.00    +0.000 A 
ATOM      7  C   UNL     1       1.620   9.059  18.659  0.00  0.00    +0.000 A 
BRANCH   2   9
ATOM      8  C   UNL     1       0.642  11.737  19.245  0.00  0.00    +0.000 C 
ATOM      9  O   UNL     1       0.228  10.600  19.985  0.00  0.00    +0.000 OA
ENDBRANCH   2   9
ENDBRANCH   1   5
BRANCH   1  10
ATOM     10  N   UNL     1       3.733   5.439  18.425  0.00  0.00    +0.000 N 
ATOM     11  C   UNL     1       4.822   4.598  18.332  0.00  0.00    +0.000 C 
ATOM     12  O   UNL     1       5.196   3.859  19.231  0.00  0.00    +0.000 OA
ATOM     13  H   UNL     1       3.726   6.254  17.818  0.00  0.00    +0.000 HD
BRANCH  11  14
ATOM     14  C   UNL     1       5.535   4.612  17.026  0.00  0.00    +0.000 A 
ATOM     15  C   UNL     1       4.883   4.113  15.885  0.00  0.00    +0.000 A 
ATOM     16  C   UNL     1       5.546   4.044  14.655  0.00  0.00    +0.000 A 
ATOM     17  C   UNL     1       6.871   4.460  14.546  0.00  0.00    +0.000 A 
ATOM     18  C   UNL     1       7.541   4.944  15.669  0.00  0.00    +0.000 A 
ATOM     19  C   UNL     1       6.870   5.011  16.901  0.00  0.00    +0.000 A 
BRANCH  19  20
ATOM     20  N   UNL     1       7.598   5.561  18.024  0.00  0.00    +0.000 N 
ATOM     21  O   UNL     1       7.664   6.794  18.106  0.00  0.00    +0.000 OA
ATOM     22  O   UNL     1       8.202   4.753  18.750  0.00  0.00    +0.000 OA
ENDBRANCH  19  20
ENDBRANCH  11  14
ENDBRANCH   1  10
BRANCH   1  23
ATOM     23  C   UNL     1       1.872   4.401  19.716  0.00  0.00    +0.000 C 
BRANCH  23  24
ATOM     24  C   UNL     1       1.574   3.758  18.391  0.00  0.00    +0.000 C 
ATOM     25  O   UNL     1       1.175   4.342  17.396  0.00  0.00    +0.000 OA
BRANCH  24  26
ATOM     26  O   UNL     1       1.837   2.429  18.401  0.00  0.00    +0.000 OA
ATOM     27  H   UNL     1       2.765   2.211  18.628  0.00  0.00    +0.000 HD
ENDBRANCH  24  26
ENDBRANCH  23  24
ENDBRANCH   1  23
TORSDOF 8
ENDMDL
MODEL 4
REMARK VINA RESULT:      -7.5      2.996      7.270
REMARK  Name = 
REMARK  9 active torsions:
REMARK  status: ('A' for Active; 'I' for Inactive)
REMARK    1  A    between atoms: C_1  and  O_2
REMARK    2  A    between atoms: O_2  and  C_3
REMARK    3  A    between atoms: C_6  and  C_7
REMARK    4  A    between atoms: C_7  and  C_8
REMARK    5  A    between atoms: C_7  and  N_12
REMARK    6  A    between atoms: C_8  and  C_9
REMARK    7  A    between atoms: C_9  and  O_11
REMARK    8  A    between atoms: C_13  and  C_15
REMARK    9  A    between atoms: C_20  and  N_21
REMARK                            x       y       z     vdW  Elec       q    Type
REMARK                         _______ _______ _______ _____ _____    ______ ____
ROOT
ATOM      1  C   UNL     1       2.803   5.594  19.611  0.00  0.00    +0.000 C 
ENDROOT
BRANCH   1   5
ATOM      2  C   UNL     1       1.010   9.566  19.833  0.00  0.00    +0.000 A 
ATOM      3  C   UNL     1       1.595   9.124  18.652  0.00  0.00    +0.000 A 
ATOM      4  C   UNL     1       2.134   7.840  18.560  0.00  0.00    +0.000 A 
ATOM      5  C   UNL     1       2.125   6.967  19.659  0.00  0.00    +0.000 A 
ATOM      6  C   UNL     1       1.507   7.417  20.839  0.00  0.00    +0.000 A 
ATOM      7  C   UNL     1       0.955   8.706  20.927  0.00  0.00    +0.000 A 
BRANCH   2   9
ATOM      8  C   UNL     1      -0.623  11.123  19.112  0.00  0.00    +0.000 C 
ATOM      9  O   UNL     1       0.592  10.865  19.797  0.00  0.00    +0.000 OA
ENDBRANCH   2   9
ENDBRANCH   1   5
BRANCH   1  10
ATOM     10  N   UNL     1       3.653   5.467  18.427  0.00  0.00    +0.000 N 
ATOM     11  C   UNL     1       4.790   4.686  18.377  0.00  0.00    +0.000 C 
ATOM     12  O   UNL     1       5.206   4.020  19.313  0.00  0.00    +0.000 OA
ATOM     13  H   UNL     1       3.599   6.246  17.777  0.00  0.00    +0.000 HD
BRANCH  11  14
ATOM     14  C   UNL     1       5.501   4.670  17.070  0.00  0.00    +0.000 A 
ATOM     15  C   UNL     1       4.828   4.195  15.931  0.00  0.00    +0.000 A 
ATOM     16  C   UNL     1       5.486   4.098  14.700  0.00  0.00    +0.000 A 
ATOM     17  C   UNL     1       6.826   4.462  14.589  0.00  0.00    +0.000 A 
ATOM     18  C   UNL     1       7.516   4.921  15.710  0.00  0.00    +0.000 A 
ATOM     19  C   UNL     1       6.850   5.017  16.942  0.00  0.00    +0.000 A 
BRANCH  19  20
ATOM     20  N   UNL     1       7.600   5.541  18.063  0.00  0.00    +0.000 N 
ATOM     21  O   UNL     1       7.646   6.771  18.187  0.00  0.00    +0.000 OA
ATOM     22  O   UNL     1       8.240   4.719  18.742  0.00  0.00    +0.000 OA
ENDBRANCH  19  20
ENDBRANCH  11  14
ENDBRANCH   1  10
BRANCH   1  23
ATOM     23  C   UNL     1       1.829   4.415  19.757  0.00  0.00    +0.000 C 
BRANCH  23  24
ATOM     24  C   UNL     1       1.504   3.753  18.449  0.00  0.00    +0.000 C 
ATOM     25  O   UNL     1       1.213   4.334  17.415  0.00  0.00    +0.000 OA
BRANCH  24  26
ATOM     26  O   UNL     1       1.604   2.403  18.523  0.00  0.00    +0.000 OA
ATOM     27  H   UNL     1       0.739   1.944  18.546  0.00  0.00    +0.000 HD
ENDBRANCH  24  26
ENDBRANCH  23  24
ENDBRANCH   1  23
TORSDOF 8
ENDMDL
MODEL 5
REMARK VINA RESULT:      -7.5      3.141      7.366
REMARK  Name = 
REMARK  9 active torsions:
REMARK  status: ('A' for Active; 'I' for Inactive)
REMARK    1  A    between atoms: C_1  and  O_2
REMARK    2  A    between atoms: O_2  and  C_3
REMARK    3  A    between atoms: C_6  and  C_7
REMARK    4  A    between atoms: C_7  and  C_8
REMARK    5  A    between atoms: C_7  and  N_12
REMARK    6  A    between atoms: C_8  and  C_9
REMARK    7  A    between atoms: C_9  and  O_11
REMARK    8  A    between atoms: C_13  and  C_15
REMARK    9  A    between atoms: C_20  and  N_21
REMARK                            x       y       z     vdW  Elec       q    Type
REMARK                         _______ _______ _______ _____ _____    ______ ____
ROOT
ATOM      1  C   UNL     1       2.799   5.800  19.259  0.00  0.00    +0.000 C 
ENDROOT
BRANCH   1   5
ATOM      2  C   UNL     1       1.038   9.786  19.480  0.00  0.00    +0.000 A 
ATOM      3  C   UNL     1       1.060   8.965  20.601  0.00  0.00    +0.000 A 
ATOM      4  C   UNL     1       1.657   7.704  20.550  0.00  0.00    +0.000 A 
ATOM      5  C   UNL     1       2.231   7.218  19.365  0.00  0.00    +0.000 A 
ATOM      6  C   UNL     1       2.226   8.070  18.246  0.00  0.00    +0.000 A 
ATOM      7  C   UNL     1       1.632   9.342  18.301  0.00  0.00    +0.000 A 
BRANCH   2   9
ATOM      8  C   UNL     1       0.061  11.322  20.996  0.00  0.00    +0.000 C 
ATOM      9  O   UNL     1       0.357  10.956  19.658  0.00  0.00    +0.000 OA
ENDBRANCH   2   9
ENDBRANCH   1   5
BRANCH   1  10
ATOM     10  N   UNL     1       3.696   5.675  18.110  0.00  0.00    +0.000 N 
ATOM     11  C   UNL     1       4.634   4.672  17.972  0.00  0.00    +0.000 C 
ATOM     12  O   UNL     1       4.813   3.784  18.792  0.00  0.00    +0.000 OA
ATOM     13  H   UNL     1       3.869   6.541  17.608  0.00  0.00    +0.000 HD
BRANCH  11  14
ATOM     14  C   UNL     1       5.430   4.706  16.716  0.00  0.00    +0.000 A 
ATOM     15  C   UNL     1       4.826   4.307  15.511  0.00  0.00    +0.000 A 
ATOM     16  C   UNL     1       5.562   4.259  14.323  0.00  0.00    +0.000 A 
ATOM     17  C   UNL     1       6.914   4.595  14.319  0.00  0.00    +0.000 A 
ATOM     18  C   UNL     1       7.537   4.979  15.507  0.00  0.00    +0.000 A 
ATOM     19  C   UNL     1       6.791   5.027  16.695  0.00  0.00    +0.000 A 
BRANCH  19  20
ATOM     20  N   UNL     1       7.476   5.473  17.890  0.00  0.00    +0.000 N 
ATOM     21  O   UNL     1       7.552   6.694  18.075  0.00  0.00    +0.000 OA
ATOM     22  O   UNL     1       8.039   4.600  18.573  0.00  0.00    +0.000 OA
ENDBRANCH  19  20
ENDBRANCH  11  14
ENDBRANCH   1  10
BRANCH   1  23
ATOM     23  C   UNL     1       1.729   4.697  19.284  0.00  0.00    +0.000 C 
BRANCH  23  24
ATOM     24  C   UNL     1       1.604   4.025  20.621  0.00  0.00    +0.000 C 
ATOM     25  O   UNL     1       2.312   4.244  21.592  0.00  0.00    +0.000 OA
BRANCH  24  26
ATOM     26  O   UNL     1       0.572   3.148  20.655  0.00  0.00    +0.000 OA
ATOM     27  H   UNL     1       0.795   2.291  21.072  0.00  0.00    +0.000 HD
ENDBRANCH  24  26
ENDBRANCH  23  24
ENDBRANCH   1  23
TORSDOF 8
ENDMDL
MODEL 6
REMARK VINA RESULT:      -7.5      3.115      7.382
REMARK  Name = 
REMARK  9 active torsions:
REMARK  status: ('A' for Active; 'I' for Inactive)
REMARK    1  A    between atoms: C_1  and  O_2
REMARK    2  A    between atoms: O_2  and  C_3
REMARK    3  A    between atoms: C_6  and  C_7
REMARK    4  A    between atoms: C_7  and  C_8
REMARK    5  A    between atoms: C_7  and  N_12
REMARK    6  A    between atoms: C_8  and  C_9
REMARK    7  A    between atoms: C_9  and  O_11
REMARK    8  A    between atoms: C_13  and  C_15
REMARK    9  A    between atoms: C_20  and  N_21
REMARK                            x       y       z     vdW  Elec       q    Type
REMARK                         _______ _______ _______ _____ _____    ______ ____
ROOT
ATOM      1  C   UNL     1       2.822   5.969  19.441  0.00  0.00    +0.000 C 
ENDROOT
BRANCH   1   5
ATOM      2  C   UNL     1       0.901   9.883  19.266  0.00  0.00    +0.000 A 
ATOM      3  C   UNL     1       0.928   9.166  20.457  0.00  0.00    +0.000 A 
ATOM      4  C   UNL     1       1.575   7.932  20.531  0.00  0.00    +0.000 A 
ATOM      5  C   UNL     1       2.196   7.367  19.407  0.00  0.00    +0.000 A 
ATOM      6  C   UNL     1       2.186   8.115  18.216  0.00  0.00    +0.000 A 
ATOM      7  C   UNL     1       1.542   9.362  18.145  0.00  0.00    +0.000 A 
BRANCH   2   9
ATOM      8  C   UNL     1      -0.474  11.318  20.556  0.00  0.00    +0.000 C 
ATOM      9  O   UNL     1       0.171  11.035  19.325  0.00  0.00    +0.000 OA
ENDBRANCH   2   9
ENDBRANCH   1   5
BRANCH   1  10
ATOM     10  N   UNL     1       3.664   5.739  18.265  0.00  0.00    +0.000 N 
ATOM     11  C   UNL     1       4.901   5.130  18.312  0.00  0.00    +0.000 C 
ATOM     12  O   UNL     1       5.424   4.718  19.338  0.00  0.00    +0.000 OA
ATOM     13  H   UNL     1       3.487   6.366  17.485  0.00  0.00    +0.000 HD
BRANCH  11  14
ATOM     14  C   UNL     1       5.586   4.965  17.003  0.00  0.00    +0.000 A 
ATOM     15  C   UNL     1       5.122   3.988  16.105  0.00  0.00    +0.000 A 
ATOM     16  C   UNL     1       5.783   3.756  14.895  0.00  0.00    +0.000 A 
ATOM     17  C   UNL     1       6.924   4.485  14.566  0.00  0.00    +0.000 A 
ATOM     18  C   UNL     1       7.410   5.449  15.448  0.00  0.00    +0.000 A 
ATOM     19  C   UNL     1       6.740   5.677  16.661  0.00  0.00    +0.000 A 
BRANCH  19  20
ATOM     20  N   UNL     1       7.262   6.719  17.521  0.00  0.00    +0.000 N 
ATOM     21  O   UNL     1       7.034   7.890  17.192  0.00  0.00    +0.000 OA
ATOM     22  O   UNL     1       7.999   6.358  18.454  0.00  0.00    +0.000 OA
ENDBRANCH  19  20
ENDBRANCH  11  14
ENDBRANCH   1  10
BRANCH   1  23
ATOM     23  C   UNL     1       1.806   4.837  19.658  0.00  0.00    +0.000 C 
BRANCH  23  24
ATOM     24  C   UNL     1       1.812   3.818  18.555  0.00  0.00    +0.000 C 
ATOM     25  O   UNL     1       2.324   2.711  18.617  0.00  0.00    +0.000 OA
BRANCH  24  26
ATOM     26  O   UNL     1       1.140   4.250  17.460  0.00  0.00    +0.000 OA
ATOM     27  H   UNL     1       0.666   5.096  17.596  0.00  0.00    +0.000 HD
ENDBRANCH  24  26
ENDBRANCH  23  24
ENDBRANCH   1  23
TORSDOF 8
ENDMDL
MODEL 7
REMARK VINA RESULT:      -7.5      2.971      7.304
REMARK  Name = 
REMARK  9 active torsions:
REMARK  status: ('A' for Active; 'I' for Inactive)
REMARK    1  A    between atoms: C_1  and  O_2
REMARK    2  A    between atoms: O_2  and  C_3
REMARK    3  A    between atoms: C_6  and  C_7
REMARK    4  A    between atoms: C_7  and  C_8
REMARK    5  A    between atoms: C_7  and  N_12
REMARK    6  A    between atoms: C_8  and  C_9
REMARK    7  A    between atoms: C_9  and  O_11
REMARK    8  A    between atoms: C_13  and  C_15
REMARK    9  A    between atoms: C_20  and  N_21
REMARK                            x       y       z     vdW  Elec       q    Type
REMARK                         _______ _______ _______ _____ _____    ______ ____
ROOT
ATOM      1  C   UNL     1       2.932   5.775  19.674  0.00  0.00    +0.000 C 
ENDROOT
BRANCH   1   5
ATOM      2  C   UNL     1       0.916   9.642  19.562  0.00  0.00    +0.000 A 
ATOM      3  C   UNL     1       0.908   8.880  20.725  0.00  0.00    +0.000 A 
ATOM      4  C   UNL     1       1.585   7.660  20.781  0.00  0.00    +0.000 A 
ATOM      5  C   UNL     1       2.271   7.156  19.665  0.00  0.00    +0.000 A 
ATOM      6  C   UNL     1       2.293   7.950  18.505  0.00  0.00    +0.000 A 
ATOM      7  C   UNL     1       1.619   9.182  18.453  0.00  0.00    +0.000 A 
BRANCH   2   9
ATOM      8  C   UNL     1      -1.139  10.705  19.049  0.00  0.00    +0.000 C 
ATOM      9  O   UNL     1       0.153  10.773  19.632  0.00  0.00    +0.000 OA
ENDBRANCH   2   9
ENDBRANCH   1   5
BRANCH   1  10
ATOM     10  N   UNL     1       3.714   5.556  18.457  0.00  0.00    +0.000 N 
ATOM     11  C   UNL     1       4.977   5.001  18.443  0.00  0.00    +0.000 C 
ATOM     12  O   UNL     1       5.575   4.633  19.443  0.00  0.00    +0.000 OA
ATOM     13  H   UNL     1       3.466   6.158  17.676  0.00  0.00    +0.000 HD
BRANCH  11  14
ATOM     14  C   UNL     1       5.592   4.838  17.098  0.00  0.00    +0.000 A 
ATOM     15  C   UNL     1       5.118   3.826  16.246  0.00  0.00    +0.000 A 
ATOM     16  C   UNL     1       5.718   3.597  15.004  0.00  0.00    +0.000 A 
ATOM     17  C   UNL     1       6.807   4.364  14.597  0.00  0.00    +0.000 A 
ATOM     18  C   UNL     1       7.304   5.363  15.434  0.00  0.00    +0.000 A 
ATOM     19  C   UNL     1       6.696   5.588  16.679  0.00  0.00    +0.000 A 
BRANCH  19  20
ATOM     20  N   UNL     1       7.223   6.666  17.489  0.00  0.00    +0.000 N 
ATOM     21  O   UNL     1       7.945   6.354  18.445  0.00  0.00    +0.000 OA
ATOM     22  O   UNL     1       6.811   7.811  17.235  0.00  0.00    +0.000 OA
ENDBRANCH  19  20
ENDBRANCH  11  14
ENDBRANCH   1  10
BRANCH   1  23
ATOM     23  C   UNL     1       1.958   4.620  19.954  0.00  0.00    +0.000 C 
BRANCH  23  24
ATOM     24  C   UNL     1       2.512   3.598  20.906  0.00  0.00    +0.000 C 
ATOM     25  O   UNL     1       2.179   3.465  22.074  0.00  0.00    +0.000 OA
BRANCH  24  26
ATOM     26  O   UNL     1       3.421   2.789  20.310  0.00  0.00    +0.000 OA
ATOM     27  H   UNL     1       3.062   2.279  19.555  0.00  0.00    +0.000 HD
ENDBRANCH  24  26
ENDBRANCH  23  24
ENDBRANCH   1  23
TORSDOF 8
ENDMDL
MODEL 8
REMARK VINA RESULT:      -7.4      0.823      1.276
REMARK  Name = 
REMARK  9 active torsions:
REMARK  status: ('A' for Active; 'I' for Inactive)
REMARK    1  A    between atoms: C_1  and  O_2
REMARK    2  A    between atoms: O_2  and  C_3
REMARK    3  A    between atoms: C_6  and  C_7
REMARK    4  A    between atoms: C_7  and  C_8
REMARK    5  A    between atoms: C_7  and  N_12
REMARK    6  A    between atoms: C_8  and  C_9
REMARK    7  A    between atoms: C_9  and  O_11
REMARK    8  A    between atoms: C_13  and  C_15
REMARK    9  A    between atoms: C_20  and  N_21
REMARK                            x       y       z     vdW  Elec       q    Type
REMARK                         _______ _______ _______ _____ _____    ______ ____
ROOT
ATOM      1  C   UNL     1       6.154   5.652  17.095  0.00  0.00    +0.000 C 
ENDROOT
BRANCH   1   5
ATOM      2  C   UNL     1       6.439   3.894  13.111  0.00  0.00    +0.000 A 
ATOM      3  C   UNL     1       5.323   3.657  13.905  0.00  0.00    +0.000 A 
ATOM      4  C   UNL     1       5.206   4.248  15.164  0.00  0.00    +0.000 A 
ATOM      5  C   UNL     1       6.216   5.077  15.676  0.00  0.00    +0.000 A 
ATOM      6  C   UNL     1       7.326   5.330  14.852  0.00  0.00    +0.000 A 
ATOM      7  C   UNL     1       7.439   4.742  13.580  0.00  0.00    +0.000 A 
BRANCH   2   9
ATOM      8  C   UNL     1       5.225   2.598  11.543  0.00  0.00    +0.000 C 
ATOM      9  O   UNL     1       6.450   3.193  11.940  0.00  0.00    +0.000 OA
ENDBRANCH   2   9
ENDBRANCH   1   5
BRANCH   1  10
ATOM     10  N   UNL     1       4.869   5.353  17.729  0.00  0.00    +0.000 N 
ATOM     11  C   UNL     1       4.716   4.469  18.778  0.00  0.00    +0.000 C 
ATOM     12  O   UNL     1       5.635   3.845  19.287  0.00  0.00    +0.000 OA
ATOM     13  H   UNL     1       4.055   5.520  17.144  0.00  0.00    +0.000 HD
BRANCH  11  14
ATOM     14  C   UNL     1       3.331   4.326  19.300  0.00  0.00    +0.000 A 
ATOM     15  C   UNL     1       2.877   5.214  20.290  0.00  0.00    +0.000 A 
ATOM     16  C   UNL     1       1.606   5.067  20.855  0.00  0.00    +0.000 A 
ATOM     17  C   UNL     1       0.774   4.025  20.452  0.00  0.00    +0.000 A 
ATOM     18  C   UNL     1       1.210   3.123  19.482  0.00  0.00    +0.000 A 
ATOM     19  C   UNL     1       2.487   3.278  18.918  0.00  0.00    +0.000 A 
BRANCH  19  20
ATOM     20  N   UNL     1       2.873   2.340  17.885  0.00  0.00    +0.000 N 
ATOM     21  O   UNL     1       3.597   1.395  18.222  0.00  0.00    +0.000 OA
ATOM     22  O   UNL     1       2.550   2.626  16.720  0.00  0.00    +0.000 OA
ENDBRANCH  19  20
ENDBRANCH  11  14
ENDBRANCH   1  10
BRANCH   1  23
ATOM     23  C   UNL     1       6.510   7.144  17.177  0.00  0.00    +0.000 C 
BRANCH  23  24
ATOM     24  C   UNL     1       7.711   7.417  18.036  0.00  0.00    +0.000 C 
ATOM     25  O   UNL     1       8.204   6.634  18.834  0.00  0.00    +0.000 OA
BRANCH  24  26
ATOM     26  O   UNL     1       8.234   8.645  17.803  0.00  0.00    +0.000 OA
ATOM     27  H   UNL     1       8.305   8.871  16.852  0.00  0.00    +0.000 HD
ENDBRANCH  24  26
ENDBRANCH  23  24
ENDBRANCH   1  23
TORSDOF 8
ENDMDL
MODEL 9
REMARK VINA RESULT:      -7.4      3.174      7.335
REMARK  Name = 
REMARK  9 active torsions:
REMARK  status: ('A' for Active; 'I' for Inactive)
REMARK    1  A    between atoms: C_1  and  O_2
REMARK    2  A    between atoms: O_2  and  C_3
REMARK    3  A    between atoms: C_6  and  C_7
REMARK    4  A    between atoms: C_7  and  C_8
REMARK    5  A    between atoms: C_7  and  N_12
REMARK    6  A    between atoms: C_8  and  C_9
REMARK    7  A    between atoms: C_9  and  O_11
REMARK    8  A    between atoms: C_13  and  C_15
REMARK    9  A    between atoms: C_20  and  N_21
REMARK                            x       y       z     vdW  Elec       q    Type
REMARK                         _______ _______ _______ _____ _____    ______ ____
ROOT
ATOM      1  C   UNL     1       2.770   6.085  19.475  0.00  0.00    +0.000 C 
ENDROOT
BRANCH   1   5
ATOM      2  C   UNL     1       1.024  10.078  19.262  0.00  0.00    +0.000 A 
ATOM      3  C   UNL     1       1.593   9.499  18.134  0.00  0.00    +0.000 A 
ATOM      4  C   UNL     1       2.116   8.206  18.183  0.00  0.00    +0.000 A 
ATOM      5  C   UNL     1       2.109   7.463  19.373  0.00  0.00    +0.000 A 
ATOM      6  C   UNL     1       1.506   8.050  20.500  0.00  0.00    +0.000 A 
ATOM      7  C   UNL     1       0.971   9.348  20.446  0.00  0.00    +0.000 A 
BRANCH   2   9
ATOM      8  C   UNL     1      -0.704  11.563  18.614  0.00  0.00    +0.000 C 
ATOM      9  O   UNL     1       0.620  11.370  19.083  0.00  0.00    +0.000 OA
ENDBRANCH   2   9
ENDBRANCH   1   5
BRANCH   1  10
ATOM     10  N   UNL     1       3.612   5.817  18.308  0.00  0.00    +0.000 N 
ATOM     11  C   UNL     1       4.877   5.272  18.382  0.00  0.00    +0.000 C 
ATOM     12  O   UNL     1       5.427   4.955  19.427  0.00  0.00    +0.000 OA
ATOM     13  H   UNL     1       3.399   6.380  17.490  0.00  0.00    +0.000 HD
BRANCH  11  14
ATOM     14  C   UNL     1       5.559   5.052  17.079  0.00  0.00    +0.000 A 
ATOM     15  C   UNL     1       5.072   4.061  16.209  0.00  0.00    +0.000 A 
ATOM     16  C   UNL     1       5.728   3.777  15.008  0.00  0.00    +0.000 A 
ATOM     17  C   UNL     1       6.886   4.469  14.659  0.00  0.00    +0.000 A 
ATOM     18  C   UNL     1       7.395   5.446  15.514  0.00  0.00    +0.000 A 
ATOM     19  C   UNL     1       6.731   5.726  16.718  0.00  0.00    +0.000 A 
BRANCH  19  20
ATOM     20  N   UNL     1       7.277   6.778  17.548  0.00  0.00    +0.000 N 
ATOM     21  O   UNL     1       7.064   7.945  17.194  0.00  0.00    +0.000 OA
ATOM     22  O   UNL     1       8.019   6.428  18.481  0.00  0.00    +0.000 OA
ENDBRANCH  19  20
ENDBRANCH  11  14
ENDBRANCH   1  10
BRANCH   1  23
ATOM     23  C   UNL     1       1.784   4.941  19.755  0.00  0.00    +0.000 C 
BRANCH  23  24
ATOM     24  C   UNL     1       1.847   3.843  18.731  0.00  0.00    +0.000 C 
ATOM     25  O   UNL     1       2.424   2.776  18.873  0.00  0.00    +0.000 OA
BRANCH  24  26
ATOM     26  O   UNL     1       1.145   4.150  17.613  0.00  0.00    +0.000 OA
ATOM     27  H   UNL     1       0.606   3.409  17.269  0.00  0.00    +0.000 HD
ENDBRANCH  24  26
ENDBRANCH  23  24
ENDBRANCH   1  23
TORSDOF 8
ENDMDL
