MODEL 1
REMARK VINA RESULT:      -6.8      0.000      0.000
REMARK  Name = 
REMARK  9 active torsions:
REMARK  status: ('A' for Active; 'I' for Inactive)
REMARK    1  A    between atoms: C_1  and  N_2
REMARK    2  A    between atoms: N_2  and  C_3
REMARK    3  A    between atoms: N_2  and  C_4
REMARK    4  A    between atoms: C_4  and  C_5
REMARK    5  A    between atoms: C_5  and  N_6
REMARK    6  A    between atoms: C_7  and  C_9
REMARK    7  A    between atoms: C_19  and  O_20
REMARK    8  A    between atoms: O_20  and  C_21
REMARK    9  A    between atoms: C_21  and  C_22
REMARK                            x       y       z     vdW  Elec       q    Type
REMARK                         _______ _______ _______ _____ _____    ______ ____
ROOT
ATOM      1  C   UNL     1       3.087   4.770  18.691  0.00  0.00    +0.000 A 
ATOM      2  C   UNL     1       3.095   3.450  19.156  0.00  0.00    +0.000 A 
ATOM      3  C   UNL     1       2.429   3.118  20.332  0.00  0.00    +0.000 A 
ATOM      4  C   UNL     1       1.778   4.116  21.032  0.00  0.00    +0.000 A 
ATOM      5  C   UNL     1       1.758   5.428  20.580  0.00  0.00    +0.000 A 
ATOM      6  N   UNL     1       1.136   6.338  21.328  0.00  0.00    +0.000 NA
ATOM      7  C   UNL     1       1.140   7.596  20.913  0.00  0.00    +0.000 A 
ATOM      8  C   UNL     1       0.546   8.530  21.726  0.00  0.00    +0.000 A 
ATOM      9  C   UNL     1       0.503   9.878  21.364  0.00  0.00    +0.000 A 
ATOM     10  C   UNL     1       1.064  10.335  20.144  0.00  0.00    +0.000 A 
ATOM     11  C   UNL     1       1.059  11.693  19.672  0.00  0.00    +0.000 A 
ATOM     12  C   UNL     1       1.661  12.035  18.454  0.00  0.00    +0.000 A 
ATOM     13  C   UNL     1       2.220  11.078  17.643  0.00  0.00    +0.000 A 
ATOM     14  C   UNL     1       2.232   9.763  18.072  0.00  0.00    +0.000 A 
ATOM     15  C   UNL     1       1.675   9.365  19.309  0.00  0.00    +0.000 A 
ATOM     16  C   UNL     1       1.728   8.001  19.697  0.00  0.00    +0.000 A 
ATOM     17  N   UNL     1       2.343   7.069  18.939  0.00  0.00    +0.000 NA
ATOM     18  C   UNL     1       2.392   5.787  19.376  0.00  0.00    +0.000 A 
ENDROOT
BRANCH   1  20
ATOM     19  N   UNL     1       4.457   6.319  17.406  0.00  0.00    +0.000 N 
ATOM     20  C   UNL     1       3.869   5.076  17.473  0.00  0.00    +0.000 C 
ATOM     21  O   UNL     1       3.952   4.237  16.582  0.00  0.00    +0.000 OA
ATOM     22  H   UNL     1       4.476   6.885  18.250  0.00  0.00    +0.000 HD
BRANCH  19  23
ATOM     23  C   UNL     1       5.279   6.694  16.283  0.00  0.00    +0.000 C 
BRANCH  23  24
ATOM     24  C   UNL     1       6.771   6.752  16.664  0.00  0.00    +0.000 C 
BRANCH  24  26
ATOM     25  C   UNL     1       7.569   4.553  17.278  0.00  0.00    +0.000 C 
ATOM     26  N   UNL     1       7.525   5.564  16.217  0.00  0.00    +0.000 NA
ATOM     27  C   UNL     1       6.905   4.982  15.022  0.00  0.00    +0.000 C 
ENDBRANCH  24  26
ENDBRANCH  23  24
ENDBRANCH  19  23
ENDBRANCH   1  20
BRANCH  11  28
ATOM     28  O   UNL     1       0.435  12.676  20.411  0.00  0.00    +0.000 OA
BRANCH  28  29
ATOM     29  C   UNL     1       0.995  13.986  20.167  0.00  0.00    +0.000 C 
BRANCH  29  30
ATOM     30  C   UNL     1       1.937  14.347  21.304  0.00  0.00    +0.000 C 
ATOM     31  N   UNL     1       2.718  14.648  22.247  0.00  0.00    +0.000 NA
ENDBRANCH  29  30
ENDBRANCH  28  29
ENDBRANCH  11  28
TORSDOF 7
ENDMDL
MODEL 2
REMARK VINA RESULT:      -6.8      2.494      7.678
REMARK  Name = 
REMARK  9 active torsions:
REMARK  status: ('A' for Active; 'I' for Inactive)
REMARK    1  A    between atoms: C_1  and  N_2
REMARK    2  A    between atoms: N_2  and  C_3
REMARK    3  A    between atoms: N_2  and  C_4
REMARK    4  A    between atoms: C_4  and  C_5
REMARK    5  A    between atoms: C_5  and  N_6
REMARK    6  A    between atoms: C_7  and  C_9
REMARK    7  A    between atoms: C_19  and  O_20
REMARK    8  A    between atoms: O_20  and  C_21
REMARK    9  A    between atoms: C_21  and  C_22
REMARK                            x       y       z     vdW  Elec       q    Type
REMARK                         _______ _______ _______ _____ _____    ______ ____
ROOT
ATOM      1  C   UNL     1       0.309  11.171  20.457  0.00  0.00    +0.000 A 
ATOM      2  C   UNL     1      -0.515  11.766  21.420  0.00  0.00    +0.000 A 
ATOM      3  C   UNL     1      -0.953  11.030  22.517  0.00  0.00    +0.000 A 
ATOM      4  C   UNL     1      -0.572   9.706  22.624  0.00  0.00    +0.000 A 
ATOM      5  C   UNL     1       0.248   9.106  21.680  0.00  0.00    +0.000 A 
ATOM      6  N   UNL     1       0.545   7.816  21.837  0.00  0.00    +0.000 NA
ATOM      7  C   UNL     1       1.304   7.234  20.921  0.00  0.00    +0.000 A 
ATOM      8  C   UNL     1       1.549   5.891  21.068  0.00  0.00    +0.000 A 
ATOM      9  C   UNL     1       2.341   5.198  20.150  0.00  0.00    +0.000 A 
ATOM     10  C   UNL     1       2.927   5.852  19.036  0.00  0.00    +0.000 A 
ATOM     11  C   UNL     1       3.767   5.237  18.045  0.00  0.00    +0.000 A 
ATOM     12  C   UNL     1       4.279   5.980  16.972  0.00  0.00    +0.000 A 
ATOM     13  C   UNL     1       4.047   7.329  16.865  0.00  0.00    +0.000 A 
ATOM     14  C   UNL     1       3.245   7.945  17.809  0.00  0.00    +0.000 A 
ATOM     15  C   UNL     1       2.670   7.240  18.891  0.00  0.00    +0.000 A 
ATOM     16  C   UNL     1       1.848   7.928  19.821  0.00  0.00    +0.000 A 
ATOM     17  N   UNL     1       1.554   9.237  19.678  0.00  0.00    +0.000 NA
ATOM     18  C   UNL     1       0.736   9.834  20.579  0.00  0.00    +0.000 A 
ENDROOT
BRANCH   1  20
ATOM     19  N   UNL     1       2.011  12.346  19.172  0.00  0.00    +0.000 N 
ATOM     20  C   UNL     1       0.687  11.983  19.280  0.00  0.00    +0.000 C 
ATOM     21  O   UNL     1      -0.173  12.307  18.468  0.00  0.00    +0.000 OA
ATOM     22  H   UNL     1       2.681  11.900  19.794  0.00  0.00    +0.000 HD
BRANCH  19  23
ATOM     23  C   UNL     1       2.488  13.094  18.037  0.00  0.00    +0.000 C 
BRANCH  23  24
ATOM     24  C   UNL     1       2.513  14.608  18.321  0.00  0.00    +0.000 C 
BRANCH  24  26
ATOM     25  C   UNL     1       3.261  16.781  17.568  0.00  0.00    +0.000 C 
ATOM     26  N   UNL     1       3.487  15.335  17.483  0.00  0.00    +0.000 NA
ATOM     27  C   UNL     1       4.857  15.035  17.911  0.00  0.00    +0.000 C 
ENDBRANCH  24  26
ENDBRANCH  23  24
ENDBRANCH  19  23
ENDBRANCH   1  20
BRANCH  11  28
ATOM     28  O   UNL     1       4.100   3.903  18.156  0.00  0.00    +0.000 OA
BRANCH  28  29
ATOM     29  C   UNL     1       3.336   3.070  17.256  0.00  0.00    +0.000 C 
BRANCH  29  30
ATOM     30  C   UNL     1       2.170   2.455  18.013  0.00  0.00    +0.000 C 
ATOM     31  N   UNL     1       1.202   1.945  18.641  0.00  0.00    +0.000 NA
ENDBRANCH  29  30
ENDBRANCH  28  29
ENDBRANCH  11  28
TORSDOF 7
ENDMDL
MODEL 3
REMARK VINA RESULT:      -6.7      1.456      1.583
REMARK  Name = 
REMARK  9 active torsions:
REMARK  status: ('A' for Active; 'I' for Inactive)
REMARK    1  A    between atoms: C_1  and  N_2
REMARK    2  A    between atoms: N_2  and  C_3
REMARK    3  A    between atoms: N_2  and  C_4
REMARK    4  A    between atoms: C_4  and  C_5
REMARK    5  A    between atoms: C_5  and  N_6
REMARK    6  A    between atoms: C_7  and  C_9
REMARK    7  A    between atoms: C_19  and  O_20
REMARK    8  A    between atoms: O_20  and  C_21
REMARK    9  A    between atoms: C_21  and  C_22
REMARK                            x       y       z     vdW  Elec       q    Type
REMARK                         _______ _______ _______ _____ _____    ______ ____
ROOT
ATOM      1  C   UNL     1       3.141   4.957  18.778  0.00  0.00    +0.000 A 
ATOM      2  C   UNL     1       3.158   3.637  19.242  0.00  0.00    +0.000 A 
ATOM      3  C   UNL     1       2.462   3.292  20.396  0.00  0.00    +0.000 A 
ATOM      4  C   UNL     1       1.771   4.277  21.076  0.00  0.00    +0.000 A 
ATOM      5  C   UNL     1       1.743   5.588  20.625  0.00  0.00    +0.000 A 
ATOM      6  N   UNL     1       1.081   6.487  21.354  0.00  0.00    +0.000 NA
ATOM      7  C   UNL     1       1.077   7.745  20.940  0.00  0.00    +0.000 A 
ATOM      8  C   UNL     1       0.441   8.667  21.735  0.00  0.00    +0.000 A 
ATOM      9  C   UNL     1       0.386  10.015  21.374  0.00  0.00    +0.000 A 
ATOM     10  C   UNL     1       0.976  10.483  20.172  0.00  0.00    +0.000 A 
ATOM     11  C   UNL     1       0.963  11.842  19.702  0.00  0.00    +0.000 A 
ATOM     12  C   UNL     1       1.596  12.196  18.503  0.00  0.00    +0.000 A 
ATOM     13  C   UNL     1       2.197  11.251  17.709  0.00  0.00    +0.000 A 
ATOM     14  C   UNL     1       2.219   9.936  18.137  0.00  0.00    +0.000 A 
ATOM     15  C   UNL     1       1.630   9.526  19.355  0.00  0.00    +0.000 A 
ATOM     16  C   UNL     1       1.695   8.162  19.744  0.00  0.00    +0.000 A 
ATOM     17  N   UNL     1       2.350   7.242  19.005  0.00  0.00    +0.000 NA
ATOM     18  C   UNL     1       2.408   5.961  19.442  0.00  0.00    +0.000 A 
ENDROOT
BRANCH   1  20
ATOM     19  N   UNL     1       4.705   6.432  17.635  0.00  0.00    +0.000 N 
ATOM     20  C   UNL     1       3.955   5.278  17.586  0.00  0.00    +0.000 C 
ATOM     21  O   UNL     1       3.924   4.531  16.614  0.00  0.00    +0.000 OA
ATOM     22  H   UNL     1       4.801   6.901  18.532  0.00  0.00    +0.000 HD
BRANCH  19  23
ATOM     23  C   UNL     1       5.569   6.807  16.544  0.00  0.00    +0.000 C 
BRANCH  23  24
ATOM     24  C   UNL     1       7.055   6.716  16.938  0.00  0.00    +0.000 C 
BRANCH  24  26
ATOM     25  C   UNL     1       7.593   4.456  17.609  0.00  0.00    +0.000 C 
ATOM     26  N   UNL     1       7.683   5.444  16.529  0.00  0.00    +0.000 NA
ATOM     27  C   UNL     1       7.026   4.909  15.332  0.00  0.00    +0.000 C 
ENDBRANCH  24  26
ENDBRANCH  23  24
ENDBRANCH  19  23
ENDBRANCH   1  20
BRANCH  11  28
ATOM     28  O   UNL     1       0.299  12.813  20.422  0.00  0.00    +0.000 OA
BRANCH  28  29
ATOM     29  C   UNL     1      -0.693  13.503  19.629  0.00  0.00    +0.000 C 
BRANCH  29  30
ATOM     30  C   UNL     1      -1.834  12.549  19.313  0.00  0.00    +0.000 C 
ATOM     31  N   UNL     1      -2.780  11.757  19.051  0.00  0.00    +0.000 NA
ENDBRANCH  29  30
ENDBRANCH  28  29
ENDBRANCH  11  28
TORSDOF 7
ENDMDL
MODEL 4
REMARK VINA RESULT:      -6.6      6.590     10.413
REMARK  Name = 
REMARK  9 active torsions:
REMARK  status: ('A' for Active; 'I' for Inactive)
REMARK    1  A    between atoms: C_1  and  N_2
REMARK    2  A    between atoms: N_2  and  C_3
REMARK    3  A    between atoms: N_2  and  C_4
REMARK    4  A    between atoms: C_4  and  C_5
REMARK    5  A    between atoms: C_5  and  N_6
REMARK    6  A    between atoms: C_7  and  C_9
REMARK    7  A    between atoms: C_19  and  O_20
REMARK    8  A    between atoms: O_20  and  C_21
REMARK    9  A    between atoms: C_21  and  C_22
REMARK                            x       y       z     vdW  Elec       q    Type
REMARK                         _______ _______ _______ _____ _____    ______ ____
ROOT
ATOM      1  C   UNL     1      -5.141  13.225  22.856  0.00  0.00    +0.000 A 
ATOM      2  C   UNL     1      -6.002  13.897  23.731  0.00  0.00    +0.000 A 
ATOM      3  C   UNL     1      -7.184  14.458  23.256  0.00  0.00    +0.000 A 
ATOM      4  C   UNL     1      -7.478  14.350  21.910  0.00  0.00    +0.000 A 
ATOM      5  C   UNL     1      -6.635  13.682  21.033  0.00  0.00    +0.000 A 
ATOM      6  N   UNL     1      -6.972  13.649  19.745  0.00  0.00    +0.000 NA
ATOM      7  C   UNL     1      -6.155  13.037  18.901  0.00  0.00    +0.000 A 
ATOM      8  C   UNL     1      -6.488  13.064  17.569  0.00  0.00    +0.000 A 
ATOM      9  C   UNL     1      -5.685  12.442  16.611  0.00  0.00    +0.000 A 
ATOM     10  C   UNL     1      -4.499  11.754  16.975  0.00  0.00    +0.000 A 
ATOM     11  C   UNL     1      -3.613  11.069  16.073  0.00  0.00    +0.000 A 
ATOM     12  C   UNL     1      -2.455  10.435  16.542  0.00  0.00    +0.000 A 
ATOM     13  C   UNL     1      -2.160  10.392  17.883  0.00  0.00    +0.000 A 
ATOM     14  C   UNL     1      -3.000  11.039  18.772  0.00  0.00    +0.000 A 
ATOM     15  C   UNL     1      -4.161  11.728  18.352  0.00  0.00    +0.000 A 
ATOM     16  C   UNL     1      -4.977  12.380  19.313  0.00  0.00    +0.000 A 
ATOM     17  N   UNL     1      -4.651  12.407  20.622  0.00  0.00    +0.000 NA
ATOM     18  C   UNL     1      -5.451  13.074  21.490  0.00  0.00    +0.000 A 
ENDROOT
BRANCH   1  20
ATOM     19  N   UNL     1      -2.719  13.024  22.715  0.00  0.00    +0.000 N 
ATOM     20  C   UNL     1      -3.868  12.709  23.405  0.00  0.00    +0.000 C 
ATOM     21  O   UNL     1      -3.882  12.024  24.422  0.00  0.00    +0.000 OA
ATOM     22  H   UNL     1      -2.779  13.727  21.982  0.00  0.00    +0.000 HD
BRANCH  19  23
ATOM     23  C   UNL     1      -1.424  12.611  23.195  0.00  0.00    +0.000 C 
BRANCH  23  24
ATOM     24  C   UNL     1      -1.058  11.198  22.702  0.00  0.00    +0.000 C 
BRANCH  24  26
ATOM     25  C   UNL     1       0.397  12.208  21.056  0.00  0.00    +0.000 C 
ATOM     26  N   UNL     1      -0.617  11.177  21.293  0.00  0.00    +0.000 NA
ATOM     27  C   UNL     1      -0.061   9.864  20.949  0.00  0.00    +0.000 C 
ENDBRANCH  24  26
ENDBRANCH  23  24
ENDBRANCH  19  23
ENDBRANCH   1  20
BRANCH  11  28
ATOM     28  O   UNL     1      -3.911  11.011  14.727  0.00  0.00    +0.000 OA
BRANCH  28  29
ATOM     29  C   UNL     1      -3.160   9.984  14.042  0.00  0.00    +0.000 C 
BRANCH  29  30
ATOM     30  C   UNL     1      -3.813   9.697  12.700  0.00  0.00    +0.000 C 
ATOM     31  N   UNL     1      -4.354   9.460  11.586  0.00  0.00    +0.000 NA
ENDBRANCH  29  30
ENDBRANCH  28  29
ENDBRANCH  11  28
TORSDOF 7
ENDMDL
MODEL 5
REMARK VINA RESULT:      -6.5      1.647      1.875
REMARK  Name = 
REMARK  9 active torsions:
REMARK  status: ('A' for Active; 'I' for Inactive)
REMARK    1  A    between atoms: C_1  and  N_2
REMARK    2  A    between atoms: N_2  and  C_3
REMARK    3  A    between atoms: N_2  and  C_4
REMARK    4  A    between atoms: C_4  and  C_5
REMARK    5  A    between atoms: C_5  and  N_6
REMARK    6  A    between atoms: C_7  and  C_9
REMARK    7  A    between atoms: C_19  and  O_20
REMARK    8  A    between atoms: O_20  and  C_21
REMARK    9  A    between atoms: C_21  and  C_22
REMARK                            x       y       z     vdW  Elec       q    Type
REMARK                         _______ _______ _______ _____ _____    ______ ____
ROOT
ATOM      1  C   UNL     1       3.406   4.306  18.489  0.00  0.00    +0.000 A 
ATOM      2  C   UNL     1       3.485   2.973  18.909  0.00  0.00    +0.000 A 
ATOM      3  C   UNL     1       2.829   2.564  20.066  0.00  0.00    +0.000 A 
ATOM      4  C   UNL     1       2.115   3.498  20.791  0.00  0.00    +0.000 A 
ATOM      5  C   UNL     1       2.024   4.821  20.384  0.00  0.00    +0.000 A 
ATOM      6  N   UNL     1       1.343   5.668  21.155  0.00  0.00    +0.000 NA
ATOM      7  C   UNL     1       1.279   6.938  20.782  0.00  0.00    +0.000 A 
ATOM      8  C   UNL     1       0.625   7.808  21.620  0.00  0.00    +0.000 A 
ATOM      9  C   UNL     1       0.508   9.163  21.304  0.00  0.00    +0.000 A 
ATOM     10  C   UNL     1       1.053   9.693  20.106  0.00  0.00    +0.000 A 
ATOM     11  C   UNL     1       0.975  11.064  19.680  0.00  0.00    +0.000 A 
ATOM     12  C   UNL     1       1.567  11.481  18.481  0.00  0.00    +0.000 A 
ATOM     13  C   UNL     1       2.187  10.586  17.644  0.00  0.00    +0.000 A 
ATOM     14  C   UNL     1       2.271   9.260  18.029  0.00  0.00    +0.000 A 
ATOM     15  C   UNL     1       1.726   8.789  19.245  0.00  0.00    +0.000 A 
ATOM     16  C   UNL     1       1.854   7.417  19.588  0.00  0.00    +0.000 A 
ATOM     17  N   UNL     1       2.529   6.549  18.806  0.00  0.00    +0.000 NA
ATOM     18  C   UNL     1       2.647   5.257  19.200  0.00  0.00    +0.000 A 
ENDROOT
BRANCH   1  20
ATOM     19  N   UNL     1       4.656   5.988  17.251  0.00  0.00    +0.000 N 
ATOM     20  C   UNL     1       4.180   4.697  17.291  0.00  0.00    +0.000 C 
ATOM     21  O   UNL     1       4.354   3.882  16.391  0.00  0.00    +0.000 OA
ATOM     22  H   UNL     1       4.610   6.541  18.104  0.00  0.00    +0.000 HD
BRANCH  19  23
ATOM     23  C   UNL     1       5.463   6.451  16.150  0.00  0.00    +0.000 C 
BRANCH  23  24
ATOM     24  C   UNL     1       6.955   6.522  16.528  0.00  0.00    +0.000 C 
BRANCH  24  26
ATOM     25  C   UNL     1       7.857   6.197  18.748  0.00  0.00    +0.000 C 
ATOM     26  N   UNL     1       7.185   7.140  17.849  0.00  0.00    +0.000 NA
ATOM     27  C   UNL     1       8.006   8.347  17.715  0.00  0.00    +0.000 C 
ENDBRANCH  24  26
ENDBRANCH  23  24
ENDBRANCH  19  23
ENDBRANCH   1  20
BRANCH  11  28
ATOM     28  O   UNL     1       0.288  11.984  20.445  0.00  0.00    +0.000 OA
BRANCH  28  29
ATOM     29  C   UNL     1      -0.485  12.901  19.639  0.00  0.00    +0.000 C 
BRANCH  29  30
ATOM     30  C   UNL     1      -1.961  12.725  19.957  0.00  0.00    +0.000 C 
ATOM     31  N   UNL     1      -3.186  12.580  20.221  0.00  0.00    +0.000 NA
ENDBRANCH  29  30
ENDBRANCH  28  29
ENDBRANCH  11  28
TORSDOF 7
ENDMDL
MODEL 6
REMARK VINA RESULT:      -6.5      2.151      2.623
REMARK  Name = 
REMARK  9 active torsions:
REMARK  status: ('A' for Active; 'I' for Inactive)
REMARK    1  A    between atoms: C_1  and  N_2
REMARK    2  A    between atoms: N_2  and  C_3
REMARK    3  A    between atoms: N_2  and  C_4
REMARK    4  A    between atoms: C_4  and  C_5
REMARK    5  A    between atoms: C_5  and  N_6
REMARK    6  A    between atoms: C_7  and  C_9
REMARK    7  A    between atoms: C_19  and  O_20
REMARK    8  A    between atoms: O_20  and  C_21
REMARK    9  A    between atoms: C_21  and  C_22
REMARK                            x       y       z     vdW  Elec       q    Type
REMARK                         _______ _______ _______ _____ _____    ______ ____
ROOT
ATOM      1  C   UNL     1       4.130   4.207  18.194  0.00  0.00    +0.000 A 
ATOM      2  C   UNL     1       4.371   2.873  18.541  0.00  0.00    +0.000 A 
ATOM      3  C   UNL     1       3.760   2.321  19.663  0.00  0.00    +0.000 A 
ATOM      4  C   UNL     1       2.929   3.117  20.428  0.00  0.00    +0.000 A 
ATOM      5  C   UNL     1       2.678   4.440  20.093  0.00  0.00    +0.000 A 
ATOM      6  N   UNL     1       1.892   5.151  20.899  0.00  0.00    +0.000 NA
ATOM      7  C   UNL     1       1.675   6.423  20.597  0.00  0.00    +0.000 A 
ATOM      8  C   UNL     1       0.910   7.156  21.471  0.00  0.00    +0.000 A 
ATOM      9  C   UNL     1       0.629   8.502  21.229  0.00  0.00    +0.000 A 
ATOM     10  C   UNL     1       1.114   9.163  20.071  0.00  0.00    +0.000 A 
ATOM     11  C   UNL     1       0.871  10.535  19.721  0.00  0.00    +0.000 A 
ATOM     12  C   UNL     1       1.418  11.090  18.556  0.00  0.00    +0.000 A 
ATOM     13  C   UNL     1       2.151  10.328  17.680  0.00  0.00    +0.000 A 
ATOM     14  C   UNL     1       2.395   9.003  17.992  0.00  0.00    +0.000 A 
ATOM     15  C   UNL     1       1.902   8.399  19.172  0.00  0.00    +0.000 A 
ATOM     16  C   UNL     1       2.196   7.036  19.439  0.00  0.00    +0.000 A 
ATOM     17  N   UNL     1       2.980   6.303  18.621  0.00  0.00    +0.000 NA
ATOM     18  C   UNL     1       3.254   5.016  18.945  0.00  0.00    +0.000 A 
ENDROOT
BRANCH   1  20
ATOM     19  N   UNL     1       5.705   3.901  16.363  0.00  0.00    +0.000 N 
ATOM     20  C   UNL     1       4.860   4.759  17.032  0.00  0.00    +0.000 C 
ATOM     21  O   UNL     1       4.702   5.934  16.721  0.00  0.00    +0.000 OA
ATOM     22  H   UNL     1       5.651   2.909  16.583  0.00  0.00    +0.000 HD
BRANCH  19  23
ATOM     23  C   UNL     1       6.423   4.328  15.189  0.00  0.00    +0.000 C 
BRANCH  23  24
ATOM     24  C   UNL     1       5.581   4.152  13.911  0.00  0.00    +0.000 C 
BRANCH  24  26
ATOM     25  C   UNL     1       5.373   2.908  11.847  0.00  0.00    +0.000 C 
ATOM     26  N   UNL     1       6.310   3.453  12.833  0.00  0.00    +0.000 NA
ATOM     27  C   UNL     1       7.237   4.370  12.162  0.00  0.00    +0.000 C 
ENDBRANCH  24  26
ENDBRANCH  23  24
ENDBRANCH  19  23
ENDBRANCH   1  20
BRANCH  11  28
ATOM     28  O   UNL     1       0.069  11.319  20.524  0.00  0.00    +0.000 OA
BRANCH  28  29
ATOM     29  C   UNL     1      -0.451  12.471  19.825  0.00  0.00    +0.000 C 
BRANCH  29  30
ATOM     30  C   UNL     1      -1.954  12.316  19.654  0.00  0.00    +0.000 C 
ATOM     31  N   UNL     1      -3.200  12.187  19.511  0.00  0.00    +0.000 NA
ENDBRANCH  29  30
ENDBRANCH  28  29
ENDBRANCH  11  28
TORSDOF 7
ENDMDL
MODEL 7
REMARK VINA RESULT:      -6.5      1.808      2.164
REMARK  Name = 
REMARK  9 active torsions:
REMARK  status: ('A' for Active; 'I' for Inactive)
REMARK    1  A    between atoms: C_1  and  N_2
REMARK    2  A    between atoms: N_2  and  C_3
REMARK    3  A    between atoms: N_2  and  C_4
REMARK    4  A    between atoms: C_4  and  C_5
REMARK    5  A    between atoms: C_5  and  N_6
REMARK    6  A    between atoms: C_7  and  C_9
REMARK    7  A    between atoms: C_19  and  O_20
REMARK    8  A    between atoms: O_20  and  C_21
REMARK    9  A    between atoms: C_21  and  C_22
REMARK                            x       y       z     vdW  Elec       q    Type
REMARK                         _______ _______ _______ _____ _____    ______ ____
ROOT
ATOM      1  C   UNL     1       4.326   4.184  18.954  0.00  0.00    +0.000 A 
ATOM      2  C   UNL     1       4.517   2.887  19.444  0.00  0.00    +0.000 A 
ATOM      3  C   UNL     1       3.732   2.411  20.490  0.00  0.00    +0.000 A 
ATOM      4  C   UNL     1       2.777   3.247  21.038  0.00  0.00    +0.000 A 
ATOM      5  C   UNL     1       2.574   4.533  20.558  0.00  0.00    +0.000 A 
ATOM      6  N   UNL     1       1.657   5.288  21.161  0.00  0.00    +0.000 NA
ATOM      7  C   UNL     1       1.481   6.526  20.723  0.00  0.00    +0.000 A 
ATOM      8  C   UNL     1       0.574   7.309  21.394  0.00  0.00    +0.000 A 
ATOM      9  C   UNL     1       0.325   8.624  20.999  0.00  0.00    +0.000 A 
ATOM     10  C   UNL     1       0.992   9.202  19.888  0.00  0.00    +0.000 A 
ATOM     11  C   UNL     1       0.798  10.536  19.390  0.00  0.00    +0.000 A 
ATOM     12  C   UNL     1       1.527  11.009  18.291  0.00  0.00    +0.000 A 
ATOM     13  C   UNL     1       2.404  10.197  17.616  0.00  0.00    +0.000 A 
ATOM     14  C   UNL     1       2.605   8.907  18.072  0.00  0.00    +0.000 A 
ATOM     15  C   UNL     1       1.927   8.387  19.198  0.00  0.00    +0.000 A 
ATOM     16  C   UNL     1       2.184   7.057  19.622  0.00  0.00    +0.000 A 
ATOM     17  N   UNL     1       3.101   6.280  19.009  0.00  0.00    +0.000 NA
ATOM     18  C   UNL     1       3.328   5.029  19.479  0.00  0.00    +0.000 A 
ENDROOT
BRANCH   1  20
ATOM     19  N   UNL     1       4.704   4.776  16.623  0.00  0.00    +0.000 N 
ATOM     20  C   UNL     1       5.235   4.657  17.888  0.00  0.00    +0.000 C 
ATOM     21  O   UNL     1       6.405   4.908  18.158  0.00  0.00    +0.000 OA
ATOM     22  H   UNL     1       3.695   4.708  16.520  0.00  0.00    +0.000 HD
BRANCH  19  23
ATOM     23  C   UNL     1       5.496   5.276  15.527  0.00  0.00    +0.000 C 
BRANCH  23  24
ATOM     24  C   UNL     1       5.266   4.461  14.240  0.00  0.00    +0.000 C 
BRANCH  24  26
ATOM     25  C   UNL     1       6.271   3.363  12.334  0.00  0.00    +0.000 C 
ATOM     26  N   UNL     1       6.519   3.938  13.659  0.00  0.00    +0.000 NA
ATOM     27  C   UNL     1       7.516   5.007  13.542  0.00  0.00    +0.000 C 
ENDBRANCH  24  26
ENDBRANCH  23  24
ENDBRANCH  19  23
ENDBRANCH   1  20
BRANCH  11  28
ATOM     28  O   UNL     1      -0.135  11.363  19.982  0.00  0.00    +0.000 OA
BRANCH  28  29
ATOM     29  C   UNL     1       0.421  12.122  21.079  0.00  0.00    +0.000 C 
BRANCH  29  30
ATOM     30  C   UNL     1      -0.491  11.995  22.288  0.00  0.00    +0.000 C 
ATOM     31  N   UNL     1      -1.247  11.891  23.292  0.00  0.00    +0.000 NA
ENDBRANCH  29  30
ENDBRANCH  28  29
ENDBRANCH  11  28
TORSDOF 7
ENDMDL
MODEL 8
REMARK VINA RESULT:      -6.5      2.134      7.441
REMARK  Name = 
REMARK  9 active torsions:
REMARK  status: ('A' for Active; 'I' for Inactive)
REMARK    1  A    between atoms: C_1  and  N_2
REMARK    2  A    between atoms: N_2  and  C_3
REMARK    3  A    between atoms: N_2  and  C_4
REMARK    4  A    between atoms: C_4  and  C_5
REMARK    5  A    between atoms: C_5  and  N_6
REMARK    6  A    between atoms: C_7  and  C_9
REMARK    7  A    between atoms: C_19  and  O_20
REMARK    8  A    between atoms: O_20  and  C_21
REMARK    9  A    between atoms: C_21  and  C_22
REMARK                            x       y       z     vdW  Elec       q    Type
REMARK                         _______ _______ _______ _____ _____    ______ ____
ROOT
ATOM      1  C   UNL     1       0.168  11.195  20.540  0.00  0.00    +0.000 A 
ATOM      2  C   UNL     1      -0.651  11.727  21.542  0.00  0.00    +0.000 A 
ATOM      3  C   UNL     1      -1.026  10.944  22.629  0.00  0.00    +0.000 A 
ATOM      4  C   UNL     1      -0.587   9.635  22.688  0.00  0.00    +0.000 A 
ATOM      5  C   UNL     1       0.228   9.096  21.704  0.00  0.00    +0.000 A 
ATOM      6  N   UNL     1       0.582   7.816  21.816  0.00  0.00    +0.000 NA
ATOM      7  C   UNL     1       1.337   7.291  20.862  0.00  0.00    +0.000 A 
ATOM      8  C   UNL     1       1.643   5.956  20.964  0.00  0.00    +0.000 A 
ATOM      9  C   UNL     1       2.435   5.323  20.004  0.00  0.00    +0.000 A 
ATOM     10  C   UNL     1       2.960   6.031  18.893  0.00  0.00    +0.000 A 
ATOM     11  C   UNL     1       3.795   5.480  17.861  0.00  0.00    +0.000 A 
ATOM     12  C   UNL     1       4.244   6.272  16.796  0.00  0.00    +0.000 A 
ATOM     13  C   UNL     1       3.953   7.613  16.734  0.00  0.00    +0.000 A 
ATOM     14  C   UNL     1       3.155   8.168  17.718  0.00  0.00    +0.000 A 
ATOM     15  C   UNL     1       2.641   7.410  18.795  0.00  0.00    +0.000 A 
ATOM     16  C   UNL     1       1.820   8.037  19.768  0.00  0.00    +0.000 A 
ATOM     17  N   UNL     1       1.467   9.336  19.670  0.00  0.00    +0.000 NA
ATOM     18  C   UNL     1       0.653   9.874  20.611  0.00  0.00    +0.000 A 
ENDROOT
BRANCH   1  20
ATOM     19  N   UNL     1       1.773  12.504  19.260  0.00  0.00    +0.000 N 
ATOM     20  C   UNL     1       0.477  12.053  19.375  0.00  0.00    +0.000 C 
ATOM     21  O   UNL     1      -0.413  12.338  18.581  0.00  0.00    +0.000 OA
ATOM     22  H   UNL     1       2.478  12.089  19.864  0.00  0.00    +0.000 HD
BRANCH  19  23
ATOM     23  C   UNL     1       2.186  13.304  18.135  0.00  0.00    +0.000 C 
BRANCH  23  24
ATOM     24  C   UNL     1       2.292  14.796  18.506  0.00  0.00    +0.000 C 
BRANCH  24  26
ATOM     25  C   UNL     1       3.808  16.670  18.693  0.00  0.00    +0.000 C 
ATOM     26  N   UNL     1       3.502  15.440  17.958  0.00  0.00    +0.000 NA
ATOM     27  C   UNL     1       4.650  14.531  18.042  0.00  0.00    +0.000 C 
ENDBRANCH  24  26
ENDBRANCH  23  24
ENDBRANCH  19  23
ENDBRANCH   1  20
BRANCH  11  28
ATOM     28  O   UNL     1       4.186   4.158  17.925  0.00  0.00    +0.000 OA
BRANCH  28  29
ATOM     29  C   UNL     1       5.610   3.997  17.742  0.00  0.00    +0.000 C 
BRANCH  29  30
ATOM     30  C   UNL     1       6.344   4.728  18.855  0.00  0.00    +0.000 C 
ATOM     31  N   UNL     1       6.953   5.335  19.777  0.00  0.00    +0.000 NA
ENDBRANCH  29  30
ENDBRANCH  28  29
ENDBRANCH  11  28
TORSDOF 7
ENDMDL
MODEL 9
REMARK VINA RESULT:      -6.5      1.665      2.020
REMARK  Name = 
REMARK  9 active torsions:
REMARK  status: ('A' for Active; 'I' for Inactive)
REMARK    1  A    between atoms: C_1  and  N_2
REMARK    2  A    between atoms: N_2  and  C_3
REMARK    3  A    between atoms: N_2  and  C_4
REMARK    4  A    between atoms: C_4  and  C_5
REMARK    5  A    between atoms: C_5  and  N_6
REMARK    6  A    between atoms: C_7  and  C_9
REMARK    7  A    between atoms: C_19  and  O_20
REMARK    8  A    between atoms: O_20  and  C_21
REMARK    9  A    between atoms: C_21  and  C_22
REMARK                            x       y       z     vdW  Elec       q    Type
REMARK                         _______ _______ _______ _____ _____    ______ ____
ROOT
ATOM      1  C   UNL     1       4.275   4.434  18.512  0.00  0.00    +0.000 A 
ATOM      2  C   UNL     1       4.517   3.112  18.900  0.00  0.00    +0.000 A 
ATOM      3  C   UNL     1       3.823   2.560  19.973  0.00  0.00    +0.000 A 
ATOM      4  C   UNL     1       2.909   3.346  20.649  0.00  0.00    +0.000 A 
ATOM      5  C   UNL     1       2.657   4.656  20.271  0.00  0.00    +0.000 A 
ATOM      6  N   UNL     1       1.785   5.359  20.993  0.00  0.00    +0.000 NA
ATOM      7  C   UNL     1       1.564   6.620  20.652  0.00  0.00    +0.000 A 
ATOM      8  C   UNL     1       0.708   7.345  21.443  0.00  0.00    +0.000 A 
ATOM      9  C   UNL     1       0.416   8.680  21.155  0.00  0.00    +0.000 A 
ATOM     10  C   UNL     1       0.985   9.336  20.033  0.00  0.00    +0.000 A 
ATOM     11  C   UNL     1       0.740  10.697  19.640  0.00  0.00    +0.000 A 
ATOM     12  C   UNL     1       1.373  11.249  18.519  0.00  0.00    +0.000 A 
ATOM     13  C   UNL     1       2.200  10.494  17.724  0.00  0.00    +0.000 A 
ATOM     14  C   UNL     1       2.448   9.180  18.078  0.00  0.00    +0.000 A 
ATOM     15  C   UNL     1       1.868   8.580  19.220  0.00  0.00    +0.000 A 
ATOM     16  C   UNL     1       2.170   7.230  19.535  0.00  0.00    +0.000 A 
ATOM     17  N   UNL     1       3.041   6.506  18.801  0.00  0.00    +0.000 NA
ATOM     18  C   UNL     1       3.317   5.231  19.169  0.00  0.00    +0.000 A 
ENDROOT
BRANCH   1  20
ATOM     19  N   UNL     1       4.840   4.503  16.144  0.00  0.00    +0.000 N 
ATOM     20  C   UNL     1       5.091   4.987  17.409  0.00  0.00    +0.000 C 
ATOM     21  O   UNL     1       5.951   5.826  17.655  0.00  0.00    +0.000 OA
ATOM     22  H   UNL     1       4.006   3.938  16.006  0.00  0.00    +0.000 HD
BRANCH  19  23
ATOM     23  C   UNL     1       5.547   5.014  14.997  0.00  0.00    +0.000 C 
BRANCH  23  24
ATOM     24  C   UNL     1       6.194   3.882  14.176  0.00  0.00    +0.000 C 
BRANCH  24  26
ATOM     25  C   UNL     1       7.353   4.350  12.106  0.00  0.00    +0.000 C 
ATOM     26  N   UNL     1       6.050   4.074  12.719  0.00  0.00    +0.000 NA
ATOM     27  C   UNL     1       5.468   2.879  12.099  0.00  0.00    +0.000 C 
ENDBRANCH  24  26
ENDBRANCH  23  24
ENDBRANCH  19  23
ENDBRANCH   1  20
BRANCH  11  28
ATOM     28  O   UNL     1      -0.149  11.471  20.357  0.00  0.00    +0.000 OA
BRANCH  28  29
ATOM     29  C   UNL     1      -0.039  12.875  20.035  0.00  0.00    +0.000 C 
BRANCH  29  30
ATOM     30  C   UNL     1       0.787  13.571  21.105  0.00  0.00    +0.000 C 
ATOM     31  N   UNL     1       1.472  14.148  21.993  0.00  0.00    +0.000 NA
ENDBRANCH  29  30
ENDBRANCH  28  29
ENDBRANCH  11  28
TORSDOF 7
ENDMDL
