MODEL 1
REMARK VINA RESULT:      -7.8      0.000      0.000
REMARK  Name = 
REMARK  13 active torsions:
REMARK  status: ('A' for Active; 'I' for Inactive)
REMARK    1  A    between atoms: C_1  and  C_2
REMARK    2  A    between atoms: C_2  and  O_4
REMARK    3  A    between atoms: O_4  and  C_5
REMARK    4  A    between atoms: C_5  and  C_6
REMARK    5  A    between atoms: C_7  and  C_8
REMARK    6  A    between atoms: C_7  and  C_9
REMARK    7  A    between atoms: C_10  and  C_11
REMARK    8  A    between atoms: C_12  and  C_13
REMARK    9  A    between atoms: C_12  and  C_14
REMARK   10  A    between atoms: C_15  and  C_16
REMARK   11  A    between atoms: C_17  and  C_18
REMARK   12  A    between atoms: C_22  and  C_23
REMARK   13  A    between atoms: C_22  and  C_24
REMARK                            x       y       z     vdW  Elec       q    Type
REMARK                         _______ _______ _______ _____ _____    ______ ____
ROOT
ATOM      1  C   UNL     1       6.922   4.717  15.216  0.00  0.00    +0.000 C 
ATOM      2  C   UNL     1       5.613   4.440  15.041  0.00  0.00    +0.000 C 
ATOM      3  C   UNL     1       5.146   3.864  13.727  0.00  0.00    +0.000 C 
ENDROOT
BRANCH   1   5
ATOM      4  C   UNL     1       7.186   6.646  16.732  0.00  0.00    +0.000 C 
ATOM      5  C   UNL     1       7.492   5.396  16.359  0.00  0.00    +0.000 C 
BRANCH   4   7
ATOM      6  C   UNL     1       8.134   8.630  17.763  0.00  0.00    +0.000 C 
ATOM      7  C   UNL     1       7.788   7.331  17.875  0.00  0.00    +0.000 C 
ATOM      8  C   UNL     1       7.959   6.544  19.151  0.00  0.00    +0.000 C 
BRANCH   6   9
ATOM      9  C   UNL     1       8.783   9.469  18.826  0.00  0.00    +0.000 C 
BRANCH   9  10
ATOM     10  O   UNL     1       9.506  10.554  18.236  0.00  0.00    +0.000 OA
BRANCH  10  12
ATOM     11  C   UNL     1      10.960  11.625  19.721  0.00  0.00    +0.000 C 
ATOM     12  C   UNL     1       9.641  11.660  19.018  0.00  0.00    +0.000 C 
ATOM     13  O   UNL     1       8.813  12.552  19.146  0.00  0.00    +0.000 OA
ENDBRANCH  10  12
ENDBRANCH   9  10
ENDBRANCH   6   9
ENDBRANCH   4   7
ENDBRANCH   1   5
BRANCH   2  14
ATOM     14  C   UNL     1       4.611   4.686  16.080  0.00  0.00    +0.000 C 
ATOM     15  C   UNL     1       4.570   4.133  17.306  0.00  0.00    +0.000 C 
BRANCH  15  16
ATOM     16  C   UNL     1       3.523   4.423  18.288  0.00  0.00    +0.000 C 
ATOM     17  C   UNL     1       3.182   5.696  18.610  0.00  0.00    +0.000 C 
ATOM     18  C   UNL     1       3.744   6.941  17.961  0.00  0.00    +0.000 C 
ATOM     19  C   UNL     1       2.150   6.024  19.668  0.00  0.00    +0.000 C 
ATOM     20  C   UNL     1       1.739   4.843  20.536  0.00  0.00    +0.000 C 
ATOM     21  C   UNL     1       1.528   3.609  19.674  0.00  0.00    +0.000 C 
ATOM     22  C   UNL     1       2.817   3.193  18.912  0.00  0.00    +0.000 C 
ATOM     23  C   UNL     1       2.373   2.162  17.848  0.00  0.00    +0.000 C 
ATOM     24  C   UNL     1       3.780   2.488  19.893  0.00  0.00    +0.000 C 
ENDBRANCH  15  16
ENDBRANCH   2  14
TORSDOF 7
ENDMDL
MODEL 2
REMARK VINA RESULT:      -7.5      4.245      6.963
REMARK  Name = 
REMARK  13 active torsions:
REMARK  status: ('A' for Active; 'I' for Inactive)
REMARK    1  A    between atoms: C_1  and  C_2
REMARK    2  A    between atoms: C_2  and  O_4
REMARK    3  A    between atoms: O_4  and  C_5
REMARK    4  A    between atoms: C_5  and  C_6
REMARK    5  A    between atoms: C_7  and  C_8
REMARK    6  A    between atoms: C_7  and  C_9
REMARK    7  A    between atoms: C_10  and  C_11
REMARK    8  A    between atoms: C_12  and  C_13
REMARK    9  A    between atoms: C_12  and  C_14
REMARK   10  A    between atoms: C_15  and  C_16
REMARK   11  A    between atoms: C_17  and  C_18
REMARK   12  A    between atoms: C_22  and  C_23
REMARK   13  A    between atoms: C_22  and  C_24
REMARK                            x       y       z     vdW  Elec       q    Type
REMARK                         _______ _______ _______ _____ _____    ______ ____
ROOT
ATOM      1  C   UNL     1       7.028   5.378  16.208  0.00  0.00    +0.000 C 
ATOM      2  C   UNL     1       6.571   5.426  17.477  0.00  0.00    +0.000 C 
ATOM      3  C   UNL     1       7.421   6.068  18.546  0.00  0.00    +0.000 C 
ENDROOT
BRANCH   1   5
ATOM      4  C   UNL     1       6.916   4.549  13.885  0.00  0.00    +0.000 C 
ATOM      5  C   UNL     1       6.392   4.677  15.113  0.00  0.00    +0.000 C 
BRANCH   4   7
ATOM      6  C   UNL     1       4.915   3.965  12.639  0.00  0.00    +0.000 C 
ATOM      7  C   UNL     1       6.252   3.860  12.780  0.00  0.00    +0.000 C 
ATOM      8  C   UNL     1       7.119   3.083  11.819  0.00  0.00    +0.000 C 
BRANCH   6   9
ATOM      9  C   UNL     1       4.080   3.303  11.581  0.00  0.00    +0.000 C 
BRANCH   9  10
ATOM     10  O   UNL     1       3.924   4.169  10.452  0.00  0.00    +0.000 OA
BRANCH  10  12
ATOM     11  C   UNL     1       2.272   4.990   9.016  0.00  0.00    +0.000 C 
ATOM     12  C   UNL     1       2.981   3.786   9.548  0.00  0.00    +0.000 C 
ATOM     13  O   UNL     1       2.732   2.634   9.218  0.00  0.00    +0.000 OA
ENDBRANCH  10  12
ENDBRANCH   9  10
ENDBRANCH   6   9
ENDBRANCH   4   7
ENDBRANCH   1   5
BRANCH   2  14
ATOM     14  C   UNL     1       5.276   4.869  17.870  0.00  0.00    +0.000 C 
ATOM     15  C   UNL     1       4.752   4.844  19.109  0.00  0.00    +0.000 C 
BRANCH  15  16
ATOM     16  C   UNL     1       3.449   4.255  19.423  0.00  0.00    +0.000 C 
ATOM     17  C   UNL     1       2.396   5.019  19.807  0.00  0.00    +0.000 C 
ATOM     18  C   UNL     1       2.392   6.530  19.871  0.00  0.00    +0.000 C 
ATOM     19  C   UNL     1       1.058   4.430  20.201  0.00  0.00    +0.000 C 
ATOM     20  C   UNL     1       1.069   2.923  20.409  0.00  0.00    +0.000 C 
ATOM     21  C   UNL     1       1.862   2.247  19.304  0.00  0.00    +0.000 C 
ATOM     22  C   UNL     1       3.343   2.717  19.266  0.00  0.00    +0.000 C 
ATOM     23  C   UNL     1       3.918   2.217  17.920  0.00  0.00    +0.000 C 
ATOM     24  C   UNL     1       4.121   2.026  20.408  0.00  0.00    +0.000 C 
ENDBRANCH  15  16
ENDBRANCH   2  14
TORSDOF 7
ENDMDL
MODEL 3
REMARK VINA RESULT:      -7.5      3.959      6.702
REMARK  Name = 
REMARK  13 active torsions:
REMARK  status: ('A' for Active; 'I' for Inactive)
REMARK    1  A    between atoms: C_1  and  C_2
REMARK    2  A    between atoms: C_2  and  O_4
REMARK    3  A    between atoms: O_4  and  C_5
REMARK    4  A    between atoms: C_5  and  C_6
REMARK    5  A    between atoms: C_7  and  C_8
REMARK    6  A    between atoms: C_7  and  C_9
REMARK    7  A    between atoms: C_10  and  C_11
REMARK    8  A    between atoms: C_12  and  C_13
REMARK    9  A    between atoms: C_12  and  C_14
REMARK   10  A    between atoms: C_15  and  C_16
REMARK   11  A    between atoms: C_17  and  C_18
REMARK   12  A    between atoms: C_22  and  C_23
REMARK   13  A    between atoms: C_22  and  C_24
REMARK                            x       y       z     vdW  Elec       q    Type
REMARK                         _______ _______ _______ _____ _____    ______ ____
ROOT
ATOM      1  C   UNL     1       3.443   3.626  20.161  0.00  0.00    +0.000 C 
ATOM      2  C   UNL     1       2.239   4.148  20.478  0.00  0.00    +0.000 C 
ATOM      3  C   UNL     1       1.293   3.355  21.347  0.00  0.00    +0.000 C 
ENDROOT
BRANCH   1   5
ATOM      4  C   UNL     1       4.322   4.076  17.899  0.00  0.00    +0.000 C 
ATOM      5  C   UNL     1       4.390   4.203  19.232  0.00  0.00    +0.000 C 
BRANCH   4   7
ATOM      6  C   UNL     1       5.243   4.315  15.665  0.00  0.00    +0.000 C 
ATOM      7  C   UNL     1       5.300   4.643  16.972  0.00  0.00    +0.000 C 
ATOM      8  C   UNL     1       6.316   5.608  17.531  0.00  0.00    +0.000 C 
BRANCH   6   9
ATOM      9  C   UNL     1       6.182   4.784  14.591  0.00  0.00    +0.000 C 
BRANCH   9  10
ATOM     10  O   UNL     1       6.653   3.676  13.818  0.00  0.00    +0.000 OA
BRANCH  10  12
ATOM     11  C   UNL     1       5.219   3.172  12.042  0.00  0.00    +0.000 C 
ATOM     12  C   UNL     1       6.506   3.799  12.470  0.00  0.00    +0.000 C 
ATOM     13  O   UNL     1       7.304   4.330  11.708  0.00  0.00    +0.000 OA
ENDBRANCH  10  12
ENDBRANCH   9  10
ENDBRANCH   6   9
ENDBRANCH   4   7
ENDBRANCH   1   5
BRANCH   2  14
ATOM     14  C   UNL     1       1.802   5.463  20.005  0.00  0.00    +0.000 C 
ATOM     15  C   UNL     1       2.245   6.660  20.430  0.00  0.00    +0.000 C 
BRANCH  15  16
ATOM     16  C   UNL     1       1.746   7.936  19.912  0.00  0.00    +0.000 C 
ATOM     17  C   UNL     1       2.079   8.381  18.674  0.00  0.00    +0.000 C 
ATOM     18  C   UNL     1       2.900   7.614  17.663  0.00  0.00    +0.000 C 
ATOM     19  C   UNL     1       1.631   9.725  18.141  0.00  0.00    +0.000 C 
ATOM     20  C   UNL     1       1.029  10.651  19.188  0.00  0.00    +0.000 C 
ATOM     21  C   UNL     1       0.083   9.876  20.089  0.00  0.00    +0.000 C 
ATOM     22  C   UNL     1       0.800   8.727  20.850  0.00  0.00    +0.000 C 
ATOM     23  C   UNL     1      -0.321   7.841  21.445  0.00  0.00    +0.000 C 
ATOM     24  C   UNL     1       1.613   9.324  22.020  0.00  0.00    +0.000 C 
ENDBRANCH  15  16
ENDBRANCH   2  14
TORSDOF 7
ENDMDL
MODEL 4
REMARK VINA RESULT:      -7.5      0.841      2.164
REMARK  Name = 
REMARK  13 active torsions:
REMARK  status: ('A' for Active; 'I' for Inactive)
REMARK    1  A    between atoms: C_1  and  C_2
REMARK    2  A    between atoms: C_2  and  O_4
REMARK    3  A    between atoms: O_4  and  C_5
REMARK    4  A    between atoms: C_5  and  C_6
REMARK    5  A    between atoms: C_7  and  C_8
REMARK    6  A    between atoms: C_7  and  C_9
REMARK    7  A    between atoms: C_10  and  C_11
REMARK    8  A    between atoms: C_12  and  C_13
REMARK    9  A    between atoms: C_12  and  C_14
REMARK   10  A    between atoms: C_15  and  C_16
REMARK   11  A    between atoms: C_17  and  C_18
REMARK   12  A    between atoms: C_22  and  C_23
REMARK   13  A    between atoms: C_22  and  C_24
REMARK                            x       y       z     vdW  Elec       q    Type
REMARK                         _______ _______ _______ _____ _____    ______ ____
ROOT
ATOM      1  C   UNL     1       6.810   4.698  15.259  0.00  0.00    +0.000 C 
ATOM      2  C   UNL     1       5.542   4.268  15.096  0.00  0.00    +0.000 C 
ATOM      3  C   UNL     1       5.095   3.775  13.741  0.00  0.00    +0.000 C 
ENDROOT
BRANCH   1   5
ATOM      4  C   UNL     1       7.277   6.637  16.713  0.00  0.00    +0.000 C 
ATOM      5  C   UNL     1       7.338   5.323  16.453  0.00  0.00    +0.000 C 
BRANCH   4   7
ATOM      6  C   UNL     1       8.130   8.577  17.899  0.00  0.00    +0.000 C 
ATOM      7  C   UNL     1       7.837   7.261  17.911  0.00  0.00    +0.000 C 
ATOM      8  C   UNL     1       8.027   6.391  19.129  0.00  0.00    +0.000 C 
BRANCH   6   9
ATOM      9  C   UNL     1       8.731   9.363  19.029  0.00  0.00    +0.000 C 
BRANCH   9  10
ATOM     10  O   UNL     1       9.533  10.435  18.523  0.00  0.00    +0.000 OA
BRANCH  10  12
ATOM     11  C   UNL     1       9.569  12.771  18.605  0.00  0.00    +0.000 C 
ATOM     12  C   UNL     1       9.696  11.491  19.366  0.00  0.00    +0.000 C 
ATOM     13  O   UNL     1       9.924  11.420  20.567  0.00  0.00    +0.000 OA
ENDBRANCH  10  12
ENDBRANCH   9  10
ENDBRANCH   6   9
ENDBRANCH   4   7
ENDBRANCH   1   5
BRANCH   2  14
ATOM     14  C   UNL     1       4.564   4.265  16.186  0.00  0.00    +0.000 C 
ATOM     15  C   UNL     1       4.710   3.698  17.397  0.00  0.00    +0.000 C 
BRANCH  15  16
ATOM     16  C   UNL     1       3.676   3.730  18.433  0.00  0.00    +0.000 C 
ATOM     17  C   UNL     1       3.099   2.593  18.898  0.00  0.00    +0.000 C 
ATOM     18  C   UNL     1       3.491   1.189  18.498  0.00  0.00    +0.000 C 
ATOM     19  C   UNL     1       1.982   2.601  19.920  0.00  0.00    +0.000 C 
ATOM     20  C   UNL     1       1.366   3.970  20.170  0.00  0.00    +0.000 C 
ATOM     21  C   UNL     1       2.455   5.023  20.277  0.00  0.00    +0.000 C 
ATOM     22  C   UNL     1       3.303   5.131  18.979  0.00  0.00    +0.000 C 
ATOM     23  C   UNL     1       4.547   5.974  19.347  0.00  0.00    +0.000 C 
ATOM     24  C   UNL     1       2.497   5.904  17.911  0.00  0.00    +0.000 C 
ENDBRANCH  15  16
ENDBRANCH   2  14
TORSDOF 7
ENDMDL
MODEL 5
REMARK VINA RESULT:      -7.2      4.371      6.877
REMARK  Name = 
REMARK  13 active torsions:
REMARK  status: ('A' for Active; 'I' for Inactive)
REMARK    1  A    between atoms: C_1  and  C_2
REMARK    2  A    between atoms: C_2  and  O_4
REMARK    3  A    between atoms: O_4  and  C_5
REMARK    4  A    between atoms: C_5  and  C_6
REMARK    5  A    between atoms: C_7  and  C_8
REMARK    6  A    between atoms: C_7  and  C_9
REMARK    7  A    between atoms: C_10  and  C_11
REMARK    8  A    between atoms: C_12  and  C_13
REMARK    9  A    between atoms: C_12  and  C_14
REMARK   10  A    between atoms: C_15  and  C_16
REMARK   11  A    between atoms: C_17  and  C_18
REMARK   12  A    between atoms: C_22  and  C_23
REMARK   13  A    between atoms: C_22  and  C_24
REMARK                            x       y       z     vdW  Elec       q    Type
REMARK                         _______ _______ _______ _____ _____    ______ ____
ROOT
ATOM      1  C   UNL     1       7.320   5.865  17.198  0.00  0.00    +0.000 C 
ATOM      2  C   UNL     1       6.699   5.447  18.320  0.00  0.00    +0.000 C 
ATOM      3  C   UNL     1       7.365   5.657  19.658  0.00  0.00    +0.000 C 
ENDROOT
BRANCH   1   5
ATOM      4  C   UNL     1       7.510   4.817  14.971  0.00  0.00    +0.000 C 
ATOM      5  C   UNL     1       6.873   5.609  15.846  0.00  0.00    +0.000 C 
BRANCH   4   7
ATOM      6  C   UNL     1       6.097   3.676  13.359  0.00  0.00    +0.000 C 
ATOM      7  C   UNL     1       7.063   4.587  13.599  0.00  0.00    +0.000 C 
ATOM      8  C   UNL     1       7.692   5.420  12.509  0.00  0.00    +0.000 C 
BRANCH   6   9
ATOM      9  C   UNL     1       5.544   3.302  12.014  0.00  0.00    +0.000 C 
BRANCH   9  10
ATOM     10  O   UNL     1       5.291   1.895  11.950  0.00  0.00    +0.000 OA
BRANCH  10  12
ATOM     11  C   UNL     1       7.358   2.042  10.869  0.00  0.00    +0.000 C 
ATOM     12  C   UNL     1       6.215   1.165  11.267  0.00  0.00    +0.000 C 
ATOM     13  O   UNL     1       6.131  -0.026  11.001  0.00  0.00    +0.000 OA
ENDBRANCH  10  12
ENDBRANCH   9  10
ENDBRANCH   6   9
ENDBRANCH   4   7
ENDBRANCH   1   5
BRANCH   2  14
ATOM     14  C   UNL     1       5.395   4.781  18.298  0.00  0.00    +0.000 C 
ATOM     15  C   UNL     1       4.666   4.401  19.362  0.00  0.00    +0.000 C 
BRANCH  15  16
ATOM     16  C   UNL     1       3.371   3.727  19.255  0.00  0.00    +0.000 C 
ATOM     17  C   UNL     1       3.277   2.379  19.132  0.00  0.00    +0.000 C 
ATOM     18  C   UNL     1       4.442   1.416  19.180  0.00  0.00    +0.000 C 
ATOM     19  C   UNL     1       1.955   1.664  18.953  0.00  0.00    +0.000 C 
ATOM     20  C   UNL     1       0.781   2.578  18.636  0.00  0.00    +0.000 C 
ATOM     21  C   UNL     1       0.824   3.811  19.522  0.00  0.00    +0.000 C 
ATOM     22  C   UNL     1       2.121   4.642  19.316  0.00  0.00    +0.000 C 
ATOM     23  C   UNL     1       2.180   5.646  20.491  0.00  0.00    +0.000 C 
ATOM     24  C   UNL     1       2.004   5.445  18.002  0.00  0.00    +0.000 C 
ENDBRANCH  15  16
ENDBRANCH   2  14
TORSDOF 7
ENDMDL
MODEL 6
REMARK VINA RESULT:      -7.2      4.215      6.596
REMARK  Name = 
REMARK  13 active torsions:
REMARK  status: ('A' for Active; 'I' for Inactive)
REMARK    1  A    between atoms: C_1  and  C_2
REMARK    2  A    between atoms: C_2  and  O_4
REMARK    3  A    between atoms: O_4  and  C_5
REMARK    4  A    between atoms: C_5  and  C_6
REMARK    5  A    between atoms: C_7  and  C_8
REMARK    6  A    between atoms: C_7  and  C_9
REMARK    7  A    between atoms: C_10  and  C_11
REMARK    8  A    between atoms: C_12  and  C_13
REMARK    9  A    between atoms: C_12  and  C_14
REMARK   10  A    between atoms: C_15  and  C_16
REMARK   11  A    between atoms: C_17  and  C_18
REMARK   12  A    between atoms: C_22  and  C_23
REMARK   13  A    between atoms: C_22  and  C_24
REMARK                            x       y       z     vdW  Elec       q    Type
REMARK                         _______ _______ _______ _____ _____    ______ ____
ROOT
ATOM      1  C   UNL     1       7.299   5.879  17.572  0.00  0.00    +0.000 C 
ATOM      2  C   UNL     1       6.971   5.481  18.819  0.00  0.00    +0.000 C 
ATOM      3  C   UNL     1       7.909   5.778  19.962  0.00  0.00    +0.000 C 
ENDROOT
BRANCH   1   5
ATOM      4  C   UNL     1       6.902   4.552  15.529  0.00  0.00    +0.000 C 
ATOM      5  C   UNL     1       6.572   5.546  16.366  0.00  0.00    +0.000 C 
BRANCH   4   7
ATOM      6  C   UNL     1       6.863   3.937  13.179  0.00  0.00    +0.000 C 
ATOM      7  C   UNL     1       6.175   4.241  14.299  0.00  0.00    +0.000 C 
ATOM      8  C   UNL     1       4.667   4.243  14.359  0.00  0.00    +0.000 C 
BRANCH   6   9
ATOM      9  C   UNL     1       6.274   3.621  11.834  0.00  0.00    +0.000 C 
BRANCH   9  10
ATOM     10  O   UNL     1       5.815   2.266  11.795  0.00  0.00    +0.000 OA
BRANCH  10  12
ATOM     11  C   UNL     1       6.047   0.021  11.189  0.00  0.00    +0.000 C 
ATOM     12  C   UNL     1       6.683   1.372  11.248  0.00  0.00    +0.000 C 
ATOM     13  O   UNL     1       7.820   1.618  10.868  0.00  0.00    +0.000 OA
ENDBRANCH  10  12
ENDBRANCH   9  10
ENDBRANCH   6   9
ENDBRANCH   4   7
ENDBRANCH   1   5
BRANCH   2  14
ATOM     14  C   UNL     1       5.733   4.759  19.115  0.00  0.00    +0.000 C 
ATOM     15  C   UNL     1       4.501   5.287  19.239  0.00  0.00    +0.000 C 
BRANCH  15  16
ATOM     16  C   UNL     1       3.310   4.494  19.549  0.00  0.00    +0.000 C 
ATOM     17  C   UNL     1       2.220   5.047  20.138  0.00  0.00    +0.000 C 
ATOM     18  C   UNL     1       2.052   6.516  20.458  0.00  0.00    +0.000 C 
ATOM     19  C   UNL     1       1.002   4.238  20.529  0.00  0.00    +0.000 C 
ATOM     20  C   UNL     1       1.203   2.730  20.477  0.00  0.00    +0.000 C 
ATOM     21  C   UNL     1       1.955   2.346  19.215  0.00  0.00    +0.000 C 
ATOM     22  C   UNL     1       3.363   3.000  19.142  0.00  0.00    +0.000 C 
ATOM     23  C   UNL     1       3.856   2.799  17.690  0.00  0.00    +0.000 C 
ATOM     24  C   UNL     1       4.322   2.241  20.085  0.00  0.00    +0.000 C 
ENDBRANCH  15  16
ENDBRANCH   2  14
TORSDOF 7
ENDMDL
MODEL 7
REMARK VINA RESULT:      -7.2      5.050      7.312
REMARK  Name = 
REMARK  13 active torsions:
REMARK  status: ('A' for Active; 'I' for Inactive)
REMARK    1  A    between atoms: C_1  and  C_2
REMARK    2  A    between atoms: C_2  and  O_4
REMARK    3  A    between atoms: O_4  and  C_5
REMARK    4  A    between atoms: C_5  and  C_6
REMARK    5  A    between atoms: C_7  and  C_8
REMARK    6  A    between atoms: C_7  and  C_9
REMARK    7  A    between atoms: C_10  and  C_11
REMARK    8  A    between atoms: C_12  and  C_13
REMARK    9  A    between atoms: C_12  and  C_14
REMARK   10  A    between atoms: C_15  and  C_16
REMARK   11  A    between atoms: C_17  and  C_18
REMARK   12  A    between atoms: C_22  and  C_23
REMARK   13  A    between atoms: C_22  and  C_24
REMARK                            x       y       z     vdW  Elec       q    Type
REMARK                         _______ _______ _______ _____ _____    ______ ____
ROOT
ATOM      1  C   UNL     1       3.499   8.144  17.224  0.00  0.00    +0.000 C 
ATOM      2  C   UNL     1       4.224   7.041  17.508  0.00  0.00    +0.000 C 
ATOM      3  C   UNL     1       5.532   6.809  16.792  0.00  0.00    +0.000 C 
ENDROOT
BRANCH   1   5
ATOM      4  C   UNL     1       1.718   9.651  18.030  0.00  0.00    +0.000 C 
ATOM      5  C   UNL     1       2.171   8.427  17.723  0.00  0.00    +0.000 C 
BRANCH   4   7
ATOM      6  C   UNL     1      -0.653  10.061  17.705  0.00  0.00    +0.000 C 
ATOM      7  C   UNL     1       0.382   9.922  18.558  0.00  0.00    +0.000 C 
ATOM      8  C   UNL     1       0.224   9.997  20.057  0.00  0.00    +0.000 C 
BRANCH   6   9
ATOM      9  C   UNL     1      -2.076  10.365  18.078  0.00  0.00    +0.000 C 
BRANCH   9  10
ATOM     10  O   UNL     1      -2.575  11.458  17.300  0.00  0.00    +0.000 OA
BRANCH  10  12
ATOM     11  C   UNL     1      -3.322  10.569  15.271  0.00  0.00    +0.000 C 
ATOM     12  C   UNL     1      -3.697  11.194  16.576  0.00  0.00    +0.000 C 
ATOM     13  O   UNL     1      -4.846  11.437  16.922  0.00  0.00    +0.000 OA
ENDBRANCH  10  12
ENDBRANCH   9  10
ENDBRANCH   6   9
ENDBRANCH   4   7
ENDBRANCH   1   5
BRANCH   2  14
ATOM     14  C   UNL     1       3.788   6.042  18.486  0.00  0.00    +0.000 C 
ATOM     15  C   UNL     1       2.853   5.092  18.305  0.00  0.00    +0.000 C 
BRANCH  15  16
ATOM     16  C   UNL     1       2.464   4.134  19.342  0.00  0.00    +0.000 C 
ATOM     17  C   UNL     1       1.816   4.527  20.468  0.00  0.00    +0.000 C 
ATOM     18  C   UNL     1       1.342   5.933  20.756  0.00  0.00    +0.000 C 
ATOM     19  C   UNL     1       1.462   3.568  21.584  0.00  0.00    +0.000 C 
ATOM     20  C   UNL     1       2.131   2.205  21.481  0.00  0.00    +0.000 C 
ATOM     21  C   UNL     1       2.078   1.702  20.049  0.00  0.00    +0.000 C 
ATOM     22  C   UNL     1       2.813   2.650  19.062  0.00  0.00    +0.000 C 
ATOM     23  C   UNL     1       2.395   2.201  17.642  0.00  0.00    +0.000 C 
ATOM     24  C   UNL     1       4.338   2.443  19.202  0.00  0.00    +0.000 C 
ENDBRANCH  15  16
ENDBRANCH   2  14
TORSDOF 7
ENDMDL
MODEL 8
REMARK VINA RESULT:      -7.2      3.980      6.602
REMARK  Name = 
REMARK  13 active torsions:
REMARK  status: ('A' for Active; 'I' for Inactive)
REMARK    1  A    between atoms: C_1  and  C_2
REMARK    2  A    between atoms: C_2  and  O_4
REMARK    3  A    between atoms: O_4  and  C_5
REMARK    4  A    between atoms: C_5  and  C_6
REMARK    5  A    between atoms: C_7  and  C_8
REMARK    6  A    between atoms: C_7  and  C_9
REMARK    7  A    between atoms: C_10  and  C_11
REMARK    8  A    between atoms: C_12  and  C_13
REMARK    9  A    between atoms: C_12  and  C_14
REMARK   10  A    between atoms: C_15  and  C_16
REMARK   11  A    between atoms: C_17  and  C_18
REMARK   12  A    between atoms: C_22  and  C_23
REMARK   13  A    between atoms: C_22  and  C_24
REMARK                            x       y       z     vdW  Elec       q    Type
REMARK                         _______ _______ _______ _____ _____    ______ ____
ROOT
ATOM      1  C   UNL     1       3.513   3.165  19.753  0.00  0.00    +0.000 C 
ATOM      2  C   UNL     1       2.542   3.863  20.378  0.00  0.00    +0.000 C 
ATOM      3  C   UNL     1       1.901   3.293  21.620  0.00  0.00    +0.000 C 
ENDROOT
BRANCH   1   5
ATOM      4  C   UNL     1       5.263   4.197  18.352  0.00  0.00    +0.000 C 
ATOM      5  C   UNL     1       4.116   3.516  18.485  0.00  0.00    +0.000 C 
BRANCH   4   7
ATOM      6  C   UNL     1       5.154   4.350  15.930  0.00  0.00    +0.000 C 
ATOM      7  C   UNL     1       5.850   4.568  17.065  0.00  0.00    +0.000 C 
ATOM      8  C   UNL     1       7.211   5.220  17.079  0.00  0.00    +0.000 C 
BRANCH   6   9
ATOM      9  C   UNL     1       5.619   4.647  14.533  0.00  0.00    +0.000 C 
BRANCH   9  10
ATOM     10  O   UNL     1       6.221   3.488  13.949  0.00  0.00    +0.000 OA
BRANCH  10  12
ATOM     11  C   UNL     1       4.728   3.527  12.151  0.00  0.00    +0.000 C 
ATOM     12  C   UNL     1       6.152   3.415  12.591  0.00  0.00    +0.000 C 
ATOM     13  O   UNL     1       7.101   3.269  11.833  0.00  0.00    +0.000 OA
ENDBRANCH  10  12
ENDBRANCH   9  10
ENDBRANCH   6   9
ENDBRANCH   4   7
ENDBRANCH   1   5
BRANCH   2  14
ATOM     14  C   UNL     1       2.070   5.162  19.895  0.00  0.00    +0.000 C 
ATOM     15  C   UNL     1       2.587   6.368  20.193  0.00  0.00    +0.000 C 
BRANCH  15  16
ATOM     16  C   UNL     1       2.049   7.628  19.676  0.00  0.00    +0.000 C 
ATOM     17  C   UNL     1       1.425   8.521  20.486  0.00  0.00    +0.000 C 
ATOM     18  C   UNL     1       1.286   8.390  21.986  0.00  0.00    +0.000 C 
ATOM     19  C   UNL     1       0.801   9.799  19.966  0.00  0.00    +0.000 C 
ATOM     20  C   UNL     1       0.674   9.869  18.452  0.00  0.00    +0.000 C 
ATOM     21  C   UNL     1       1.948   9.365  17.796  0.00  0.00    +0.000 C 
ATOM     22  C   UNL     1       2.258   7.887  18.163  0.00  0.00    +0.000 C 
ATOM     23  C   UNL     1       3.715   7.628  17.713  0.00  0.00    +0.000 C 
ATOM     24  C   UNL     1       1.331   6.958  17.347  0.00  0.00    +0.000 C 
ENDBRANCH  15  16
ENDBRANCH   2  14
TORSDOF 7
ENDMDL
MODEL 9
REMARK VINA RESULT:      -7.1      2.530      5.334
REMARK  Name = 
REMARK  13 active torsions:
REMARK  status: ('A' for Active; 'I' for Inactive)
REMARK    1  A    between atoms: C_1  and  C_2
REMARK    2  A    between atoms: C_2  and  O_4
REMARK    3  A    between atoms: O_4  and  C_5
REMARK    4  A    between atoms: C_5  and  C_6
REMARK    5  A    between atoms: C_7  and  C_8
REMARK    6  A    between atoms: C_7  and  C_9
REMARK    7  A    between atoms: C_10  and  C_11
REMARK    8  A    between atoms: C_12  and  C_13
REMARK    9  A    between atoms: C_12  and  C_14
REMARK   10  A    between atoms: C_15  and  C_16
REMARK   11  A    between atoms: C_17  and  C_18
REMARK   12  A    between atoms: C_22  and  C_23
REMARK   13  A    between atoms: C_22  and  C_24
REMARK                            x       y       z     vdW  Elec       q    Type
REMARK                         _______ _______ _______ _____ _____    ______ ____
ROOT
ATOM      1  C   UNL     1       3.211   3.561  19.571  0.00  0.00    +0.000 C 
ATOM      2  C   UNL     1       2.075   4.160  19.984  0.00  0.00    +0.000 C 
ATOM      3  C   UNL     1       1.098   3.389  20.838  0.00  0.00    +0.000 C 
ENDROOT
BRANCH   1   5
ATOM      4  C   UNL     1       4.204   3.845  17.330  0.00  0.00    +0.000 C 
ATOM      5  C   UNL     1       4.166   4.122  18.641  0.00  0.00    +0.000 C 
BRANCH   4   7
ATOM      6  C   UNL     1       5.582   5.683  16.541  0.00  0.00    +0.000 C 
ATOM      7  C   UNL     1       5.191   4.400  16.404  0.00  0.00    +0.000 C 
ATOM      8  C   UNL     1       5.755   3.479  15.349  0.00  0.00    +0.000 C 
BRANCH   6   9
ATOM      9  C   UNL     1       6.561   6.411  15.665  0.00  0.00    +0.000 C 
BRANCH   9  10
ATOM     10  O   UNL     1       7.782   6.654  16.371  0.00  0.00    +0.000 OA
BRANCH  10  12
ATOM     11  C   UNL     1       8.074   6.649  18.691  0.00  0.00    +0.000 C 
ATOM     12  C   UNL     1       7.668   7.431  17.483  0.00  0.00    +0.000 C 
ATOM     13  O   UNL     1       7.282   8.592  17.509  0.00  0.00    +0.000 OA
ENDBRANCH  10  12
ENDBRANCH   9  10
ENDBRANCH   6   9
ENDBRANCH   4   7
ENDBRANCH   1   5
BRANCH   2  14
ATOM     14  C   UNL     1       1.738   5.540  19.630  0.00  0.00    +0.000 C 
ATOM     15  C   UNL     1       1.980   6.642  20.364  0.00  0.00    +0.000 C 
BRANCH  15  16
ATOM     16  C   UNL     1       1.600   7.992  19.943  0.00  0.00    +0.000 C 
ATOM     17  C   UNL     1       2.006   8.508  18.755  0.00  0.00    +0.000 C 
ATOM     18  C   UNL     1       2.795   7.761  17.703  0.00  0.00    +0.000 C 
ATOM     19  C   UNL     1       1.683   9.923  18.325  0.00  0.00    +0.000 C 
ATOM     20  C   UNL     1       1.124  10.806  19.431  0.00  0.00    +0.000 C 
ATOM     21  C   UNL     1       0.092  10.041  20.241  0.00  0.00    +0.000 C 
ATOM     22  C   UNL     1       0.691   8.778  20.920  0.00  0.00    +0.000 C 
ATOM     23  C   UNL     1      -0.514   7.942  21.412  0.00  0.00    +0.000 C 
ATOM     24  C   UNL     1       1.512   9.210  22.156  0.00  0.00    +0.000 C 
ENDBRANCH  15  16
ENDBRANCH   2  14
TORSDOF 7
ENDMDL
