MODEL 1
REMARK VINA RESULT:      -8.7      0.000      0.000
REMARK  Name = 
REMARK  4 active torsions:
REMARK  status: ('A' for Active; 'I' for Inactive)
REMARK    1  A    between atoms: C_1  and  C_2
REMARK    2  A    between atoms: C_2  and  C_3
REMARK    3  A    between atoms: C_7  and  N_8
REMARK    4  A    between atoms: C_9  and  C_11
REMARK                            x       y       z     vdW  Elec       q    Type
REMARK                         _______ _______ _______ _____ _____    ______ ____
ROOT
ATOM      1  C   UNL     1       3.947   4.563  18.614  0.00  0.00    +0.000 A 
ATOM      2  C   UNL     1       3.805   3.310  19.240  0.00  0.00    +0.000 A 
ATOM      3  C   UNL     1       3.050   3.162  20.400  0.00  0.00    +0.000 A 
ATOM      4  C   UNL     1       2.389   4.256  20.945  0.00  0.00    +0.000 A 
ATOM      5  C   UNL     1       2.461   5.508  20.334  0.00  0.00    +0.000 A 
ATOM      6  C   UNL     1       3.253   5.654  19.184  0.00  0.00    +0.000 A 
ENDROOT
BRANCH   1   8
ATOM      7  C   UNL     1       4.205   3.824  16.194  0.00  0.00    +0.000 C 
ATOM      8  C   UNL     1       4.795   4.714  17.331  0.00  0.00    +0.000 C 
ATOM      9  C   UNL     1       4.750   6.176  16.830  0.00  0.00    +0.000 C 
ATOM     10  C   UNL     1       5.970   7.067  16.999  0.00  0.00    +0.000 C 
ATOM     11  S   UNL     1       7.249   6.497  18.115  0.00  0.00    +0.000 S 
ATOM     12  C   UNL     1       7.185   4.806  17.783  0.00  0.00    +0.000 C 
ATOM     13  N   UNL     1       8.366   4.163  17.945  0.00  0.00    +0.000 N 
ATOM     14  N   UNL     1       6.136   4.150  17.482  0.00  0.00    +0.000 NA
ATOM     15  H   UNL     1       9.032   4.644  18.537  0.00  0.00    +0.000 HD
ATOM     16  H   UNL     1       8.240   3.180  18.164  0.00  0.00    +0.000 HD
ENDBRANCH   1   8
BRANCH   5  17
ATOM     17  N   UNL     1       1.776   6.645  20.828  0.00  0.00    +0.000 N 
ATOM     18  C   UNL     1       1.686   7.874  20.193  0.00  0.00    +0.000 C 
ATOM     19  O   UNL     1       2.225   8.159  19.120  0.00  0.00    +0.000 OA
ATOM     20  H   UNL     1       1.403   6.573  21.768  0.00  0.00    +0.000 HD
BRANCH  18  21
ATOM     21  C   UNL     1       0.880   8.956  20.823  0.00  0.00    +0.000 A 
ATOM     22  C   UNL     1       0.847   8.927  22.235  0.00  0.00    +0.000 A 
ATOM     23  C   UNL     1       0.042   9.803  22.961  0.00  0.00    +0.000 A 
ATOM     24  C   UNL     1      -0.742  10.726  22.283  0.00  0.00    +0.000 A 
ATOM     25 CL   UNL     1      -1.781  11.773  23.167  0.00  0.00    +0.000 Cl
ATOM     26  C   UNL     1      -0.705  10.794  20.890  0.00  0.00    +0.000 A 
ATOM     27  C   UNL     1       0.106   9.913  20.156  0.00  0.00    +0.000 A 
ATOM     28 CL   UNL     1       0.042  10.058  18.436  0.00  0.00    +0.000 Cl
ENDBRANCH  18  21
ENDBRANCH   5  17
TORSDOF 3
ENDMDL
MODEL 2
REMARK VINA RESULT:      -8.7      2.865      4.165
REMARK  Name = 
REMARK  4 active torsions:
REMARK  status: ('A' for Active; 'I' for Inactive)
REMARK    1  A    between atoms: C_1  and  C_2
REMARK    2  A    between atoms: C_2  and  C_3
REMARK    3  A    between atoms: C_7  and  N_8
REMARK    4  A    between atoms: C_9  and  C_11
REMARK                            x       y       z     vdW  Elec       q    Type
REMARK                         _______ _______ _______ _____ _____    ______ ____
ROOT
ATOM      1  C   UNL     1       3.075   5.542  18.654  0.00  0.00    +0.000 A 
ATOM      2  C   UNL     1       4.248   5.345  17.903  0.00  0.00    +0.000 A 
ATOM      3  C   UNL     1       4.754   6.343  17.076  0.00  0.00    +0.000 A 
ATOM      4  C   UNL     1       4.119   7.576  17.004  0.00  0.00    +0.000 A 
ATOM      5  C   UNL     1       2.979   7.836  17.766  0.00  0.00    +0.000 A 
ATOM      6  C   UNL     1       2.457   6.811  18.572  0.00  0.00    +0.000 A 
ENDROOT
BRANCH   1   8
ATOM      7  C   UNL     1       1.866   5.042  20.836  0.00  0.00    +0.000 C 
ATOM      8  C   UNL     1       2.520   4.421  19.563  0.00  0.00    +0.000 C 
ATOM      9  C   UNL     1       1.413   3.634  18.825  0.00  0.00    +0.000 C 
ATOM     10  C   UNL     1       1.699   2.231  18.318  0.00  0.00    +0.000 C 
ATOM     11  S   UNL     1       3.414   1.718  18.257  0.00  0.00    +0.000 S 
ATOM     12  C   UNL     1       3.993   2.488  19.687  0.00  0.00    +0.000 C 
ATOM     13  N   UNL     1       5.022   1.843  20.287  0.00  0.00    +0.000 N 
ATOM     14  N   UNL     1       3.581   3.602  20.146  0.00  0.00    +0.000 NA
ATOM     15  H   UNL     1       5.533   1.210  19.685  0.00  0.00    +0.000 HD
ATOM     16  H   UNL     1       5.605   2.473  20.830  0.00  0.00    +0.000 HD
ENDBRANCH   1   8
BRANCH   5  17
ATOM     17  N   UNL     1       2.317   9.087  17.757  0.00  0.00    +0.000 N 
ATOM     18  C   UNL     1       1.514   9.584  18.772  0.00  0.00    +0.000 C 
ATOM     19  O   UNL     1       1.234   8.983  19.814  0.00  0.00    +0.000 OA
ATOM     20  H   UNL     1       2.364   9.617  16.894  0.00  0.00    +0.000 HD
BRANCH  18  21
ATOM     21  C   UNL     1       0.931  10.947  18.631  0.00  0.00    +0.000 A 
ATOM     22  C   UNL     1       1.870  12.001  18.663  0.00  0.00    +0.000 A 
ATOM     23  C   UNL     1       1.466  13.336  18.660  0.00  0.00    +0.000 A 
ATOM     24  C   UNL     1       0.110  13.634  18.620  0.00  0.00    +0.000 A 
ATOM     25 CL   UNL     1      -0.400  15.276  18.672  0.00  0.00    +0.000 Cl
ATOM     26  C   UNL     1      -0.836  12.611  18.558  0.00  0.00    +0.000 A 
ATOM     27  C   UNL     1      -0.430  11.267  18.560  0.00  0.00    +0.000 A 
ATOM     28 CL   UNL     1      -1.688  10.082  18.523  0.00  0.00    +0.000 Cl
ENDBRANCH  18  21
ENDBRANCH   5  17
TORSDOF 3
ENDMDL
MODEL 3
REMARK VINA RESULT:      -8.6      1.237      1.352
REMARK  Name = 
REMARK  4 active torsions:
REMARK  status: ('A' for Active; 'I' for Inactive)
REMARK    1  A    between atoms: C_1  and  C_2
REMARK    2  A    between atoms: C_2  and  C_3
REMARK    3  A    between atoms: C_7  and  N_8
REMARK    4  A    between atoms: C_9  and  C_11
REMARK                            x       y       z     vdW  Elec       q    Type
REMARK                         _______ _______ _______ _____ _____    ______ ____
ROOT
ATOM      1  C   UNL     1       4.265   5.231  17.371  0.00  0.00    +0.000 A 
ATOM      2  C   UNL     1       3.586   4.002  17.280  0.00  0.00    +0.000 A 
ATOM      3  C   UNL     1       2.433   3.756  18.020  0.00  0.00    +0.000 A 
ATOM      4  C   UNL     1       1.910   4.744  18.844  0.00  0.00    +0.000 A 
ATOM      5  C   UNL     1       2.522   5.995  18.932  0.00  0.00    +0.000 A 
ATOM      6  C   UNL     1       3.703   6.222  18.208  0.00  0.00    +0.000 A 
ENDROOT
BRANCH   1   8
ATOM      7  C   UNL     1       5.332   5.045  15.070  0.00  0.00    +0.000 C 
ATOM      8  C   UNL     1       5.549   5.488  16.549  0.00  0.00    +0.000 C 
ATOM      9  C   UNL     1       5.875   6.999  16.525  0.00  0.00    +0.000 C 
ATOM     10  C   UNL     1       7.037   7.531  17.348  0.00  0.00    +0.000 C 
ATOM     11  S   UNL     1       7.718   6.444  18.598  0.00  0.00    +0.000 S 
ATOM     12  C   UNL     1       7.580   4.937  17.772  0.00  0.00    +0.000 C 
ATOM     13  N   UNL     1       8.524   4.028  18.114  0.00  0.00    +0.000 N 
ATOM     14  N   UNL     1       6.653   4.621  16.958  0.00  0.00    +0.000 NA
ATOM     15  H   UNL     1       8.968   4.195  19.008  0.00  0.00    +0.000 HD
ATOM     16  H   UNL     1       8.207   3.074  17.972  0.00  0.00    +0.000 HD
ENDBRANCH   1   8
BRANCH   5  17
ATOM     17  N   UNL     1       2.008   7.047  19.729  0.00  0.00    +0.000 N 
ATOM     18  C   UNL     1       1.543   8.265  19.256  0.00  0.00    +0.000 C 
ATOM     19  O   UNL     1       1.547   8.616  18.073  0.00  0.00    +0.000 OA
ATOM     20  H   UNL     1       2.077   6.928  20.733  0.00  0.00    +0.000 HD
BRANCH  18  21
ATOM     21  C   UNL     1       0.983   9.248  20.224  0.00  0.00    +0.000 A 
ATOM     22  C   UNL     1       0.409   8.681  21.383  0.00  0.00    +0.000 A 
ATOM     23  C   UNL     1      -0.258   9.466  22.323  0.00  0.00    +0.000 A 
ATOM     24  C   UNL     1      -0.358  10.835  22.117  0.00  0.00    +0.000 A 
ATOM     25 CL   UNL     1      -1.226  11.804  23.242  0.00  0.00    +0.000 Cl
ATOM     26  C   UNL     1       0.226  11.423  20.994  0.00  0.00    +0.000 A 
ATOM     27  C   UNL     1       0.899  10.634  20.047  0.00  0.00    +0.000 A 
ATOM     28 CL   UNL     1       1.547  11.462  18.676  0.00  0.00    +0.000 Cl
ENDBRANCH  18  21
ENDBRANCH   5  17
TORSDOF 3
ENDMDL
MODEL 4
REMARK VINA RESULT:      -8.6      2.432      3.537
REMARK  Name = 
REMARK  4 active torsions:
REMARK  status: ('A' for Active; 'I' for Inactive)
REMARK    1  A    between atoms: C_1  and  C_2
REMARK    2  A    between atoms: C_2  and  C_3
REMARK    3  A    between atoms: C_7  and  N_8
REMARK    4  A    between atoms: C_9  and  C_11
REMARK                            x       y       z     vdW  Elec       q    Type
REMARK                         _______ _______ _______ _____ _____    ______ ____
ROOT
ATOM      1  C   UNL     1       2.384   5.160  19.200  0.00  0.00    +0.000 A 
ATOM      2  C   UNL     1       3.171   5.381  18.055  0.00  0.00    +0.000 A 
ATOM      3  C   UNL     1       3.437   6.668  17.597  0.00  0.00    +0.000 A 
ATOM      4  C   UNL     1       2.953   7.768  18.292  0.00  0.00    +0.000 A 
ATOM      5  C   UNL     1       2.207   7.601  19.460  0.00  0.00    +0.000 A 
ATOM      6  C   UNL     1       1.915   6.299  19.894  0.00  0.00    +0.000 A 
ENDROOT
BRANCH   1   8
ATOM      7  C   UNL     1       1.104   3.768  20.901  0.00  0.00    +0.000 C 
ATOM      8  C   UNL     1       2.089   3.724  19.693  0.00  0.00    +0.000 C 
ATOM      9  C   UNL     1       1.398   2.908  18.576  0.00  0.00    +0.000 C 
ATOM     10  C   UNL     1       2.178   1.831  17.840  0.00  0.00    +0.000 C 
ATOM     11  S   UNL     1       3.959   1.834  18.036  0.00  0.00    +0.000 S 
ATOM     12  C   UNL     1       4.063   2.301  19.693  0.00  0.00    +0.000 C 
ATOM     13  N   UNL     1       5.149   1.814  20.339  0.00  0.00    +0.000 N 
ATOM     14  N   UNL     1       3.263   3.090  20.291  0.00  0.00    +0.000 NA
ATOM     15  H   UNL     1       5.911   1.534  19.735  0.00  0.00    +0.000 HD
ATOM     16  H   UNL     1       5.423   2.399  21.122  0.00  0.00    +0.000 HD
ENDBRANCH   1   8
BRANCH   5  17
ATOM     17  N   UNL     1       1.723   8.690  20.224  0.00  0.00    +0.000 N 
ATOM     18  C   UNL     1       0.819   9.646  19.787  0.00  0.00    +0.000 C 
ATOM     19  O   UNL     1       0.338   9.701  18.651  0.00  0.00    +0.000 OA
ATOM     20  H   UNL     1       2.149   8.828  21.134  0.00  0.00    +0.000 HD
BRANCH  18  21
ATOM     21  C   UNL     1       0.367  10.701  20.735  0.00  0.00    +0.000 A 
ATOM     22  C   UNL     1      -0.368  10.228  21.845  0.00  0.00    +0.000 A 
ATOM     23  C   UNL     1      -0.956  11.105  22.756  0.00  0.00    +0.000 A 
ATOM     24  C   UNL     1      -0.813  12.473  22.570  0.00  0.00    +0.000 A 
ATOM     25 CL   UNL     1      -1.581  13.564  23.656  0.00  0.00    +0.000 Cl
ATOM     26  C   UNL     1      -0.067  12.965  21.498  0.00  0.00    +0.000 A 
ATOM     27  C   UNL     1       0.527  12.083  20.581  0.00  0.00    +0.000 A 
ATOM     28 CL   UNL     1       1.392  12.803  19.270  0.00  0.00    +0.000 Cl
ENDBRANCH  18  21
ENDBRANCH   5  17
TORSDOF 3
ENDMDL
MODEL 5
REMARK VINA RESULT:      -8.6      2.328      3.875
REMARK  Name = 
REMARK  4 active torsions:
REMARK  status: ('A' for Active; 'I' for Inactive)
REMARK    1  A    between atoms: C_1  and  C_2
REMARK    2  A    between atoms: C_2  and  C_3
REMARK    3  A    between atoms: C_7  and  N_8
REMARK    4  A    between atoms: C_9  and  C_11
REMARK                            x       y       z     vdW  Elec       q    Type
REMARK                         _______ _______ _______ _____ _____    ______ ____
ROOT
ATOM      1  C   UNL     1       2.434   6.603  19.068  0.00  0.00    +0.000 A 
ATOM      2  C   UNL     1       3.007   7.048  17.862  0.00  0.00    +0.000 A 
ATOM      3  C   UNL     1       2.848   8.360  17.426  0.00  0.00    +0.000 A 
ATOM      4  C   UNL     1       2.140   9.270  18.201  0.00  0.00    +0.000 A 
ATOM      5  C   UNL     1       1.593   8.889  19.427  0.00  0.00    +0.000 A 
ATOM      6  C   UNL     1       1.730   7.554  19.842  0.00  0.00    +0.000 A 
ENDROOT
BRANCH   1   8
ATOM      7  C   UNL     1       2.141   4.993  21.016  0.00  0.00    +0.000 C 
ATOM      8  C   UNL     1       2.612   5.140  19.536  0.00  0.00    +0.000 C 
ATOM      9  C   UNL     1       1.731   4.197  18.686  0.00  0.00    +0.000 C 
ATOM     10  C   UNL     1       2.379   3.292  17.650  0.00  0.00    +0.000 C 
ATOM     11  S   UNL     1       4.076   3.651  17.201  0.00  0.00    +0.000 S 
ATOM     12  C   UNL     1       4.682   4.139  18.740  0.00  0.00    +0.000 C 
ATOM     13  N   UNL     1       5.999   3.881  18.924  0.00  0.00    +0.000 N 
ATOM     14  N   UNL     1       4.019   4.756  19.634  0.00  0.00    +0.000 NA
ATOM     15  H   UNL     1       6.529   3.756  18.071  0.00  0.00    +0.000 HD
ATOM     16  H   UNL     1       6.422   4.514  19.596  0.00  0.00    +0.000 HD
ENDBRANCH   1   8
BRANCH   5  17
ATOM     17  N   UNL     1       0.896   9.787  20.271  0.00  0.00    +0.000 N 
ATOM     18  C   UNL     1      -0.370  10.300  20.034  0.00  0.00    +0.000 C 
ATOM     19  O   UNL     1      -1.052  10.072  19.030  0.00  0.00    +0.000 OA
ATOM     20  H   UNL     1       1.410  10.152  21.064  0.00  0.00    +0.000 HD
BRANCH  18  21
ATOM     21  C   UNL     1      -0.988  11.196  21.050  0.00  0.00    +0.000 A 
ATOM     22  C   UNL     1      -1.554  12.382  20.532  0.00  0.00    +0.000 A 
ATOM     23  C   UNL     1      -2.064  13.371  21.371  0.00  0.00    +0.000 A 
ATOM     24  C   UNL     1      -2.020  13.185  22.746  0.00  0.00    +0.000 A 
ATOM     25 CL   UNL     1      -2.596  14.423  23.792  0.00  0.00    +0.000 Cl
ATOM     26  C   UNL     1      -1.493  12.009  23.282  0.00  0.00    +0.000 A 
ATOM     27  C   UNL     1      -0.980  11.011  22.437  0.00  0.00    +0.000 A 
ATOM     28 CL   UNL     1      -0.315   9.616  23.210  0.00  0.00    +0.000 Cl
ENDBRANCH  18  21
ENDBRANCH   5  17
TORSDOF 3
ENDMDL
MODEL 6
REMARK VINA RESULT:      -8.5      5.466      7.979
REMARK  Name = 
REMARK  4 active torsions:
REMARK  status: ('A' for Active; 'I' for Inactive)
REMARK    1  A    between atoms: C_1  and  C_2
REMARK    2  A    between atoms: C_2  and  C_3
REMARK    3  A    between atoms: C_7  and  N_8
REMARK    4  A    between atoms: C_9  and  C_11
REMARK                            x       y       z     vdW  Elec       q    Type
REMARK                         _______ _______ _______ _____ _____    ______ ____
ROOT
ATOM      1  C   UNL     1       6.131   6.501  17.664  0.00  0.00    +0.000 A 
ATOM      2  C   UNL     1       6.640   5.620  18.635  0.00  0.00    +0.000 A 
ATOM      3  C   UNL     1       7.831   5.888  19.302  0.00  0.00    +0.000 A 
ATOM      4  C   UNL     1       8.527   7.061  19.041  0.00  0.00    +0.000 A 
ATOM      5  C   UNL     1       8.038   7.989  18.120  0.00  0.00    +0.000 A 
ATOM      6  C   UNL     1       6.853   7.693  17.428  0.00  0.00    +0.000 A 
ENDROOT
BRANCH   1   8
ATOM      7  C   UNL     1       5.065   6.110  15.388  0.00  0.00    +0.000 C 
ATOM      8  C   UNL     1       4.810   6.187  16.924  0.00  0.00    +0.000 C 
ATOM      9  C   UNL     1       4.269   4.806  17.361  0.00  0.00    +0.000 C 
ATOM     10  C   UNL     1       3.055   4.728  18.273  0.00  0.00    +0.000 C 
ATOM     11  S   UNL     1       2.559   6.237  19.102  0.00  0.00    +0.000 S 
ATOM     12  C   UNL     1       2.900   7.375  17.853  0.00  0.00    +0.000 C 
ATOM     13  N   UNL     1       2.103   8.470  17.867  0.00  0.00    +0.000 N 
ATOM     14  N   UNL     1       3.850   7.286  17.010  0.00  0.00    +0.000 NA
ATOM     15  H   UNL     1       1.654   8.655  18.755  0.00  0.00    +0.000 HD
ATOM     16  H   UNL     1       2.553   9.277  17.446  0.00  0.00    +0.000 HD
ENDBRANCH   1   8
BRANCH   5  17
ATOM     17  N   UNL     1       8.690   9.215  17.845  0.00  0.00    +0.000 N 
ATOM     18  C   UNL     1       9.120  10.132  18.793  0.00  0.00    +0.000 C 
ATOM     19  O   UNL     1       8.959  10.021  20.012  0.00  0.00    +0.000 OA
ATOM     20  H   UNL     1       8.760   9.480  16.869  0.00  0.00    +0.000 HD
BRANCH  18  21
ATOM     21  C   UNL     1       9.840  11.354  18.341  0.00  0.00    +0.000 A 
ATOM     22  C   UNL     1      11.199  11.419  18.722  0.00  0.00    +0.000 A 
ATOM     23  C   UNL     1      11.970  12.553  18.472  0.00  0.00    +0.000 A 
ATOM     24  C   UNL     1      11.392  13.641  17.833  0.00  0.00    +0.000 A 
ATOM     25 CL   UNL     1      12.320  15.066  17.571  0.00  0.00    +0.000 Cl
ATOM     26  C   UNL     1      10.060  13.591  17.421  0.00  0.00    +0.000 A 
ATOM     27  C   UNL     1       9.282  12.449  17.670  0.00  0.00    +0.000 A 
ATOM     28 CL   UNL     1       7.634  12.512  17.153  0.00  0.00    +0.000 Cl
ENDBRANCH  18  21
ENDBRANCH   5  17
TORSDOF 3
ENDMDL
MODEL 7
REMARK VINA RESULT:      -8.5      2.179      2.754
REMARK  Name = 
REMARK  4 active torsions:
REMARK  status: ('A' for Active; 'I' for Inactive)
REMARK    1  A    between atoms: C_1  and  C_2
REMARK    2  A    between atoms: C_2  and  C_3
REMARK    3  A    between atoms: C_7  and  N_8
REMARK    4  A    between atoms: C_9  and  C_11
REMARK                            x       y       z     vdW  Elec       q    Type
REMARK                         _______ _______ _______ _____ _____    ______ ____
ROOT
ATOM      1  C   UNL     1       3.575   5.225  19.130  0.00  0.00    +0.000 A 
ATOM      2  C   UNL     1       2.829   4.428  20.017  0.00  0.00    +0.000 A 
ATOM      3  C   UNL     1       1.819   4.972  20.805  0.00  0.00    +0.000 A 
ATOM      4  C   UNL     1       1.505   6.321  20.700  0.00  0.00    +0.000 A 
ATOM      5  C   UNL     1       2.185   7.143  19.801  0.00  0.00    +0.000 A 
ATOM      6  C   UNL     1       3.225   6.592  19.036  0.00  0.00    +0.000 A 
ENDROOT
BRANCH   1   8
ATOM      7  C   UNL     1       4.439   3.085  18.061  0.00  0.00    +0.000 C 
ATOM      8  C   UNL     1       4.700   4.609  18.267  0.00  0.00    +0.000 C 
ATOM      9  C   UNL     1       4.715   5.258  16.865  0.00  0.00    +0.000 C 
ATOM     10  C   UNL     1       5.819   6.237  16.501  0.00  0.00    +0.000 C 
ATOM     11  S   UNL     1       6.816   6.879  17.844  0.00  0.00    +0.000 S 
ATOM     12  C   UNL     1       6.905   5.470  18.833  0.00  0.00    +0.000 C 
ATOM     13  N   UNL     1       8.038   5.379  19.569  0.00  0.00    +0.000 N 
ATOM     14  N   UNL     1       5.987   4.596  18.960  0.00  0.00    +0.000 NA
ATOM     15  H   UNL     1       8.521   6.257  19.712  0.00  0.00    +0.000 HD
ATOM     16  H   UNL     1       7.905   4.827  20.411  0.00  0.00    +0.000 HD
ENDBRANCH   1   8
BRANCH   5  17
ATOM     17  N   UNL     1       1.878   8.515  19.630  0.00  0.00    +0.000 N 
ATOM     18  C   UNL     1       1.639   9.144  18.419  0.00  0.00    +0.000 C 
ATOM     19  O   UNL     1       1.698   8.600  17.312  0.00  0.00    +0.000 OA
ATOM     20  H   UNL     1       1.932   9.096  20.459  0.00  0.00    +0.000 HD
BRANCH  18  21
ATOM     21  C   UNL     1       1.275  10.588  18.414  0.00  0.00    +0.000 A 
ATOM     22  C   UNL     1       2.359  11.474  18.223  0.00  0.00    +0.000 A 
ATOM     23  C   UNL     1       2.193  12.856  18.311  0.00  0.00    +0.000 A 
ATOM     24  C   UNL     1       0.935  13.373  18.589  0.00  0.00    +0.000 A 
ATOM     25 CL   UNL     1       0.732  15.072  18.754  0.00  0.00    +0.000 Cl
ATOM     26  C   UNL     1      -0.157  12.520  18.753  0.00  0.00    +0.000 A 
ATOM     27  C   UNL     1       0.008  11.128  18.663  0.00  0.00    +0.000 A 
ATOM     28 CL   UNL     1      -1.404  10.167  18.925  0.00  0.00    +0.000 Cl
ENDBRANCH  18  21
ENDBRANCH   5  17
TORSDOF 3
ENDMDL
MODEL 8
REMARK VINA RESULT:      -8.4      4.092      8.144
REMARK  Name = 
REMARK  4 active torsions:
REMARK  status: ('A' for Active; 'I' for Inactive)
REMARK    1  A    between atoms: C_1  and  C_2
REMARK    2  A    between atoms: C_2  and  C_3
REMARK    3  A    between atoms: C_7  and  N_8
REMARK    4  A    between atoms: C_9  and  C_11
REMARK                            x       y       z     vdW  Elec       q    Type
REMARK                         _______ _______ _______ _____ _____    ______ ____
ROOT
ATOM      1  C   UNL     1       0.788   9.904  19.696  0.00  0.00    +0.000 A 
ATOM      2  C   UNL     1       0.570   9.373  20.981  0.00  0.00    +0.000 A 
ATOM      3  C   UNL     1       1.047   8.114  21.334  0.00  0.00    +0.000 A 
ATOM      4  C   UNL     1       1.783   7.368  20.423  0.00  0.00    +0.000 A 
ATOM      5  C   UNL     1       2.066   7.872  19.153  0.00  0.00    +0.000 A 
ATOM      6  C   UNL     1       1.551   9.128  18.795  0.00  0.00    +0.000 A 
ENDROOT
BRANCH   1   8
ATOM      7  C   UNL     1      -1.014  11.154  18.406  0.00  0.00    +0.000 C 
ATOM      8  C   UNL     1       0.245  11.301  19.315  0.00  0.00    +0.000 C 
ATOM      9  C   UNL     1      -0.201  12.065  20.583  0.00  0.00    +0.000 C 
ATOM     10  C   UNL     1       0.644  13.217  21.102  0.00  0.00    +0.000 C 
ATOM     11  S   UNL     1       2.303  13.374  20.447  0.00  0.00    +0.000 S 
ATOM     12  C   UNL     1       2.012  12.898  18.815  0.00  0.00    +0.000 C 
ATOM     13  N   UNL     1       2.842  13.474  17.913  0.00  0.00    +0.000 N 
ATOM     14  N   UNL     1       1.159  12.032  18.438  0.00  0.00    +0.000 NA
ATOM     15  H   UNL     1       3.707  13.829  18.300  0.00  0.00    +0.000 HD
ATOM     16  H   UNL     1       2.954  12.906  17.079  0.00  0.00    +0.000 HD
ENDBRANCH   1   8
BRANCH   5  17
ATOM     17  N   UNL     1       2.843   7.167  18.202  0.00  0.00    +0.000 N 
ATOM     18  C   UNL     1       3.749   6.158  18.487  0.00  0.00    +0.000 C 
ATOM     19  O   UNL     1       4.033   5.759  19.620  0.00  0.00    +0.000 OA
ATOM     20  H   UNL     1       2.794   7.498  17.245  0.00  0.00    +0.000 HD
BRANCH  18  21
ATOM     21  C   UNL     1       4.451   5.477  17.364  0.00  0.00    +0.000 A 
ATOM     22  C   UNL     1       4.959   6.342  16.369  0.00  0.00    +0.000 A 
ATOM     23  C   UNL     1       5.536   5.846  15.201  0.00  0.00    +0.000 A 
ATOM     24  C   UNL     1       5.617   4.473  15.013  0.00  0.00    +0.000 A 
ATOM     25 CL   UNL     1       6.276   3.853  13.550  0.00  0.00    +0.000 Cl
ATOM     26  C   UNL     1       5.149   3.598  15.994  0.00  0.00    +0.000 A 
ATOM     27  C   UNL     1       4.568   4.096  17.171  0.00  0.00    +0.000 A 
ATOM     28 CL   UNL     1       3.985   2.922  18.298  0.00  0.00    +0.000 Cl
ENDBRANCH  18  21
ENDBRANCH   5  17
TORSDOF 3
ENDMDL
MODEL 9
REMARK VINA RESULT:      -8.4      3.736      7.907
REMARK  Name = 
REMARK  4 active torsions:
REMARK  status: ('A' for Active; 'I' for Inactive)
REMARK    1  A    between atoms: C_1  and  C_2
REMARK    2  A    between atoms: C_2  and  C_3
REMARK    3  A    between atoms: C_7  and  N_8
REMARK    4  A    between atoms: C_9  and  C_11
REMARK                            x       y       z     vdW  Elec       q    Type
REMARK                         _______ _______ _______ _____ _____    ______ ____
ROOT
ATOM      1  C   UNL     1       0.296  10.680  20.530  0.00  0.00    +0.000 A 
ATOM      2  C   UNL     1      -0.112  10.437  21.854  0.00  0.00    +0.000 A 
ATOM      3  C   UNL     1       0.166   9.229  22.487  0.00  0.00    +0.000 A 
ATOM      4  C   UNL     1       0.889   8.246  21.825  0.00  0.00    +0.000 A 
ATOM      5  C   UNL     1       1.357   8.458  20.527  0.00  0.00    +0.000 A 
ATOM      6  C   UNL     1       1.042   9.666  19.885  0.00  0.00    +0.000 A 
ENDROOT
BRANCH   1   8
ATOM      7  C   UNL     1      -1.458  11.973  19.218  0.00  0.00    +0.000 C 
ATOM      8  C   UNL     1      -0.027  12.023  19.836  0.00  0.00    +0.000 C 
ATOM      9  C   UNL     1      -0.022  13.172  20.870  0.00  0.00    +0.000 C 
ATOM     10  C   UNL     1       1.129  14.166  20.883  0.00  0.00    +0.000 C 
ATOM     11  S   UNL     1       2.601  13.723  19.964  0.00  0.00    +0.000 S 
ATOM     12  C   UNL     1       1.869  12.936  18.615  0.00  0.00    +0.000 C 
ATOM     13  N   UNL     1       2.578  13.032  17.465  0.00  0.00    +0.000 N 
ATOM     14  N   UNL     1       0.799  12.249  18.651  0.00  0.00    +0.000 NA
ATOM     15  H   UNL     1       3.561  13.243  17.590  0.00  0.00    +0.000 HD
ATOM     16  H   UNL     1       2.389  12.261  16.833  0.00  0.00    +0.000 HD
ENDBRANCH   1   8
BRANCH   5  17
ATOM     17  N   UNL     1       2.130   7.503  19.823  0.00  0.00    +0.000 N 
ATOM     18  C   UNL     1       2.368   7.505  18.457  0.00  0.00    +0.000 C 
ATOM     19  O   UNL     1       1.904   8.323  17.657  0.00  0.00    +0.000 OA
ATOM     20  H   UNL     1       2.455   6.704  20.355  0.00  0.00    +0.000 HD
BRANCH  18  21
ATOM     21  C   UNL     1       3.250   6.456  17.876  0.00  0.00    +0.000 A 
ATOM     22  C   UNL     1       4.419   6.942  17.250  0.00  0.00    +0.000 A 
ATOM     23  C   UNL     1       5.282   6.092  16.560  0.00  0.00    +0.000 A 
ATOM     24  C   UNL     1       4.988   4.737  16.490  0.00  0.00    +0.000 A 
ATOM     25 CL   UNL     1       6.016   3.689  15.594  0.00  0.00    +0.000 Cl
ATOM     26  C   UNL     1       3.855   4.227  17.125  0.00  0.00    +0.000 A 
ATOM     27  C   UNL     1       2.985   5.083  17.821  0.00  0.00    +0.000 A 
ATOM     28 CL   UNL     1       1.592   4.350  18.534  0.00  0.00    +0.000 Cl
ENDBRANCH  18  21
ENDBRANCH   5  17
TORSDOF 3
ENDMDL
