MODEL 1
REMARK VINA RESULT:      -7.5      0.000      0.000
REMARK  Name = 
REMARK  2 active torsions:
REMARK  status: ('A' for Active; 'I' for Inactive)
REMARK    1  A    between atoms: C_2  and  C_3
REMARK    2  A    between atoms: C_14  and  N_15
REMARK                            x       y       z     vdW  Elec       q    Type
REMARK                         _______ _______ _______ _____ _____    ______ ____
ROOT
ATOM      1  O   UNL     1       0.907   8.725  21.074  0.00  0.00    +0.000 OA
ATOM      2  C   UNL     1       1.145   8.983  19.894  0.00  0.00    +0.000 C 
ATOM      3  N   UNL     1       2.035   8.129  19.201  0.00  0.00    +0.000 N 
ATOM      4  N   UNL     1       2.652   8.618  18.085  0.00  0.00    +0.000 NA
ATOM      5  C   UNL     1       3.348   7.599  17.601  0.00  0.00    +0.000 A 
ATOM      6  C   UNL     1       3.207   6.433  18.369  0.00  0.00    +0.000 A 
ATOM      7  C   UNL     1       3.693   5.124  18.253  0.00  0.00    +0.000 A 
ATOM      8  C   UNL     1       3.307   4.183  19.221  0.00  0.00    +0.000 A 
ATOM      9  C   UNL     1       2.457   4.522  20.276  0.00  0.00    +0.000 A 
ATOM     10 BR   UNL     1       1.835   3.246  21.543  0.00  0.00    +0.000 Br
ATOM     11  C   UNL     1       1.976   5.841  20.398  0.00  0.00    +0.000 A 
ATOM     12  C   UNL     1       2.372   6.786  19.429  0.00  0.00    +0.000 A 
ENDROOT
BRANCH   2  13
ATOM     13  C   UNL     1       0.432  10.118  19.226  0.00  0.00    +0.000 A 
ATOM     14  C   UNL     1       0.797  11.447  19.470  0.00  0.00    +0.000 A 
ATOM     15  C   UNL     1      -0.004  12.489  18.986  0.00  0.00    +0.000 A 
ATOM     16  C   UNL     1      -1.167  12.210  18.262  0.00  0.00    +0.000 A 
ATOM     17  C   UNL     1      -1.509  10.892  17.980  0.00  0.00    +0.000 A 
ATOM     18  C   UNL     1      -0.714   9.852  18.458  0.00  0.00    +0.000 A 
ENDBRANCH   2  13
BRANCH   8  19
ATOM     19  N   UNL     1       3.827   2.844  19.056  0.00  0.00    +0.000 N 
ATOM     20  O   UNL     1       3.281   2.130  18.207  0.00  0.00    +0.000 OA
ATOM     21  O   UNL     1       4.834   2.539  19.713  0.00  0.00    +0.000 OA
ENDBRANCH   8  19
TORSDOF 2
ENDMDL
MODEL 2
REMARK VINA RESULT:      -7.3      0.307      1.096
REMARK  Name = 
REMARK  2 active torsions:
REMARK  status: ('A' for Active; 'I' for Inactive)
REMARK    1  A    between atoms: C_2  and  C_3
REMARK    2  A    between atoms: C_14  and  N_15
REMARK                            x       y       z     vdW  Elec       q    Type
REMARK                         _______ _______ _______ _____ _____    ______ ____
ROOT
ATOM      1  O   UNL     1       0.877   8.654  21.445  0.00  0.00    +0.000 OA
ATOM      2  C   UNL     1       1.012   8.971  20.263  0.00  0.00    +0.000 C 
ATOM      3  N   UNL     1       1.871   8.180  19.463  0.00  0.00    +0.000 N 
ATOM      4  N   UNL     1       2.380   8.740  18.326  0.00  0.00    +0.000 NA
ATOM      5  C   UNL     1       3.069   7.768  17.743  0.00  0.00    +0.000 A 
ATOM      6  C   UNL     1       3.028   6.567  18.465  0.00  0.00    +0.000 A 
ATOM      7  C   UNL     1       3.546   5.281  18.251  0.00  0.00    +0.000 A 
ATOM      8  C   UNL     1       3.270   4.287  19.202  0.00  0.00    +0.000 A 
ATOM      9  C   UNL     1       2.496   4.548  20.336  0.00  0.00    +0.000 A 
ATOM     10 BR   UNL     1       2.019   3.197  21.586  0.00  0.00    +0.000 Br
ATOM     11  C   UNL     1       1.983   5.842  20.555  0.00  0.00    +0.000 A 
ATOM     12  C   UNL     1       2.269   6.843  19.603  0.00  0.00    +0.000 A 
ENDROOT
BRANCH   2  13
ATOM     13  C   UNL     1       0.211  10.107  19.706  0.00  0.00    +0.000 A 
ATOM     14  C   UNL     1      -0.813   9.885  18.778  0.00  0.00    +0.000 A 
ATOM     15  C   UNL     1      -1.415  10.972  18.132  0.00  0.00    +0.000 A 
ATOM     16  C   UNL     1      -0.997  12.278  18.406  0.00  0.00    +0.000 A 
ATOM     17  C   UNL     1      -0.011  12.505  19.359  0.00  0.00    +0.000 A 
ATOM     18  C   UNL     1       0.590  11.427  20.006  0.00  0.00    +0.000 A 
ENDBRANCH   2  13
BRANCH   8  19
ATOM     19  N   UNL     1       3.818   2.976  18.935  0.00  0.00    +0.000 N 
ATOM     20  O   UNL     1       3.276   2.310  18.046  0.00  0.00    +0.000 OA
ATOM     21  O   UNL     1       4.842   2.649  19.556  0.00  0.00    +0.000 OA
ENDBRANCH   8  19
TORSDOF 2
ENDMDL
MODEL 3
REMARK VINA RESULT:      -7.3      5.427      7.345
REMARK  Name = 
REMARK  2 active torsions:
REMARK  status: ('A' for Active; 'I' for Inactive)
REMARK    1  A    between atoms: C_2  and  C_3
REMARK    2  A    between atoms: C_14  and  N_15
REMARK                            x       y       z     vdW  Elec       q    Type
REMARK                         _______ _______ _______ _____ _____    ______ ____
ROOT
ATOM      1  O   UNL     1       3.566   1.984  17.309  0.00  0.00    +0.000 OA
ATOM      2  C   UNL     1       3.942   2.889  18.053  0.00  0.00    +0.000 C 
ATOM      3  N   UNL     1       5.089   3.624  17.668  0.00  0.00    +0.000 N 
ATOM      4  N   UNL     1       5.773   4.297  18.640  0.00  0.00    +0.000 NA
ATOM      5  C   UNL     1       6.731   4.951  17.998  0.00  0.00    +0.000 A 
ATOM      6  C   UNL     1       6.700   4.733  16.612  0.00  0.00    +0.000 A 
ATOM      7  C   UNL     1       7.452   5.215  15.532  0.00  0.00    +0.000 A 
ATOM      8  C   UNL     1       7.106   4.790  14.239  0.00  0.00    +0.000 A 
ATOM      9  C   UNL     1       6.041   3.915  14.014  0.00  0.00    +0.000 A 
ATOM     10 BR   UNL     1       5.485   3.403  12.268  0.00  0.00    +0.000 Br
ATOM     11  C   UNL     1       5.291   3.423  15.101  0.00  0.00    +0.000 A 
ATOM     12  C   UNL     1       5.645   3.844  16.400  0.00  0.00    +0.000 A 
ENDROOT
BRANCH   2  13
ATOM     13  C   UNL     1       3.138   3.229  19.270  0.00  0.00    +0.000 A 
ATOM     14  C   UNL     1       3.336   2.556  20.481  0.00  0.00    +0.000 A 
ATOM     15  C   UNL     1       2.446   2.758  21.543  0.00  0.00    +0.000 A 
ATOM     16  C   UNL     1       1.360   3.627  21.401  0.00  0.00    +0.000 A 
ATOM     17  C   UNL     1       1.185   4.330  20.215  0.00  0.00    +0.000 A 
ATOM     18  C   UNL     1       2.069   4.134  19.155  0.00  0.00    +0.000 A 
ENDBRANCH   2  13
BRANCH   8  19
ATOM     19  N   UNL     1       7.904   5.319  13.156  0.00  0.00    +0.000 N 
ATOM     20  O   UNL     1       8.851   6.053  13.462  0.00  0.00    +0.000 OA
ATOM     21  O   UNL     1       7.636   4.931  12.008  0.00  0.00    +0.000 OA
ENDBRANCH   8  19
TORSDOF 2
ENDMDL
MODEL 4
REMARK VINA RESULT:      -7.0      2.715      6.946
REMARK  Name = 
REMARK  2 active torsions:
REMARK  status: ('A' for Active; 'I' for Inactive)
REMARK    1  A    between atoms: C_2  and  C_3
REMARK    2  A    between atoms: C_14  and  N_15
REMARK                            x       y       z     vdW  Elec       q    Type
REMARK                         _______ _______ _______ _____ _____    ______ ____
ROOT
ATOM      1  O   UNL     1       2.195   5.390  20.273  0.00  0.00    +0.000 OA
ATOM      2  C   UNL     1       2.788   5.967  19.361  0.00  0.00    +0.000 C 
ATOM      3  N   UNL     1       2.338   7.259  18.997  0.00  0.00    +0.000 N 
ATOM      4  N   UNL     1       2.656   7.719  17.751  0.00  0.00    +0.000 NA
ATOM      5  C   UNL     1       2.189   8.959  17.712  0.00  0.00    +0.000 A 
ATOM      6  C   UNL     1       1.567   9.341  18.909  0.00  0.00    +0.000 A 
ATOM      7  C   UNL     1       0.971  10.526  19.365  0.00  0.00    +0.000 A 
ATOM      8  C   UNL     1       0.465  10.555  20.674  0.00  0.00    +0.000 A 
ATOM      9  C   UNL     1       0.548   9.445  21.519  0.00  0.00    +0.000 A 
ATOM     10 BR   UNL     1      -0.035   9.488  23.329  0.00  0.00    +0.000 Br
ATOM     11  C   UNL     1       1.139   8.252  21.058  0.00  0.00    +0.000 A 
ATOM     12  C   UNL     1       1.639   8.222  19.739  0.00  0.00    +0.000 A 
ENDROOT
BRANCH   2  13
ATOM     13  C   UNL     1       3.993   5.329  18.742  0.00  0.00    +0.000 A 
ATOM     14  C   UNL     1       5.276   5.552  19.257  0.00  0.00    +0.000 A 
ATOM     15  C   UNL     1       6.398   5.102  18.550  0.00  0.00    +0.000 A 
ATOM     16  C   UNL     1       6.245   4.434  17.331  0.00  0.00    +0.000 A 
ATOM     17  C   UNL     1       4.972   4.173  16.838  0.00  0.00    +0.000 A 
ATOM     18  C   UNL     1       3.852   4.617  17.539  0.00  0.00    +0.000 A 
ENDBRANCH   2  13
BRANCH   8  19
ATOM     19  N   UNL     1      -0.134  11.800  21.101  0.00  0.00    +0.000 N 
ATOM     20  O   UNL     1       0.613  12.629  21.635  0.00  0.00    +0.000 OA
ATOM     21  O   UNL     1      -1.330  11.981  20.826  0.00  0.00    +0.000 OA
ENDBRANCH   8  19
TORSDOF 2
ENDMDL
MODEL 5
REMARK VINA RESULT:      -7.0      5.217      7.281
REMARK  Name = 
REMARK  2 active torsions:
REMARK  status: ('A' for Active; 'I' for Inactive)
REMARK    1  A    between atoms: C_2  and  C_3
REMARK    2  A    between atoms: C_14  and  N_15
REMARK                            x       y       z     vdW  Elec       q    Type
REMARK                         _______ _______ _______ _____ _____    ______ ____
ROOT
ATOM      1  O   UNL     1       3.620   1.969  17.251  0.00  0.00    +0.000 OA
ATOM      2  C   UNL     1       3.902   2.935  17.961  0.00  0.00    +0.000 C 
ATOM      3  N   UNL     1       5.017   3.723  17.590  0.00  0.00    +0.000 N 
ATOM      4  N   UNL     1       5.608   4.489  18.553  0.00  0.00    +0.000 NA
ATOM      5  C   UNL     1       6.554   5.170  17.920  0.00  0.00    +0.000 A 
ATOM      6  C   UNL     1       6.605   4.878  16.549  0.00  0.00    +0.000 A 
ATOM      7  C   UNL     1       7.378   5.351  15.479  0.00  0.00    +0.000 A 
ATOM      8  C   UNL     1       7.124   4.838  14.198  0.00  0.00    +0.000 A 
ATOM      9  C   UNL     1       6.128   3.884  13.972  0.00  0.00    +0.000 A 
ATOM     10 BR   UNL     1       5.692   3.248  12.233  0.00  0.00    +0.000 Br
ATOM     11  C   UNL     1       5.358   3.402  15.049  0.00  0.00    +0.000 A 
ATOM     12  C   UNL     1       5.620   3.912  16.338  0.00  0.00    +0.000 A 
ENDROOT
BRANCH   2  13
ATOM     13  C   UNL     1       3.018   3.284  19.119  0.00  0.00    +0.000 A 
ATOM     14  C   UNL     1       2.204   4.423  19.092  0.00  0.00    +0.000 A 
ATOM     15  C   UNL     1       1.537   4.830  20.254  0.00  0.00    +0.000 A 
ATOM     16  C   UNL     1       1.681   4.107  21.443  0.00  0.00    +0.000 A 
ATOM     17  C   UNL     1       2.454   2.952  21.462  0.00  0.00    +0.000 A 
ATOM     18  C   UNL     1       3.118   2.542  20.308  0.00  0.00    +0.000 A 
ENDBRANCH   2  13
BRANCH   8  19
ATOM     19  N   UNL     1       7.939   5.362  13.125  0.00  0.00    +0.000 N 
ATOM     20  O   UNL     1       8.950   5.997  13.445  0.00  0.00    +0.000 OA
ATOM     21  O   UNL     1       7.614   5.063  11.965  0.00  0.00    +0.000 OA
ENDBRANCH   8  19
TORSDOF 2
ENDMDL
MODEL 6
REMARK VINA RESULT:      -6.9      2.761      7.040
REMARK  Name = 
REMARK  2 active torsions:
REMARK  status: ('A' for Active; 'I' for Inactive)
REMARK    1  A    between atoms: C_2  and  C_3
REMARK    2  A    between atoms: C_14  and  N_15
REMARK                            x       y       z     vdW  Elec       q    Type
REMARK                         _______ _______ _______ _____ _____    ______ ____
ROOT
ATOM      1  O   UNL     1       2.017   5.631  20.084  0.00  0.00    +0.000 OA
ATOM      2  C   UNL     1       2.613   6.254  19.205  0.00  0.00    +0.000 C 
ATOM      3  N   UNL     1       2.170   7.566  18.912  0.00  0.00    +0.000 N 
ATOM      4  N   UNL     1       2.492   8.092  17.694  0.00  0.00    +0.000 NA
ATOM      5  C   UNL     1       2.031   9.335  17.723  0.00  0.00    +0.000 A 
ATOM      6  C   UNL     1       1.411   9.655  18.940  0.00  0.00    +0.000 A 
ATOM      7  C   UNL     1       0.821  10.815  19.460  0.00  0.00    +0.000 A 
ATOM      8  C   UNL     1       0.315  10.775  20.768  0.00  0.00    +0.000 A 
ATOM      9  C   UNL     1       0.392   9.620  21.551  0.00  0.00    +0.000 A 
ATOM     10 BR   UNL     1      -0.191   9.567  23.361  0.00  0.00    +0.000 Br
ATOM     11  C   UNL     1       0.976   8.451  21.025  0.00  0.00    +0.000 A 
ATOM     12  C   UNL     1       1.477   8.491  19.707  0.00  0.00    +0.000 A 
ENDROOT
BRANCH   2  13
ATOM     13  C   UNL     1       3.815   5.644  18.552  0.00  0.00    +0.000 A 
ATOM     14  C   UNL     1       3.699   4.898  17.373  0.00  0.00    +0.000 A 
ATOM     15  C   UNL     1       4.802   4.183  16.891  0.00  0.00    +0.000 A 
ATOM     16  C   UNL     1       6.018   4.207  17.580  0.00  0.00    +0.000 A 
ATOM     17  C   UNL     1       6.149   4.982  18.727  0.00  0.00    +0.000 A 
ATOM     18  C   UNL     1       5.055   5.697  19.210  0.00  0.00    +0.000 A 
ENDBRANCH   2  13
BRANCH   8  19
ATOM     19  N   UNL     1      -0.276  11.998  21.264  0.00  0.00    +0.000 N 
ATOM     20  O   UNL     1      -1.501  12.120  21.142  0.00  0.00    +0.000 OA
ATOM     21  O   UNL     1       0.472  12.795  21.851  0.00  0.00    +0.000 OA
ENDBRANCH   8  19
TORSDOF 2
ENDMDL
MODEL 7
REMARK VINA RESULT:      -6.5      3.647      7.403
REMARK  Name = 
REMARK  2 active torsions:
REMARK  status: ('A' for Active; 'I' for Inactive)
REMARK    1  A    between atoms: C_2  and  C_3
REMARK    2  A    between atoms: C_14  and  N_15
REMARK                            x       y       z     vdW  Elec       q    Type
REMARK                         _______ _______ _______ _____ _____    ______ ____
ROOT
ATOM      1  O   UNL     1       2.767   8.560  17.342  0.00  0.00    +0.000 OA
ATOM      2  C   UNL     1       2.482   7.756  18.230  0.00  0.00    +0.000 C 
ATOM      3  N   UNL     1       1.864   8.260  19.400  0.00  0.00    +0.000 N 
ATOM      4  N   UNL     1       1.946   7.510  20.539  0.00  0.00    +0.000 NA
ATOM      5  C   UNL     1       1.225   8.168  21.437  0.00  0.00    +0.000 A 
ATOM      6  C   UNL     1       0.658   9.343  20.920  0.00  0.00    +0.000 A 
ATOM      7  C   UNL     1      -0.191  10.328  21.443  0.00  0.00    +0.000 A 
ATOM      8  C   UNL     1      -0.592  11.376  20.600  0.00  0.00    +0.000 A 
ATOM      9  C   UNL     1      -0.171  11.451  19.270  0.00  0.00    +0.000 A 
ATOM     10 BR   UNL     1      -0.780  12.801  18.076  0.00  0.00    +0.000 Br
ATOM     11  C   UNL     1       0.689  10.465  18.747  0.00  0.00    +0.000 A 
ATOM     12  C   UNL     1       1.097   9.417  19.598  0.00  0.00    +0.000 A 
ENDROOT
BRANCH   2  13
ATOM     13  C   UNL     1       2.715   6.294  18.007  0.00  0.00    +0.000 A 
ATOM     14  C   UNL     1       3.969   5.811  17.616  0.00  0.00    +0.000 A 
ATOM     15  C   UNL     1       4.111   4.472  17.230  0.00  0.00    +0.000 A 
ATOM     16  C   UNL     1       3.007   3.615  17.232  0.00  0.00    +0.000 A 
ATOM     17  C   UNL     1       1.769   4.079  17.662  0.00  0.00    +0.000 A 
ATOM     18  C   UNL     1       1.623   5.410  18.049  0.00  0.00    +0.000 A 
ENDBRANCH   2  13
BRANCH   8  19
ATOM     19  N   UNL     1      -1.473  12.364  21.181  0.00  0.00    +0.000 N 
ATOM     20  O   UNL     1      -0.944  13.332  21.739  0.00  0.00    +0.000 OA
ATOM     21  O   UNL     1      -2.692  12.215  21.003  0.00  0.00    +0.000 OA
ENDBRANCH   8  19
TORSDOF 2
ENDMDL
MODEL 8
REMARK VINA RESULT:      -6.4      3.656      7.383
REMARK  Name = 
REMARK  2 active torsions:
REMARK  status: ('A' for Active; 'I' for Inactive)
REMARK    1  A    between atoms: C_2  and  C_3
REMARK    2  A    between atoms: C_14  and  N_15
REMARK                            x       y       z     vdW  Elec       q    Type
REMARK                         _______ _______ _______ _____ _____    ______ ____
ROOT
ATOM      1  O   UNL     1       2.783   8.605  17.282  0.00  0.00    +0.000 OA
ATOM      2  C   UNL     1       2.475   7.753  18.116  0.00  0.00    +0.000 C 
ATOM      3  N   UNL     1       1.886   8.197  19.324  0.00  0.00    +0.000 N 
ATOM      4  N   UNL     1       1.948   7.368  20.407  0.00  0.00    +0.000 NA
ATOM      5  C   UNL     1       1.259   7.989  21.356  0.00  0.00    +0.000 A 
ATOM      6  C   UNL     1       0.733   9.216  20.927  0.00  0.00    +0.000 A 
ATOM      7  C   UNL     1      -0.074  10.194  21.525  0.00  0.00    +0.000 A 
ATOM      8  C   UNL     1      -0.441  11.313  20.760  0.00  0.00    +0.000 A 
ATOM      9  C   UNL     1      -0.029  11.463  19.434  0.00  0.00    +0.000 A 
ATOM     10 BR   UNL     1      -0.595  12.914  18.342  0.00  0.00    +0.000 Br
ATOM     11  C   UNL     1       0.790  10.485  18.836  0.00  0.00    +0.000 A 
ATOM     12  C   UNL     1       1.165   9.366  19.609  0.00  0.00    +0.000 A 
ENDROOT
BRANCH   2  13
ATOM     13  C   UNL     1       2.650   6.302  17.791  0.00  0.00    +0.000 A 
ATOM     14  C   UNL     1       1.578   5.406  17.871  0.00  0.00    +0.000 A 
ATOM     15  C   UNL     1       1.809   4.030  17.749  0.00  0.00    +0.000 A 
ATOM     16  C   UNL     1       3.105   3.545  17.550  0.00  0.00    +0.000 A 
ATOM     17  C   UNL     1       4.167   4.434  17.427  0.00  0.00    +0.000 A 
ATOM     18  C   UNL     1       3.941   5.805  17.545  0.00  0.00    +0.000 A 
ENDBRANCH   2  13
BRANCH   8  19
ATOM     19  N   UNL     1      -1.280  12.290  21.417  0.00  0.00    +0.000 N 
ATOM     20  O   UNL     1      -2.495  12.230  21.194  0.00  0.00    +0.000 OA
ATOM     21  O   UNL     1      -0.734  13.062  22.221  0.00  0.00    +0.000 OA
ENDBRANCH   8  19
TORSDOF 2
ENDMDL
MODEL 9
REMARK VINA RESULT:      -6.3      2.241      2.982
REMARK  Name = 
REMARK  2 active torsions:
REMARK  status: ('A' for Active; 'I' for Inactive)
REMARK    1  A    between atoms: C_2  and  C_3
REMARK    2  A    between atoms: C_14  and  N_15
REMARK                            x       y       z     vdW  Elec       q    Type
REMARK                         _______ _______ _______ _____ _____    ______ ____
ROOT
ATOM      1  O   UNL     1       1.174   9.991  17.696  0.00  0.00    +0.000 OA
ATOM      2  C   UNL     1       1.070   9.830  18.912  0.00  0.00    +0.000 C 
ATOM      3  N   UNL     1       1.455   8.577  19.446  0.00  0.00    +0.000 N 
ATOM      4  N   UNL     1       0.949   8.218  20.663  0.00  0.00    +0.000 NA
ATOM      5  C   UNL     1       1.530   7.061  20.950  0.00  0.00    +0.000 A 
ATOM      6  C   UNL     1       2.420   6.639  19.950  0.00  0.00    +0.000 A 
ATOM      7  C   UNL     1       3.279   5.541  19.809  0.00  0.00    +0.000 A 
ATOM      8  C   UNL     1       4.069   5.459  18.652  0.00  0.00    +0.000 A 
ATOM      9  C   UNL     1       4.020   6.440  17.658  0.00  0.00    +0.000 A 
ATOM     10 BR   UNL     1       5.153   6.410  16.130  0.00  0.00    +0.000 Br
ATOM     11  C   UNL     1       3.150   7.540  17.796  0.00  0.00    +0.000 A 
ATOM     12  C   UNL     1       2.350   7.615  18.955  0.00  0.00    +0.000 A 
ENDROOT
BRANCH   2  13
ATOM     13  C   UNL     1       0.630  10.973  19.774  0.00  0.00    +0.000 A 
ATOM     14  C   UNL     1      -0.724  11.187  20.058  0.00  0.00    +0.000 A 
ATOM     15  C   UNL     1      -1.123  12.364  20.703  0.00  0.00    +0.000 A 
ATOM     16  C   UNL     1      -0.177  13.329  21.064  0.00  0.00    +0.000 A 
ATOM     17  C   UNL     1       1.173  13.100  20.823  0.00  0.00    +0.000 A 
ATOM     18  C   UNL     1       1.575  11.928  20.183  0.00  0.00    +0.000 A 
ENDBRANCH   2  13
BRANCH   8  19
ATOM     19  N   UNL     1       4.945   4.313  18.553  0.00  0.00    +0.000 N 
ATOM     20  O   UNL     1       4.517   3.329  17.938  0.00  0.00    +0.000 OA
ATOM     21  O   UNL     1       6.090   4.430  19.017  0.00  0.00    +0.000 OA
ENDBRANCH   8  19
TORSDOF 2
ENDMDL
