MODEL 1
REMARK VINA RESULT:      -7.3      0.000      0.000
REMARK  Name = 
REMARK  9 active torsions:
REMARK  status: ('A' for Active; 'I' for Inactive)
REMARK    1  A    between atoms: C_1  and  C_2
REMARK    2  A    between atoms: C_2  and  C_3
REMARK    3  A    between atoms: C_3  and  C_4
REMARK    4  A    between atoms: C_3  and  C_5
REMARK    5  A    between atoms: C_5  and  N_6
REMARK    6  A    between atoms: C_5  and  C_7
REMARK    7  A    between atoms: N_13  and  S_14
REMARK    8  A    between atoms: S_14  and  C_17
REMARK    9  A    between atoms: C_20  and  C_21
REMARK                            x       y       z     vdW  Elec       q    Type
REMARK                         _______ _______ _______ _____ _____    ______ ____
ROOT
ATOM      1  C   UNL     1       5.159   4.341  17.777  0.00  0.00    +0.000 C 
ATOM      2  O   UNL     1       5.293   4.237  16.567  0.00  0.00    +0.000 OA
ATOM      3  N   UNL     1       4.307   3.469  18.409  0.00  0.00    +0.000 N 
ATOM      4  C   UNL     1       3.704   2.336  17.740  0.00  0.00    +0.000 C 
ATOM      5  C   UNL     1       3.638   1.286  18.836  0.00  0.00    +0.000 C 
ATOM      6  C   UNL     1       3.943   2.073  20.119  0.00  0.00    +0.000 C 
ATOM      7  N   UNL     1       4.037   3.501  19.765  0.00  0.00    +0.000 NA
ENDROOT
BRANCH   7   8
ATOM      8  S   UNL     1       2.429   4.257  20.010  0.00  0.00    +0.000 S 
ATOM      9  O   UNL     1       1.378   3.336  19.376  0.00  0.00    +0.000 OA
ATOM     10  O   UNL     1       2.105   4.155  21.509  0.00  0.00    +0.000 OA
BRANCH   8  11
ATOM     11  C   UNL     1       2.326   5.943  19.482  0.00  0.00    +0.000 A 
ATOM     12  C   UNL     1       1.992   6.932  20.411  0.00  0.00    +0.000 A 
ATOM     13  C   UNL     1       1.804   8.244  19.990  0.00  0.00    +0.000 A 
ATOM     14  C   UNL     1       1.956   8.575  18.636  0.00  0.00    +0.000 A 
ATOM     15  C   UNL     1       1.704   9.970  18.164  0.00  0.00    +0.000 C 
ATOM     16  C   UNL     1       2.328   7.583  17.714  0.00  0.00    +0.000 A 
ATOM     17  C   UNL     1       2.508   6.266  18.137  0.00  0.00    +0.000 A 
ENDBRANCH   8  11
ENDBRANCH   7   8
BRANCH   1  18
ATOM     18  C   UNL     1       5.966   5.473  18.455  0.00  0.00    +0.000 C 
BRANCH  18  19
ATOM     19  N   UNL     1       6.762   5.046  19.603  0.00  0.00    +0.000 NA
ATOM     20  H   UNL     1       7.005   5.840  20.232  0.00  0.00    +0.000 HD
ATOM     21  H   UNL     1       7.612   4.530  19.279  0.00  0.00    +0.000 HD
ENDBRANCH  18  19
BRANCH  18  22
ATOM     22  C   UNL     1       6.745   6.507  17.567  0.00  0.00    +0.000 C 
ATOM     23  C   UNL     1       5.923   7.597  16.859  0.00  0.00    +0.000 C 
BRANCH  22  25
ATOM     24  C   UNL     1       8.227   8.584  18.042  0.00  0.00    +0.000 C 
ATOM     25  C   UNL     1       7.962   7.101  18.323  0.00  0.00    +0.000 C 
ENDBRANCH  22  25
ENDBRANCH  18  22
ENDBRANCH   1  18
TORSDOF 6
ENDMDL
MODEL 2
REMARK VINA RESULT:      -7.1      1.600      2.109
REMARK  Name = 
REMARK  9 active torsions:
REMARK  status: ('A' for Active; 'I' for Inactive)
REMARK    1  A    between atoms: C_1  and  C_2
REMARK    2  A    between atoms: C_2  and  C_3
REMARK    3  A    between atoms: C_3  and  C_4
REMARK    4  A    between atoms: C_3  and  C_5
REMARK    5  A    between atoms: C_5  and  N_6
REMARK    6  A    between atoms: C_5  and  C_7
REMARK    7  A    between atoms: N_13  and  S_14
REMARK    8  A    between atoms: S_14  and  C_17
REMARK    9  A    between atoms: C_20  and  C_21
REMARK                            x       y       z     vdW  Elec       q    Type
REMARK                         _______ _______ _______ _____ _____    ______ ____
ROOT
ATOM      1  C   UNL     1       6.202   4.634  18.578  0.00  0.00    +0.000 C 
ATOM      2  O   UNL     1       6.839   3.832  17.910  0.00  0.00    +0.000 OA
ATOM      3  N   UNL     1       4.870   4.382  18.791  0.00  0.00    +0.000 N 
ATOM      4  C   UNL     1       4.235   3.137  18.413  0.00  0.00    +0.000 C 
ATOM      5  C   UNL     1       3.200   2.935  19.506  0.00  0.00    +0.000 C 
ATOM      6  C   UNL     1       3.162   4.288  20.233  0.00  0.00    +0.000 C 
ATOM      7  N   UNL     1       4.028   5.224  19.495  0.00  0.00    +0.000 NA
ENDROOT
BRANCH   7   8
ATOM      8  S   UNL     1       3.020   6.135  18.325  0.00  0.00    +0.000 S 
ATOM      9  O   UNL     1       3.875   6.397  17.077  0.00  0.00    +0.000 OA
ATOM     10  O   UNL     1       1.949   5.165  17.799  0.00  0.00    +0.000 OA
BRANCH   8  11
ATOM     11  C   UNL     1       2.251   7.582  18.992  0.00  0.00    +0.000 A 
ATOM     12  C   UNL     1       1.855   7.590  20.333  0.00  0.00    +0.000 A 
ATOM     13  C   UNL     1       1.155   8.678  20.842  0.00  0.00    +0.000 A 
ATOM     14  C   UNL     1       0.852   9.768  20.014  0.00  0.00    +0.000 A 
ATOM     15  C   UNL     1       0.055  10.918  20.536  0.00  0.00    +0.000 C 
ATOM     16  C   UNL     1       1.285   9.769  18.677  0.00  0.00    +0.000 A 
ATOM     17  C   UNL     1       1.980   8.673  18.166  0.00  0.00    +0.000 A 
ENDBRANCH   8  11
ENDBRANCH   7   8
BRANCH   1  18
ATOM     18  C   UNL     1       6.987   5.864  19.092  0.00  0.00    +0.000 C 
BRANCH  18  19
ATOM     19  N   UNL     1       7.796   5.611  20.283  0.00  0.00    +0.000 NA
ATOM     20  H   UNL     1       7.246   5.159  21.044  0.00  0.00    +0.000 HD
ATOM     21  H   UNL     1       8.251   6.496  20.602  0.00  0.00    +0.000 HD
ENDBRANCH  18  19
BRANCH  18  22
ATOM     22  C   UNL     1       7.743   6.784  18.069  0.00  0.00    +0.000 C 
ATOM     23  C   UNL     1       6.962   7.261  16.833  0.00  0.00    +0.000 C 
BRANCH  22  25
ATOM     24  C   UNL     1       8.343   9.309  18.075  0.00  0.00    +0.000 C 
ATOM     25  C   UNL     1       8.465   7.955  18.783  0.00  0.00    +0.000 C 
ENDBRANCH  22  25
ENDBRANCH  18  22
ENDBRANCH   1  18
TORSDOF 6
ENDMDL
MODEL 3
REMARK VINA RESULT:      -6.9      1.511      1.799
REMARK  Name = 
REMARK  9 active torsions:
REMARK  status: ('A' for Active; 'I' for Inactive)
REMARK    1  A    between atoms: C_1  and  C_2
REMARK    2  A    between atoms: C_2  and  C_3
REMARK    3  A    between atoms: C_3  and  C_4
REMARK    4  A    between atoms: C_3  and  C_5
REMARK    5  A    between atoms: C_5  and  N_6
REMARK    6  A    between atoms: C_5  and  C_7
REMARK    7  A    between atoms: N_13  and  S_14
REMARK    8  A    between atoms: S_14  and  C_17
REMARK    9  A    between atoms: C_20  and  C_21
REMARK                            x       y       z     vdW  Elec       q    Type
REMARK                         _______ _______ _______ _____ _____    ______ ____
ROOT
ATOM      1  C   UNL     1       5.085   4.424  16.680  0.00  0.00    +0.000 C 
ATOM      2  O   UNL     1       5.281   3.682  15.728  0.00  0.00    +0.000 OA
ATOM      3  N   UNL     1       4.384   3.928  17.751  0.00  0.00    +0.000 N 
ATOM      4  C   UNL     1       4.025   2.532  17.877  0.00  0.00    +0.000 C 
ATOM      5  C   UNL     1       4.113   2.288  19.374  0.00  0.00    +0.000 C 
ATOM      6  C   UNL     1       4.220   3.700  19.971  0.00  0.00    +0.000 C 
ATOM      7  N   UNL     1       4.063   4.670  18.873  0.00  0.00    +0.000 NA
ENDROOT
BRANCH   7   8
ATOM      8  S   UNL     1       2.336   5.142  18.770  0.00  0.00    +0.000 S 
ATOM      9  O   UNL     1       1.823   4.737  17.381  0.00  0.00    +0.000 OA
ATOM     10  O   UNL     1       1.554   4.204  19.703  0.00  0.00    +0.000 OA
BRANCH   8  11
ATOM     11  C   UNL     1       2.012   6.829  19.197  0.00  0.00    +0.000 A 
ATOM     12  C   UNL     1       1.702   7.152  20.521  0.00  0.00    +0.000 A 
ATOM     13  C   UNL     1       1.341   8.454  20.851  0.00  0.00    +0.000 A 
ATOM     14  C   UNL     1       1.296   9.442  19.857  0.00  0.00    +0.000 A 
ATOM     15  C   UNL     1       0.858  10.832  20.190  0.00  0.00    +0.000 C 
ATOM     16  C   UNL     1       1.644   9.118  18.536  0.00  0.00    +0.000 A 
ATOM     17  C   UNL     1       1.998   7.810  18.206  0.00  0.00    +0.000 A 
ENDBRANCH   8  11
ENDBRANCH   7   8
BRANCH   1  18
ATOM     18  C   UNL     1       5.644   5.860  16.547  0.00  0.00    +0.000 C 
BRANCH  18  19
ATOM     19  N   UNL     1       4.718   6.911  16.962  0.00  0.00    +0.000 NA
ATOM     20  H   UNL     1       4.117   7.240  16.177  0.00  0.00    +0.000 HD
ATOM     21  H   UNL     1       5.243   7.697  17.409  0.00  0.00    +0.000 HD
ENDBRANCH  18  19
BRANCH  18  22
ATOM     22  C   UNL     1       7.110   6.167  17.017  0.00  0.00    +0.000 C 
ATOM     23  C   UNL     1       7.428   7.605  17.460  0.00  0.00    +0.000 C 
BRANCH  22  25
ATOM     24  C   UNL     1       7.823   5.675  19.463  0.00  0.00    +0.000 C 
ATOM     25  C   UNL     1       7.605   5.122  18.051  0.00  0.00    +0.000 C 
ENDBRANCH  22  25
ENDBRANCH  18  22
ENDBRANCH   1  18
TORSDOF 6
ENDMDL
MODEL 4
REMARK VINA RESULT:      -6.9      3.511      6.679
REMARK  Name = 
REMARK  9 active torsions:
REMARK  status: ('A' for Active; 'I' for Inactive)
REMARK    1  A    between atoms: C_1  and  C_2
REMARK    2  A    between atoms: C_2  and  C_3
REMARK    3  A    between atoms: C_3  and  C_4
REMARK    4  A    between atoms: C_3  and  C_5
REMARK    5  A    between atoms: C_5  and  N_6
REMARK    6  A    between atoms: C_5  and  C_7
REMARK    7  A    between atoms: N_13  and  S_14
REMARK    8  A    between atoms: S_14  and  C_17
REMARK    9  A    between atoms: C_20  and  C_21
REMARK                            x       y       z     vdW  Elec       q    Type
REMARK                         _______ _______ _______ _____ _____    ______ ____
ROOT
ATOM      1  C   UNL     1       4.386   4.955  18.948  0.00  0.00    +0.000 C 
ATOM      2  O   UNL     1       3.932   5.600  19.883  0.00  0.00    +0.000 OA
ATOM      3  N   UNL     1       5.672   5.218  18.548  0.00  0.00    +0.000 N 
ATOM      4  C   UNL     1       6.563   6.088  19.286  0.00  0.00    +0.000 C 
ATOM      5  C   UNL     1       7.922   5.444  19.078  0.00  0.00    +0.000 C 
ATOM      6  C   UNL     1       7.678   4.420  17.959  0.00  0.00    +0.000 C 
ATOM      7  N   UNL     1       6.293   4.588  17.484  0.00  0.00    +0.000 NA
ENDROOT
BRANCH   7   8
ATOM      8  S   UNL     1       6.301   5.708  16.084  0.00  0.00    +0.000 S 
ATOM      9  O   UNL     1       5.077   6.625  16.212  0.00  0.00    +0.000 OA
ATOM     10  O   UNL     1       7.472   6.682  16.289  0.00  0.00    +0.000 OA
BRANCH   8  11
ATOM     11  C   UNL     1       6.446   4.911  14.510  0.00  0.00    +0.000 A 
ATOM     12  C   UNL     1       5.498   3.954  14.138  0.00  0.00    +0.000 A 
ATOM     13  C   UNL     1       5.658   3.244  12.953  0.00  0.00    +0.000 A 
ATOM     14  C   UNL     1       6.765   3.494  12.130  0.00  0.00    +0.000 A 
ATOM     15  C   UNL     1       6.975   2.700  10.881  0.00  0.00    +0.000 C 
ATOM     16  C   UNL     1       7.694   4.484  12.492  0.00  0.00    +0.000 A 
ATOM     17  C   UNL     1       7.536   5.189  13.685  0.00  0.00    +0.000 A 
ENDBRANCH   8  11
ENDBRANCH   7   8
BRANCH   1  18
ATOM     18  C   UNL     1       3.430   3.919  18.310  0.00  0.00    +0.000 C 
BRANCH  18  19
ATOM     19  N   UNL     1       3.426   3.919  16.850  0.00  0.00    +0.000 NA
ATOM     20  H   UNL     1       3.455   2.954  16.456  0.00  0.00    +0.000 HD
ATOM     21  H   UNL     1       4.207   4.512  16.488  0.00  0.00    +0.000 HD
ENDBRANCH  18  19
BRANCH  18  22
ATOM     22  C   UNL     1       3.374   2.460  18.886  0.00  0.00    +0.000 C 
ATOM     23  C   UNL     1       4.341   2.110  20.030  0.00  0.00    +0.000 C 
BRANCH  22  25
ATOM     24  C   UNL     1       1.123   3.048  20.037  0.00  0.00    +0.000 C 
ATOM     25  C   UNL     1       1.919   2.032  19.210  0.00  0.00    +0.000 C 
ENDBRANCH  22  25
ENDBRANCH  18  22
ENDBRANCH   1  18
TORSDOF 6
ENDMDL
MODEL 5
REMARK VINA RESULT:      -6.9      1.603      2.264
REMARK  Name = 
REMARK  9 active torsions:
REMARK  status: ('A' for Active; 'I' for Inactive)
REMARK    1  A    between atoms: C_1  and  C_2
REMARK    2  A    between atoms: C_2  and  C_3
REMARK    3  A    between atoms: C_3  and  C_4
REMARK    4  A    between atoms: C_3  and  C_5
REMARK    5  A    between atoms: C_5  and  N_6
REMARK    6  A    between atoms: C_5  and  C_7
REMARK    7  A    between atoms: N_13  and  S_14
REMARK    8  A    between atoms: S_14  and  C_17
REMARK    9  A    between atoms: C_20  and  C_21
REMARK                            x       y       z     vdW  Elec       q    Type
REMARK                         _______ _______ _______ _____ _____    ______ ____
ROOT
ATOM      1  C   UNL     1       6.284   4.638  18.554  0.00  0.00    +0.000 C 
ATOM      2  O   UNL     1       6.943   3.863  17.875  0.00  0.00    +0.000 OA
ATOM      3  N   UNL     1       4.957   4.349  18.757  0.00  0.00    +0.000 N 
ATOM      4  C   UNL     1       4.355   3.096  18.356  0.00  0.00    +0.000 C 
ATOM      5  C   UNL     1       3.321   2.849  19.441  0.00  0.00    +0.000 C 
ATOM      6  C   UNL     1       3.247   4.188  20.190  0.00  0.00    +0.000 C 
ATOM      7  N   UNL     1       4.093   5.158  19.472  0.00  0.00    +0.000 NA
ENDROOT
BRANCH   7   8
ATOM      8  S   UNL     1       3.066   6.063  18.313  0.00  0.00    +0.000 S 
ATOM      9  O   UNL     1       3.938   6.426  17.103  0.00  0.00    +0.000 OA
ATOM     10  O   UNL     1       2.065   5.061  17.717  0.00  0.00    +0.000 OA
BRANCH   8  11
ATOM     11  C   UNL     1       2.200   7.435  19.019  0.00  0.00    +0.000 A 
ATOM     12  C   UNL     1       1.915   8.548  18.223  0.00  0.00    +0.000 A 
ATOM     13  C   UNL     1       1.331   9.675  18.790  0.00  0.00    +0.000 A 
ATOM     14  C   UNL     1       1.022   9.692  20.158  0.00  0.00    +0.000 A 
ATOM     15  C   UNL     1       0.443  10.917  20.789  0.00  0.00    +0.000 C 
ATOM     16  C   UNL     1       1.277   8.556  20.944  0.00  0.00    +0.000 A 
ATOM     17  C   UNL     1       1.871   7.430  20.375  0.00  0.00    +0.000 A 
ENDBRANCH   8  11
ENDBRANCH   7   8
BRANCH   1  18
ATOM     18  C   UNL     1       7.036   5.878  19.092  0.00  0.00    +0.000 C 
BRANCH  18  19
ATOM     19  N   UNL     1       7.836   5.628  20.289  0.00  0.00    +0.000 NA
ATOM     20  H   UNL     1       8.105   6.510  20.775  0.00  0.00    +0.000 HD
ATOM     21  H   UNL     1       8.669   5.044  20.050  0.00  0.00    +0.000 HD
ENDBRANCH  18  19
BRANCH  18  22
ATOM     22  C   UNL     1       7.784   6.825  18.088  0.00  0.00    +0.000 C 
ATOM     23  C   UNL     1       7.011   7.293  16.843  0.00  0.00    +0.000 C 
BRANCH  22  25
ATOM     24  C   UNL     1       8.382   9.351  18.088  0.00  0.00    +0.000 C 
ATOM     25  C   UNL     1       8.463   8.009  18.824  0.00  0.00    +0.000 C 
ENDBRANCH  22  25
ENDBRANCH  18  22
ENDBRANCH   1  18
TORSDOF 6
ENDMDL
MODEL 6
REMARK VINA RESULT:      -6.9      3.515      6.597
REMARK  Name = 
REMARK  9 active torsions:
REMARK  status: ('A' for Active; 'I' for Inactive)
REMARK    1  A    between atoms: C_1  and  C_2
REMARK    2  A    between atoms: C_2  and  C_3
REMARK    3  A    between atoms: C_3  and  C_4
REMARK    4  A    between atoms: C_3  and  C_5
REMARK    5  A    between atoms: C_5  and  N_6
REMARK    6  A    between atoms: C_5  and  C_7
REMARK    7  A    between atoms: N_13  and  S_14
REMARK    8  A    between atoms: S_14  and  C_17
REMARK    9  A    between atoms: C_20  and  C_21
REMARK                            x       y       z     vdW  Elec       q    Type
REMARK                         _______ _______ _______ _____ _____    ______ ____
ROOT
ATOM      1  C   UNL     1       4.540   4.875  19.044  0.00  0.00    +0.000 C 
ATOM      2  O   UNL     1       4.071   5.511  19.978  0.00  0.00    +0.000 OA
ATOM      3  N   UNL     1       5.809   5.190  18.623  0.00  0.00    +0.000 N 
ATOM      4  C   UNL     1       6.670   6.107  19.338  0.00  0.00    +0.000 C 
ATOM      5  C   UNL     1       8.053   5.520  19.119  0.00  0.00    +0.000 C 
ATOM      6  C   UNL     1       7.839   4.473  18.015  0.00  0.00    +0.000 C 
ATOM      7  N   UNL     1       6.442   4.575  17.558  0.00  0.00    +0.000 NA
ENDROOT
BRANCH   7   8
ATOM      8  S   UNL     1       6.382   5.677  16.145  0.00  0.00    +0.000 S 
ATOM      9  O   UNL     1       5.226   6.662  16.369  0.00  0.00    +0.000 OA
ATOM     10  O   UNL     1       7.618   6.587  16.227  0.00  0.00    +0.000 OA
BRANCH   8  11
ATOM     11  C   UNL     1       6.338   4.856  14.577  0.00  0.00    +0.000 A 
ATOM     12  C   UNL     1       5.236   4.062  14.251  0.00  0.00    +0.000 A 
ATOM     13  C   UNL     1       5.235   3.327  13.071  0.00  0.00    +0.000 A 
ATOM     14  C   UNL     1       6.337   3.389  12.206  0.00  0.00    +0.000 A 
ATOM     15  C   UNL     1       6.371   2.563  10.961  0.00  0.00    +0.000 C 
ATOM     16  C   UNL     1       7.426   4.218  12.522  0.00  0.00    +0.000 A 
ATOM     17  C   UNL     1       7.428   4.947  13.711  0.00  0.00    +0.000 A 
ENDBRANCH   8  11
ENDBRANCH   7   8
BRANCH   1  18
ATOM     18  C   UNL     1       3.622   3.791  18.431  0.00  0.00    +0.000 C 
BRANCH  18  19
ATOM     19  N   UNL     1       4.290   2.524  18.146  0.00  0.00    +0.000 NA
ATOM     20  H   UNL     1       4.106   1.807  18.880  0.00  0.00    +0.000 HD
ATOM     21  H   UNL     1       5.313   2.681  18.000  0.00  0.00    +0.000 HD
ENDBRANCH  18  19
BRANCH  18  22
ATOM     22  C   UNL     1       2.188   3.564  19.028  0.00  0.00    +0.000 C 
ATOM     23  C   UNL     1       1.024   3.398  18.036  0.00  0.00    +0.000 C 
BRANCH  22  25
ATOM     24  C   UNL     1       1.937   2.941  21.534  0.00  0.00    +0.000 C 
ATOM     25  C   UNL     1       2.191   2.449  20.105  0.00  0.00    +0.000 C 
ENDBRANCH  22  25
ENDBRANCH  18  22
ENDBRANCH   1  18
TORSDOF 6
ENDMDL
MODEL 7
REMARK VINA RESULT:      -6.9      1.443      1.708
REMARK  Name = 
REMARK  9 active torsions:
REMARK  status: ('A' for Active; 'I' for Inactive)
REMARK    1  A    between atoms: C_1  and  C_2
REMARK    2  A    between atoms: C_2  and  C_3
REMARK    3  A    between atoms: C_3  and  C_4
REMARK    4  A    between atoms: C_3  and  C_5
REMARK    5  A    between atoms: C_5  and  N_6
REMARK    6  A    between atoms: C_5  and  C_7
REMARK    7  A    between atoms: N_13  and  S_14
REMARK    8  A    between atoms: S_14  and  C_17
REMARK    9  A    between atoms: C_20  and  C_21
REMARK                            x       y       z     vdW  Elec       q    Type
REMARK                         _______ _______ _______ _____ _____    ______ ____
ROOT
ATOM      1  C   UNL     1       5.129   4.423  16.805  0.00  0.00    +0.000 C 
ATOM      2  O   UNL     1       5.347   3.688  15.853  0.00  0.00    +0.000 OA
ATOM      3  N   UNL     1       4.396   3.922  17.853  0.00  0.00    +0.000 N 
ATOM      4  C   UNL     1       4.026   2.527  17.956  0.00  0.00    +0.000 C 
ATOM      5  C   UNL     1       4.070   2.271  19.452  0.00  0.00    +0.000 C 
ATOM      6  C   UNL     1       4.168   3.677  20.065  0.00  0.00    +0.000 C 
ATOM      7  N   UNL     1       4.047   4.657  18.971  0.00  0.00    +0.000 NA
ENDROOT
BRANCH   7   8
ATOM      8  S   UNL     1       2.327   5.140  18.824  0.00  0.00    +0.000 S 
ATOM      9  O   UNL     1       1.818   4.645  17.464  0.00  0.00    +0.000 OA
ATOM     10  O   UNL     1       1.528   4.278  19.815  0.00  0.00    +0.000 OA
BRANCH   8  11
ATOM     11  C   UNL     1       2.019   6.856  19.131  0.00  0.00    +0.000 A 
ATOM     12  C   UNL     1       1.701   7.273  20.427  0.00  0.00    +0.000 A 
ATOM     13  C   UNL     1       1.354   8.598  20.662  0.00  0.00    +0.000 A 
ATOM     14  C   UNL     1       1.329   9.517  19.603  0.00  0.00    +0.000 A 
ATOM     15  C   UNL     1       0.906  10.931  19.835  0.00  0.00    +0.000 C 
ATOM     16  C   UNL     1       1.686   9.098  18.310  0.00  0.00    +0.000 A 
ATOM     17  C   UNL     1       2.026   7.766  18.074  0.00  0.00    +0.000 A 
ENDBRANCH   8  11
ENDBRANCH   7   8
BRANCH   1  18
ATOM     18  C   UNL     1       5.699   5.858  16.701  0.00  0.00    +0.000 C 
BRANCH  18  19
ATOM     19  N   UNL     1       4.695   6.893  16.472  0.00  0.00    +0.000 NA
ATOM     20  H   UNL     1       3.983   6.926  17.232  0.00  0.00    +0.000 HD
ATOM     21  H   UNL     1       4.257   6.769  15.531  0.00  0.00    +0.000 HD
ENDBRANCH  18  19
BRANCH  18  22
ATOM     22  C   UNL     1       6.793   6.332  17.722  0.00  0.00    +0.000 C 
ATOM     23  C   UNL     1       7.653   5.249  18.396  0.00  0.00    +0.000 C 
BRANCH  22  25
ATOM     24  C   UNL     1       8.174   8.484  18.167  0.00  0.00    +0.000 C 
ATOM     25  C   UNL     1       7.662   7.474  17.134  0.00  0.00    +0.000 C 
ENDBRANCH  22  25
ENDBRANCH  18  22
ENDBRANCH   1  18
TORSDOF 6
ENDMDL
MODEL 8
REMARK VINA RESULT:      -6.7      0.971      1.365
REMARK  Name = 
REMARK  9 active torsions:
REMARK  status: ('A' for Active; 'I' for Inactive)
REMARK    1  A    between atoms: C_1  and  C_2
REMARK    2  A    between atoms: C_2  and  C_3
REMARK    3  A    between atoms: C_3  and  C_4
REMARK    4  A    between atoms: C_3  and  C_5
REMARK    5  A    between atoms: C_5  and  N_6
REMARK    6  A    between atoms: C_5  and  C_7
REMARK    7  A    between atoms: N_13  and  S_14
REMARK    8  A    between atoms: S_14  and  C_17
REMARK    9  A    between atoms: C_20  and  C_21
REMARK                            x       y       z     vdW  Elec       q    Type
REMARK                         _______ _______ _______ _____ _____    ______ ____
ROOT
ATOM      1  C   UNL     1       4.587   4.341  17.398  0.00  0.00    +0.000 C 
ATOM      2  O   UNL     1       4.490   4.224  16.185  0.00  0.00    +0.000 OA
ATOM      3  N   UNL     1       3.818   3.523  18.188  0.00  0.00    +0.000 N 
ATOM      4  C   UNL     1       3.040   2.424  17.659  0.00  0.00    +0.000 C 
ATOM      5  C   UNL     1       3.117   1.385  18.764  0.00  0.00    +0.000 C 
ATOM      6  C   UNL     1       3.697   2.160  19.958  0.00  0.00    +0.000 C 
ATOM      7  N   UNL     1       3.804   3.577  19.570  0.00  0.00    +0.000 NA
ENDROOT
BRANCH   7   8
ATOM      8  S   UNL     1       2.314   4.427  20.093  0.00  0.00    +0.000 S 
ATOM      9  O   UNL     1       1.114   3.570  19.668  0.00  0.00    +0.000 OA
ATOM     10  O   UNL     1       2.260   4.343  21.627  0.00  0.00    +0.000 OA
BRANCH   8  11
ATOM     11  C   UNL     1       2.216   6.117  19.577  0.00  0.00    +0.000 A 
ATOM     12  C   UNL     1       1.870   7.099  20.509  0.00  0.00    +0.000 A 
ATOM     13  C   UNL     1       1.685   8.413  20.095  0.00  0.00    +0.000 A 
ATOM     14  C   UNL     1       1.853   8.754  18.745  0.00  0.00    +0.000 A 
ATOM     15  C   UNL     1       1.605  10.153  18.280  0.00  0.00    +0.000 C 
ATOM     16  C   UNL     1       2.237   7.769  17.820  0.00  0.00    +0.000 A 
ATOM     17  C   UNL     1       2.413   6.450  18.236  0.00  0.00    +0.000 A 
ENDBRANCH   8  11
ENDBRANCH   7   8
BRANCH   1  18
ATOM     18  C   UNL     1       5.567   5.428  17.899  0.00  0.00    +0.000 C 
BRANCH  18  19
ATOM     19  N   UNL     1       6.224   5.114  19.165  0.00  0.00    +0.000 NA
ATOM     20  H   UNL     1       6.007   5.813  19.907  0.00  0.00    +0.000 HD
ATOM     21  H   UNL     1       7.254   5.007  19.019  0.00  0.00    +0.000 HD
ENDBRANCH  18  19
BRANCH  18  22
ATOM     22  C   UNL     1       6.561   6.100  16.886  0.00  0.00    +0.000 C 
ATOM     23  C   UNL     1       7.422   7.265  17.404  0.00  0.00    +0.000 C 
BRANCH  22  25
ATOM     24  C   UNL     1       7.131   4.941  14.636  0.00  0.00    +0.000 C 
ATOM     25  C   UNL     1       7.412   5.041  16.139  0.00  0.00    +0.000 C 
ENDBRANCH  22  25
ENDBRANCH  18  22
ENDBRANCH   1  18
TORSDOF 6
ENDMDL
MODEL 9
REMARK VINA RESULT:      -6.7      0.857      1.069
REMARK  Name = 
REMARK  9 active torsions:
REMARK  status: ('A' for Active; 'I' for Inactive)
REMARK    1  A    between atoms: C_1  and  C_2
REMARK    2  A    between atoms: C_2  and  C_3
REMARK    3  A    between atoms: C_3  and  C_4
REMARK    4  A    between atoms: C_3  and  C_5
REMARK    5  A    between atoms: C_5  and  N_6
REMARK    6  A    between atoms: C_5  and  C_7
REMARK    7  A    between atoms: N_13  and  S_14
REMARK    8  A    between atoms: S_14  and  C_17
REMARK    9  A    between atoms: C_20  and  C_21
REMARK                            x       y       z     vdW  Elec       q    Type
REMARK                         _______ _______ _______ _____ _____    ______ ____
ROOT
ATOM      1  C   UNL     1       4.632   4.766  17.635  0.00  0.00    +0.000 C 
ATOM      2  O   UNL     1       4.649   5.030  16.442  0.00  0.00    +0.000 OA
ATOM      3  N   UNL     1       3.660   3.912  18.094  0.00  0.00    +0.000 N 
ATOM      4  C   UNL     1       2.775   3.182  17.211  0.00  0.00    +0.000 C 
ATOM      5  C   UNL     1       2.564   1.870  17.946  0.00  0.00    +0.000 C 
ATOM      6  C   UNL     1       3.129   2.138  19.349  0.00  0.00    +0.000 C 
ATOM      7  N   UNL     1       3.506   3.561  19.423  0.00  0.00    +0.000 NA
ENDROOT
BRANCH   7   8
ATOM      8  S   UNL     1       2.126   4.483  20.101  0.00  0.00    +0.000 S 
ATOM      9  O   UNL     1       0.843   3.701  19.790  0.00  0.00    +0.000 OA
ATOM     10  O   UNL     1       2.220   4.378  21.632  0.00  0.00    +0.000 OA
BRANCH   8  11
ATOM     11  C   UNL     1       2.072   6.184  19.614  0.00  0.00    +0.000 A 
ATOM     12  C   UNL     1       1.790   7.162  20.572  0.00  0.00    +0.000 A 
ATOM     13  C   UNL     1       1.640   8.489  20.185  0.00  0.00    +0.000 A 
ATOM     14  C   UNL     1       1.779   8.846  18.836  0.00  0.00    +0.000 A 
ATOM     15  C   UNL     1       1.568  10.260  18.400  0.00  0.00    +0.000 C 
ATOM     16  C   UNL     1       2.099   7.863  17.884  0.00  0.00    +0.000 A 
ATOM     17  C   UNL     1       2.241   6.532  18.274  0.00  0.00    +0.000 A 
ENDBRANCH   8  11
ENDBRANCH   7   8
BRANCH   1  18
ATOM     18  C   UNL     1       5.716   5.455  18.498  0.00  0.00    +0.000 C 
BRANCH  18  19
ATOM     19  N   UNL     1       5.811   4.952  19.866  0.00  0.00    +0.000 NA
ATOM     20  H   UNL     1       5.770   5.717  20.572  0.00  0.00    +0.000 HD
ATOM     21  H   UNL     1       6.670   4.366  19.975  0.00  0.00    +0.000 HD
ENDBRANCH  18  19
BRANCH  18  22
ATOM     22  C   UNL     1       7.135   5.728  17.886  0.00  0.00    +0.000 C 
ATOM     23  C   UNL     1       7.766   4.615  17.031  0.00  0.00    +0.000 C 
BRANCH  22  25
ATOM     24  C   UNL     1       8.032   8.163  17.894  0.00  0.00    +0.000 C 
ATOM     25  C   UNL     1       7.191   7.104  17.173  0.00  0.00    +0.000 C 
ENDBRANCH  22  25
ENDBRANCH  18  22
ENDBRANCH   1  18
TORSDOF 6
ENDMDL
