MODEL 1
REMARK VINA RESULT:      -5.8      0.000      0.000
REMARK  Name = 
REMARK  8 active torsions:
REMARK  status: ('A' for Active; 'I' for Inactive)
REMARK    1  A    between atoms: C_1  and  C_2
REMARK    2  A    between atoms: C_2  and  S_3
REMARK    3  A    between atoms: C_2  and  C_11
REMARK    4  A    between atoms: S_3  and  C_4
REMARK    5  A    between atoms: N_13  and  C_14
REMARK    6  A    between atoms: N_13  and  C_15
REMARK    7  A    between atoms: C_15  and  C_16
REMARK    8  A    between atoms: C_16  and  C_17
REMARK                            x       y       z     vdW  Elec       q    Type
REMARK                         _______ _______ _______ _____ _____    ______ ____
ROOT
ATOM      1  C   UNL     1       3.167   6.543  17.683  0.00  0.00    +0.000 C 
ATOM      2  C   UNL     1       2.776   5.087  17.897  0.00  0.00    +0.000 C 
ENDROOT
BRANCH   2   3
ATOM      3  C   UNL     1       2.310   4.834  19.347  0.00  0.00    +0.000 C 
ATOM      4  O   UNL     1       2.602   5.637  20.246  0.00  0.00    +0.000 OA
ATOM      5  N   UNL     1       1.540   3.719  19.667  0.00  0.00    +0.000 N 
ATOM      6  C   UNL     1       1.026   2.727  18.720  0.00  0.00    +0.000 C 
BRANCH   5   7
ATOM      7  C   UNL     1       1.236   3.473  21.098  0.00  0.00    +0.000 C 
BRANCH   7   8
ATOM      8  C   UNL     1       2.083   2.361  21.723  0.00  0.00    +0.000 C 
BRANCH   8   9
ATOM      9  C   UNL     1       3.457   2.215  21.089  0.00  0.00    +0.000 C 
ATOM     10  N   UNL     1       4.597   2.095  20.564  0.00  0.00    +0.000 NA
ENDBRANCH   8   9
ENDBRANCH   7   8
ENDBRANCH   5   7
ENDBRANCH   2   3
BRANCH   2  11
ATOM     11  S   UNL     1       4.100   3.903  17.406  0.00  0.00    +0.000 S 
BRANCH  11  12
ATOM     12  C   UNL     1       5.592   4.810  17.801  0.00  0.00    +0.000 A 
ATOM     13  N   UNL     1       5.905   4.875  19.123  0.00  0.00    +0.000 NA
ATOM     14  C   UNL     1       7.030   5.537  19.479  0.00  0.00    +0.000 A 
ATOM     15  C   UNL     1       7.839   6.210  18.584  0.00  0.00    +0.000 A 
ATOM     16  C   UNL     1       7.486   6.182  17.242  0.00  0.00    +0.000 A 
ATOM     17  C   UNL     1       6.352   5.471  16.836  0.00  0.00    +0.000 A 
ATOM     18 BR   UNL     1       5.936   5.467  14.982  0.00  0.00    +0.000 Br
ENDBRANCH  11  12
ENDBRANCH   2  11
TORSDOF 6
ENDMDL
MODEL 2
REMARK VINA RESULT:      -5.6      2.802      5.631
REMARK  Name = 
REMARK  8 active torsions:
REMARK  status: ('A' for Active; 'I' for Inactive)
REMARK    1  A    between atoms: C_1  and  C_2
REMARK    2  A    between atoms: C_2  and  S_3
REMARK    3  A    between atoms: C_2  and  C_11
REMARK    4  A    between atoms: S_3  and  C_4
REMARK    5  A    between atoms: N_13  and  C_14
REMARK    6  A    between atoms: N_13  and  C_15
REMARK    7  A    between atoms: C_15  and  C_16
REMARK    8  A    between atoms: C_16  and  C_17
REMARK                            x       y       z     vdW  Elec       q    Type
REMARK                         _______ _______ _______ _____ _____    ______ ____
ROOT
ATOM      1  C   UNL     1       4.104   2.255  19.563  0.00  0.00    +0.000 C 
ATOM      2  C   UNL     1       4.341   2.931  18.220  0.00  0.00    +0.000 C 
ENDROOT
BRANCH   2   3
ATOM      3  C   UNL     1       5.452   4.000  18.313  0.00  0.00    +0.000 C 
ATOM      4  O   UNL     1       5.758   4.488  19.410  0.00  0.00    +0.000 OA
ATOM      5  N   UNL     1       6.141   4.416  17.176  0.00  0.00    +0.000 N 
ATOM      6  C   UNL     1       5.977   3.877  15.824  0.00  0.00    +0.000 C 
BRANCH   5   7
ATOM      7  C   UNL     1       7.105   5.534  17.321  0.00  0.00    +0.000 C 
BRANCH   7   8
ATOM      8  C   UNL     1       6.469   6.917  17.155  0.00  0.00    +0.000 C 
BRANCH   8   9
ATOM      9  C   UNL     1       7.384   8.060  17.563  0.00  0.00    +0.000 C 
ATOM     10  N   UNL     1       8.144   9.008  17.902  0.00  0.00    +0.000 NA
ENDBRANCH   8   9
ENDBRANCH   7   8
ENDBRANCH   5   7
ENDBRANCH   2   3
BRANCH   2  11
ATOM     11  S   UNL     1       2.805   3.628  17.479  0.00  0.00    +0.000 S 
BRANCH  11  12
ATOM     12  C   UNL     1       2.494   5.056  18.514  0.00  0.00    +0.000 A 
ATOM     13  N   UNL     1       2.999   6.233  18.056  0.00  0.00    +0.000 NA
ATOM     14  C   UNL     1       2.782   7.347  18.791  0.00  0.00    +0.000 A 
ATOM     15  C   UNL     1       2.141   7.346  20.015  0.00  0.00    +0.000 A 
ATOM     16  C   UNL     1       1.672   6.133  20.501  0.00  0.00    +0.000 A 
ATOM     17  C   UNL     1       1.842   4.969  19.744  0.00  0.00    +0.000 A 
ATOM     18 BR   UNL     1       1.167   3.347  20.467  0.00  0.00    +0.000 Br
ENDBRANCH  11  12
ENDBRANCH   2  11
TORSDOF 6
ENDMDL
MODEL 3
REMARK VINA RESULT:      -5.6      3.542      6.128
REMARK  Name = 
REMARK  8 active torsions:
REMARK  status: ('A' for Active; 'I' for Inactive)
REMARK    1  A    between atoms: C_1  and  C_2
REMARK    2  A    between atoms: C_2  and  S_3
REMARK    3  A    between atoms: C_2  and  C_11
REMARK    4  A    between atoms: S_3  and  C_4
REMARK    5  A    between atoms: N_13  and  C_14
REMARK    6  A    between atoms: N_13  and  C_15
REMARK    7  A    between atoms: C_15  and  C_16
REMARK    8  A    between atoms: C_16  and  C_17
REMARK                            x       y       z     vdW  Elec       q    Type
REMARK                         _______ _______ _______ _____ _____    ______ ____
ROOT
ATOM      1  C   UNL     1       7.482   5.614  19.115  0.00  0.00    +0.000 C 
ATOM      2  C   UNL     1       6.252   5.221  18.309  0.00  0.00    +0.000 C 
ENDROOT
BRANCH   2   3
ATOM      3  C   UNL     1       6.496   5.375  16.792  0.00  0.00    +0.000 C 
ATOM      4  O   UNL     1       7.437   6.070  16.378  0.00  0.00    +0.000 OA
ATOM      5  N   UNL     1       5.683   4.726  15.867  0.00  0.00    +0.000 N 
ATOM      6  C   UNL     1       4.595   3.796  16.179  0.00  0.00    +0.000 C 
BRANCH   5   7
ATOM      7  C   UNL     1       5.897   5.020  14.428  0.00  0.00    +0.000 C 
BRANCH   7   8
ATOM      8  C   UNL     1       6.417   3.823  13.628  0.00  0.00    +0.000 C 
BRANCH   8   9
ATOM      9  C   UNL     1       5.495   3.403  12.495  0.00  0.00    +0.000 C 
ATOM     10  N   UNL     1       4.730   3.054  11.555  0.00  0.00    +0.000 NA
ENDBRANCH   8   9
ENDBRANCH   7   8
ENDBRANCH   5   7
ENDBRANCH   2   3
BRANCH   2  11
ATOM     11  S   UNL     1       4.728   6.113  18.834  0.00  0.00    +0.000 S 
BRANCH  11  12
ATOM     12  C   UNL     1       3.810   4.835  19.688  0.00  0.00    +0.000 A 
ATOM     13  N   UNL     1       4.327   3.580  19.595  0.00  0.00    +0.000 NA
ATOM     14  C   UNL     1       3.682   2.576  20.232  0.00  0.00    +0.000 A 
ATOM     15  C   UNL     1       2.489   2.740  20.910  0.00  0.00    +0.000 A 
ATOM     16  C   UNL     1       1.940   4.014  20.959  0.00  0.00    +0.000 A 
ATOM     17  C   UNL     1       2.605   5.082  20.346  0.00  0.00    +0.000 A 
ATOM     18 BR   UNL     1       1.800   6.799  20.462  0.00  0.00    +0.000 Br
ENDBRANCH  11  12
ENDBRANCH   2  11
TORSDOF 6
ENDMDL
MODEL 4
REMARK VINA RESULT:      -5.5      3.489      5.733
REMARK  Name = 
REMARK  8 active torsions:
REMARK  status: ('A' for Active; 'I' for Inactive)
REMARK    1  A    between atoms: C_1  and  C_2
REMARK    2  A    between atoms: C_2  and  S_3
REMARK    3  A    between atoms: C_2  and  C_11
REMARK    4  A    between atoms: S_3  and  C_4
REMARK    5  A    between atoms: N_13  and  C_14
REMARK    6  A    between atoms: N_13  and  C_15
REMARK    7  A    between atoms: C_15  and  C_16
REMARK    8  A    between atoms: C_16  and  C_17
REMARK                            x       y       z     vdW  Elec       q    Type
REMARK                         _______ _______ _______ _____ _____    ______ ____
ROOT
ATOM      1  C   UNL     1       1.575   4.380  17.792  0.00  0.00    +0.000 C 
ATOM      2  C   UNL     1       2.675   5.394  18.076  0.00  0.00    +0.000 C 
ENDROOT
BRANCH   2   3
ATOM      3  C   UNL     1       4.077   4.766  17.923  0.00  0.00    +0.000 C 
ATOM      4  O   UNL     1       4.358   3.714  18.517  0.00  0.00    +0.000 OA
ATOM      5  N   UNL     1       5.038   5.353  17.104  0.00  0.00    +0.000 N 
ATOM      6  C   UNL     1       4.846   6.534  16.259  0.00  0.00    +0.000 C 
BRANCH   5   7
ATOM      7  C   UNL     1       6.401   4.766  17.104  0.00  0.00    +0.000 C 
BRANCH   7   8
ATOM      8  C   UNL     1       7.474   5.708  17.657  0.00  0.00    +0.000 C 
BRANCH   8   9
ATOM      9  C   UNL     1       7.705   5.555  19.152  0.00  0.00    +0.000 C 
ATOM     10  N   UNL     1       7.896   5.429  20.392  0.00  0.00    +0.000 NA
ENDBRANCH   8   9
ENDBRANCH   7   8
ENDBRANCH   5   7
ENDBRANCH   2   3
BRANCH   2  11
ATOM     11  S   UNL     1       2.489   6.223  19.711  0.00  0.00    +0.000 S 
BRANCH  11  12
ATOM     12  C   UNL     1       2.017   7.886  19.247  0.00  0.00    +0.000 A 
ATOM     13  N   UNL     1       2.515   8.328  18.061  0.00  0.00    +0.000 NA
ATOM     14  C   UNL     1       2.180   9.573  17.653  0.00  0.00    +0.000 A 
ATOM     15  C   UNL     1       1.420  10.448  18.406  0.00  0.00    +0.000 A 
ATOM     16  C   UNL     1       0.956  10.009  19.639  0.00  0.00    +0.000 A 
ATOM     17  C   UNL     1       1.250   8.711  20.070  0.00  0.00    +0.000 A 
ATOM     18 BR   UNL     1       0.574   8.175  21.763  0.00  0.00    +0.000 Br
ENDBRANCH  11  12
ENDBRANCH   2  11
TORSDOF 6
ENDMDL
MODEL 5
REMARK VINA RESULT:      -5.4      2.460      3.522
REMARK  Name = 
REMARK  8 active torsions:
REMARK  status: ('A' for Active; 'I' for Inactive)
REMARK    1  A    between atoms: C_1  and  C_2
REMARK    2  A    between atoms: C_2  and  S_3
REMARK    3  A    between atoms: C_2  and  C_11
REMARK    4  A    between atoms: S_3  and  C_4
REMARK    5  A    between atoms: N_13  and  C_14
REMARK    6  A    between atoms: N_13  and  C_15
REMARK    7  A    between atoms: C_15  and  C_16
REMARK    8  A    between atoms: C_16  and  C_17
REMARK                            x       y       z     vdW  Elec       q    Type
REMARK                         _______ _______ _______ _____ _____    ______ ____
ROOT
ATOM      1  C   UNL     1       1.680   2.821  18.360  0.00  0.00    +0.000 C 
ATOM      2  C   UNL     1       2.932   3.670  18.530  0.00  0.00    +0.000 C 
ENDROOT
BRANCH   2   3
ATOM      3  C   UNL     1       2.584   5.168  18.677  0.00  0.00    +0.000 C 
ATOM      4  O   UNL     1       2.529   5.897  17.676  0.00  0.00    +0.000 OA
ATOM      5  N   UNL     1       2.308   5.718  19.926  0.00  0.00    +0.000 N 
ATOM      6  C   UNL     1       2.232   4.987  21.192  0.00  0.00    +0.000 C 
BRANCH   5   7
ATOM      7  C   UNL     1       2.106   7.187  20.007  0.00  0.00    +0.000 C 
BRANCH   7   8
ATOM      8  C   UNL     1       1.101   7.609  21.082  0.00  0.00    +0.000 C 
BRANCH   8   9
ATOM      9  C   UNL     1       1.119   9.100  21.378  0.00  0.00    +0.000 C 
ATOM     10  N   UNL     1       1.133  10.336  21.623  0.00  0.00    +0.000 NA
ENDBRANCH   8   9
ENDBRANCH   7   8
ENDBRANCH   5   7
ENDBRANCH   2   3
BRANCH   2  11
ATOM     11  S   UNL     1       4.175   3.401  17.197  0.00  0.00    +0.000 S 
BRANCH  11  12
ATOM     12  C   UNL     1       5.514   4.480  17.698  0.00  0.00    +0.000 A 
ATOM     13  N   UNL     1       5.779   4.505  19.031  0.00  0.00    +0.000 NA
ATOM     14  C   UNL     1       6.790   5.292  19.465  0.00  0.00    +0.000 A 
ATOM     15  C   UNL     1       7.519   6.127  18.641  0.00  0.00    +0.000 A 
ATOM     16  C   UNL     1       7.209   6.135  17.287  0.00  0.00    +0.000 A 
ATOM     17  C   UNL     1       6.198   5.301  16.801  0.00  0.00    +0.000 A 
ATOM     18 BR   UNL     1       5.836   5.357  14.936  0.00  0.00    +0.000 Br
ENDBRANCH  11  12
ENDBRANCH   2  11
TORSDOF 6
ENDMDL
MODEL 6
REMARK VINA RESULT:      -5.4      2.360      5.720
REMARK  Name = 
REMARK  8 active torsions:
REMARK  status: ('A' for Active; 'I' for Inactive)
REMARK    1  A    between atoms: C_1  and  C_2
REMARK    2  A    between atoms: C_2  and  S_3
REMARK    3  A    between atoms: C_2  and  C_11
REMARK    4  A    between atoms: S_3  and  C_4
REMARK    5  A    between atoms: N_13  and  C_14
REMARK    6  A    between atoms: N_13  and  C_15
REMARK    7  A    between atoms: C_15  and  C_16
REMARK    8  A    between atoms: C_16  and  C_17
REMARK                            x       y       z     vdW  Elec       q    Type
REMARK                         _______ _______ _______ _____ _____    ______ ____
ROOT
ATOM      1  C   UNL     1       4.423   2.776  19.647  0.00  0.00    +0.000 C 
ATOM      2  C   UNL     1       4.768   3.595  18.411  0.00  0.00    +0.000 C 
ENDROOT
BRANCH   2   3
ATOM      3  C   UNL     1       5.817   4.683  18.727  0.00  0.00    +0.000 C 
ATOM      4  O   UNL     1       5.829   5.235  19.838  0.00  0.00    +0.000 OA
ATOM      5  N   UNL     1       6.775   5.048  17.785  0.00  0.00    +0.000 N 
ATOM      6  C   UNL     1       6.967   4.435  16.469  0.00  0.00    +0.000 C 
BRANCH   5   7
ATOM      7  C   UNL     1       7.669   6.186  18.111  0.00  0.00    +0.000 C 
BRANCH   7   8
ATOM      8  C   UNL     1       7.353   7.459  17.321  0.00  0.00    +0.000 C 
BRANCH   8   9
ATOM      9  C   UNL     1       8.048   8.698  17.862  0.00  0.00    +0.000 C 
ATOM     10  N   UNL     1       8.624   9.726  18.311  0.00  0.00    +0.000 NA
ENDBRANCH   8   9
ENDBRANCH   7   8
ENDBRANCH   5   7
ENDBRANCH   2   3
BRANCH   2  11
ATOM     11  S   UNL     1       3.287   4.316  17.585  0.00  0.00    +0.000 S 
BRANCH  11  12
ATOM     12  C   UNL     1       2.616   5.379  18.860  0.00  0.00    +0.000 A 
ATOM     13  N   UNL     1       1.961   4.743  19.869  0.00  0.00    +0.000 NA
ATOM     14  C   UNL     1       1.445   5.496  20.867  0.00  0.00    +0.000 A 
ATOM     15  C   UNL     1       1.482   6.877  20.884  0.00  0.00    +0.000 A 
ATOM     16  C   UNL     1       2.107   7.522  19.825  0.00  0.00    +0.000 A 
ATOM     17  C   UNL     1       2.688   6.770  18.799  0.00  0.00    +0.000 A 
ATOM     18 BR   UNL     1       3.535   7.720  17.388  0.00  0.00    +0.000 Br
ENDBRANCH  11  12
ENDBRANCH   2  11
TORSDOF 6
ENDMDL
MODEL 7
REMARK VINA RESULT:      -5.4      3.370      5.811
REMARK  Name = 
REMARK  8 active torsions:
REMARK  status: ('A' for Active; 'I' for Inactive)
REMARK    1  A    between atoms: C_1  and  C_2
REMARK    2  A    between atoms: C_2  and  S_3
REMARK    3  A    between atoms: C_2  and  C_11
REMARK    4  A    between atoms: S_3  and  C_4
REMARK    5  A    between atoms: N_13  and  C_14
REMARK    6  A    between atoms: N_13  and  C_15
REMARK    7  A    between atoms: C_15  and  C_16
REMARK    8  A    between atoms: C_16  and  C_17
REMARK                            x       y       z     vdW  Elec       q    Type
REMARK                         _______ _______ _______ _____ _____    ______ ____
ROOT
ATOM      1  C   UNL     1       2.256   3.680  18.319  0.00  0.00    +0.000 C 
ATOM      2  C   UNL     1       3.121   4.919  18.506  0.00  0.00    +0.000 C 
ENDROOT
BRANCH   2   3
ATOM      3  C   UNL     1       4.624   4.564  18.512  0.00  0.00    +0.000 C 
ATOM      4  O   UNL     1       5.101   3.884  19.433  0.00  0.00    +0.000 OA
ATOM      5  N   UNL     1       5.461   4.981  17.481  0.00  0.00    +0.000 N 
ATOM      6  C   UNL     1       5.049   5.703  16.275  0.00  0.00    +0.000 C 
BRANCH   5   7
ATOM      7  C   UNL     1       6.914   4.713  17.616  0.00  0.00    +0.000 C 
BRANCH   7   8
ATOM      8  C   UNL     1       7.647   5.735  18.489  0.00  0.00    +0.000 C 
BRANCH   8   9
ATOM      9  C   UNL     1       7.686   7.131  17.888  0.00  0.00    +0.000 C 
ATOM     10  N   UNL     1       7.718   8.289  17.390  0.00  0.00    +0.000 NA
ENDBRANCH   8   9
ENDBRANCH   7   8
ENDBRANCH   5   7
ENDBRANCH   2   3
BRANCH   2  11
ATOM     11  S   UNL     1       2.661   5.904  19.994  0.00  0.00    +0.000 S 
BRANCH  11  12
ATOM     12  C   UNL     1       2.218   7.487  19.285  0.00  0.00    +0.000 A 
ATOM     13  N   UNL     1       2.740   7.745  18.055  0.00  0.00    +0.000 NA
ATOM     14  C   UNL     1       2.428   8.921  17.465  0.00  0.00    +0.000 A 
ATOM     15  C   UNL     1       1.670   9.905  18.070  0.00  0.00    +0.000 A 
ATOM     16  C   UNL     1       1.182   9.657  19.346  0.00  0.00    +0.000 A 
ATOM     17  C   UNL     1       1.452   8.432  19.966  0.00  0.00    +0.000 A 
ATOM     18 BR   UNL     1       0.744   8.157  21.708  0.00  0.00    +0.000 Br
ENDBRANCH  11  12
ENDBRANCH   2  11
TORSDOF 6
ENDMDL
MODEL 8
REMARK VINA RESULT:      -5.4      3.223      6.196
REMARK  Name = 
REMARK  8 active torsions:
REMARK  status: ('A' for Active; 'I' for Inactive)
REMARK    1  A    between atoms: C_1  and  C_2
REMARK    2  A    between atoms: C_2  and  S_3
REMARK    3  A    between atoms: C_2  and  C_11
REMARK    4  A    between atoms: S_3  and  C_4
REMARK    5  A    between atoms: N_13  and  C_14
REMARK    6  A    between atoms: N_13  and  C_15
REMARK    7  A    between atoms: C_15  and  C_16
REMARK    8  A    between atoms: C_16  and  C_17
REMARK                            x       y       z     vdW  Elec       q    Type
REMARK                         _______ _______ _______ _____ _____    ______ ____
ROOT
ATOM      1  C   UNL     1       3.223   6.714  17.722  0.00  0.00    +0.000 C 
ATOM      2  C   UNL     1       4.564   6.055  18.012  0.00  0.00    +0.000 C 
ENDROOT
BRANCH   2   3
ATOM      3  C   UNL     1       5.019   5.158  16.840  0.00  0.00    +0.000 C 
ATOM      4  O   UNL     1       4.183   4.539  16.166  0.00  0.00    +0.000 OA
ATOM      5  N   UNL     1       6.367   5.045  16.508  0.00  0.00    +0.000 N 
ATOM      6  C   UNL     1       7.472   5.776  17.131  0.00  0.00    +0.000 C 
BRANCH   5   7
ATOM      7  C   UNL     1       6.742   4.070  15.455  0.00  0.00    +0.000 C 
BRANCH   7   8
ATOM      8  C   UNL     1       6.814   4.680  14.052  0.00  0.00    +0.000 C 
BRANCH   8   9
ATOM      9  C   UNL     1       6.272   3.767  12.964  0.00  0.00    +0.000 C 
ATOM     10  N   UNL     1       5.824   3.010  12.061  0.00  0.00    +0.000 NA
ENDBRANCH   8   9
ENDBRANCH   7   8
ENDBRANCH   5   7
ENDBRANCH   2   3
BRANCH   2  11
ATOM     11  S   UNL     1       4.586   5.132  19.607  0.00  0.00    +0.000 S 
BRANCH  11  12
ATOM     12  C   UNL     1       3.170   4.048  19.442  0.00  0.00    +0.000 A 
ATOM     13  N   UNL     1       3.392   2.894  18.757  0.00  0.00    +0.000 NA
ATOM     14  C   UNL     1       2.360   2.031  18.613  0.00  0.00    +0.000 A 
ATOM     15  C   UNL     1       1.078   2.287  19.059  0.00  0.00    +0.000 A 
ATOM     16  C   UNL     1       0.847   3.490  19.714  0.00  0.00    +0.000 A 
ATOM     17  C   UNL     1       1.902   4.385  19.916  0.00  0.00    +0.000 A 
ATOM     18 BR   UNL     1       1.514   6.006  20.828  0.00  0.00    +0.000 Br
ENDBRANCH  11  12
ENDBRANCH   2  11
TORSDOF 6
ENDMDL
MODEL 9
REMARK VINA RESULT:      -5.3      3.782      6.495
REMARK  Name = 
REMARK  8 active torsions:
REMARK  status: ('A' for Active; 'I' for Inactive)
REMARK    1  A    between atoms: C_1  and  C_2
REMARK    2  A    between atoms: C_2  and  S_3
REMARK    3  A    between atoms: C_2  and  C_11
REMARK    4  A    between atoms: S_3  and  C_4
REMARK    5  A    between atoms: N_13  and  C_14
REMARK    6  A    between atoms: N_13  and  C_15
REMARK    7  A    between atoms: C_15  and  C_16
REMARK    8  A    between atoms: C_16  and  C_17
REMARK                            x       y       z     vdW  Elec       q    Type
REMARK                         _______ _______ _______ _____ _____    ______ ____
ROOT
ATOM      1  C   UNL     1       6.112   6.101  18.226  0.00  0.00    +0.000 C 
ATOM      2  C   UNL     1       4.976   5.616  17.337  0.00  0.00    +0.000 C 
ENDROOT
BRANCH   2   3
ATOM      3  C   UNL     1       5.329   5.759  15.840  0.00  0.00    +0.000 C 
ATOM      4  O   UNL     1       5.161   6.842  15.260  0.00  0.00    +0.000 OA
ATOM      5  N   UNL     1       5.857   4.688  15.125  0.00  0.00    +0.000 N 
ATOM      6  C   UNL     1       6.209   3.375  15.672  0.00  0.00    +0.000 C 
BRANCH   5   7
ATOM      7  C   UNL     1       6.054   4.859  13.664  0.00  0.00    +0.000 C 
BRANCH   7   8
ATOM      8  C   UNL     1       6.155   3.535  12.900  0.00  0.00    +0.000 C 
BRANCH   8   9
ATOM      9  C   UNL     1       4.994   3.292  11.950  0.00  0.00    +0.000 C 
ATOM     10  N   UNL     1       4.031   3.090  11.161  0.00  0.00    +0.000 NA
ENDBRANCH   8   9
ENDBRANCH   7   8
ENDBRANCH   5   7
ENDBRANCH   2   3
BRANCH   2  11
ATOM     11  S   UNL     1       3.362   6.419  17.721  0.00  0.00    +0.000 S 
BRANCH  11  12
ATOM     12  C   UNL     1       2.474   5.111  18.562  0.00  0.00    +0.000 A 
ATOM     13  N   UNL     1       2.404   3.928  17.896  0.00  0.00    +0.000 NA
ATOM     14  C   UNL     1       1.756   2.900  18.490  0.00  0.00    +0.000 A 
ATOM     15  C   UNL     1       1.099   3.005  19.701  0.00  0.00    +0.000 A 
ATOM     16  C   UNL     1       1.131   4.230  20.352  0.00  0.00    +0.000 A 
ATOM     17  C   UNL     1       1.829   5.301  19.785  0.00  0.00    +0.000 A 
ATOM     18 BR   UNL     1       1.838   6.945  20.737  0.00  0.00    +0.000 Br
ENDBRANCH  11  12
ENDBRANCH   2  11
TORSDOF 6
ENDMDL
