MODEL 1
REMARK VINA RESULT:      -7.2      0.000      0.000
REMARK  Name = 
REMARK  4 active torsions:
REMARK  status: ('A' for Active; 'I' for Inactive)
REMARK    1  A    between atoms: C_1  and  C_2
REMARK    2  A    between atoms: C_2  and  O_3
REMARK    3  A    between atoms: O_3  and  C_4
REMARK    4  A    between atoms: C_7  and  N_8
REMARK                            x       y       z     vdW  Elec       q    Type
REMARK                         _______ _______ _______ _____ _____    ______ ____
ROOT
ATOM      1  N   UNL     1       5.023   5.199  17.293  0.00  0.00    +0.000 N 
ATOM      2  C   UNL     1       5.394   4.497  18.388  0.00  0.00    +0.000 C 
ATOM      3  O   UNL     1       6.353   3.712  18.442  0.00  0.00    +0.000 OA
ATOM      4  C   UNL     1       4.568   4.863  19.702  0.00  0.00    +0.000 C 
ATOM      5  C   UNL     1       3.385   4.079  20.225  0.00  0.00    +0.000 C 
ATOM      6  C   UNL     1       2.577   3.932  18.796  0.00  0.00    +0.000 C 
ATOM      7  C   UNL     1       2.136   5.028  18.162  0.00  0.00    +0.000 C 
ATOM      8  C   UNL     1       1.980   5.843  19.473  0.00  0.00    +0.000 C 
ATOM      9  C   UNL     1       1.438   5.201  20.714  0.00  0.00    +0.000 C 
ATOM     10  C   UNL     1       1.016   3.607  20.727  0.00  0.00    +0.000 C 
ATOM     11  C   UNL     1       2.297   4.212  21.210  0.00  0.00    +0.000 C 
ATOM     12  C   UNL     1       3.712   6.036  19.207  0.00  0.00    +0.000 C 
ATOM     13  C   UNL     1       4.188   6.225  17.658  0.00  0.00    +0.000 C 
ATOM     14  O   UNL     1       3.725   7.079  16.905  0.00  0.00    +0.000 OA
ENDROOT
BRANCH   1  18
ATOM     15  C   UNL     1       6.762   4.332  13.498  0.00  0.00    +0.000 A 
ATOM     16  C   UNL     1       5.460   3.905  13.796  0.00  0.00    +0.000 A 
ATOM     17  C   UNL     1       4.840   4.280  15.000  0.00  0.00    +0.000 A 
ATOM     18  C   UNL     1       5.558   4.972  15.987  0.00  0.00    +0.000 A 
ATOM     19  C   UNL     1       6.849   5.404  15.657  0.00  0.00    +0.000 A 
ATOM     20  C   UNL     1       7.453   5.089  14.435  0.00  0.00    +0.000 A 
BRANCH  15  21
ATOM     21  O   UNL     1       7.243   4.025  12.254  0.00  0.00    +0.000 OA
BRANCH  21  23
ATOM     22  C   UNL     1       7.403   1.921  11.111  0.00  0.00    +0.000 C 
ATOM     23  C   UNL     1       6.484   3.068  11.501  0.00  0.00    +0.000 C 
ENDBRANCH  21  23
ENDBRANCH  15  21
ENDBRANCH   1  18
TORSDOF 3
ENDMDL
MODEL 2
REMARK VINA RESULT:      -7.1      2.931      4.953
REMARK  Name = 
REMARK  4 active torsions:
REMARK  status: ('A' for Active; 'I' for Inactive)
REMARK    1  A    between atoms: C_1  and  C_2
REMARK    2  A    between atoms: C_2  and  O_3
REMARK    3  A    between atoms: O_3  and  C_4
REMARK    4  A    between atoms: C_7  and  N_8
REMARK                            x       y       z     vdW  Elec       q    Type
REMARK                         _______ _______ _______ _____ _____    ______ ____
ROOT
ATOM      1  N   UNL     1       4.649   5.524  17.617  0.00  0.00    +0.000 N 
ATOM      2  C   UNL     1       3.412   5.999  17.888  0.00  0.00    +0.000 C 
ATOM      3  O   UNL     1       3.134   7.188  18.101  0.00  0.00    +0.000 OA
ATOM      4  C   UNL     1       2.259   4.903  17.774  0.00  0.00    +0.000 C 
ATOM      5  C   UNL     1       1.669   4.144  18.942  0.00  0.00    +0.000 C 
ATOM      6  C   UNL     1       3.092   3.726  19.665  0.00  0.00    +0.000 C 
ATOM      7  C   UNL     1       3.963   2.938  19.019  0.00  0.00    +0.000 C 
ATOM      8  C   UNL     1       2.858   2.224  18.196  0.00  0.00    +0.000 C 
ATOM      9  C   UNL     1       1.553   1.849  18.829  0.00  0.00    +0.000 C 
ATOM     10  C   UNL     1       1.246   2.207  20.410  0.00  0.00    +0.000 C 
ATOM     11  C   UNL     1       0.810   2.976  19.203  0.00  0.00    +0.000 C 
ATOM     12  C   UNL     1       3.039   3.695  17.240  0.00  0.00    +0.000 C 
ATOM     13  C   UNL     1       4.557   4.267  17.075  0.00  0.00    +0.000 C 
ATOM     14  O   UNL     1       5.498   3.589  16.667  0.00  0.00    +0.000 OA
ENDROOT
BRANCH   1  18
ATOM     15  C   UNL     1       8.076   8.001  18.162  0.00  0.00    +0.000 A 
ATOM     16  C   UNL     1       7.958   6.790  18.859  0.00  0.00    +0.000 A 
ATOM     17  C   UNL     1       6.887   5.917  18.604  0.00  0.00    +0.000 A 
ATOM     18  C   UNL     1       5.842   6.301  17.749  0.00  0.00    +0.000 A 
ATOM     19  C   UNL     1       5.994   7.505  17.051  0.00  0.00    +0.000 A 
ATOM     20  C   UNL     1       7.089   8.352  17.251  0.00  0.00    +0.000 A 
BRANCH  15  21
ATOM     21  O   UNL     1       9.212   8.732  18.383  0.00  0.00    +0.000 OA
BRANCH  21  23
ATOM     22  C   UNL     1       9.651  11.084  18.204  0.00  0.00    +0.000 C 
ATOM     23  C   UNL     1       9.035   9.986  19.057  0.00  0.00    +0.000 C 
ENDBRANCH  21  23
ENDBRANCH  15  21
ENDBRANCH   1  18
TORSDOF 3
ENDMDL
MODEL 3
REMARK VINA RESULT:      -7.0      1.577      2.365
REMARK  Name = 
REMARK  4 active torsions:
REMARK  status: ('A' for Active; 'I' for Inactive)
REMARK    1  A    between atoms: C_1  and  C_2
REMARK    2  A    between atoms: C_2  and  O_3
REMARK    3  A    between atoms: O_3  and  C_4
REMARK    4  A    between atoms: C_7  and  N_8
REMARK                            x       y       z     vdW  Elec       q    Type
REMARK                         _______ _______ _______ _____ _____    ______ ____
ROOT
ATOM      1  N   UNL     1       3.763   4.863  17.460  0.00  0.00    +0.000 N 
ATOM      2  C   UNL     1       3.547   5.640  18.546  0.00  0.00    +0.000 C 
ATOM      3  O   UNL     1       4.177   6.672  18.822  0.00  0.00    +0.000 OA
ATOM      4  C   UNL     1       2.283   5.203  19.414  0.00  0.00    +0.000 C 
ATOM      5  C   UNL     1       2.346   4.355  20.665  0.00  0.00    +0.000 C 
ATOM      6  C   UNL     1       3.349   3.184  20.080  0.00  0.00    +0.000 C 
ATOM      7  C   UNL     1       2.957   2.423  19.047  0.00  0.00    +0.000 C 
ATOM      8  C   UNL     1       1.450   2.554  19.397  0.00  0.00    +0.000 C 
ATOM      9  C   UNL     1       0.988   2.505  20.821  0.00  0.00    +0.000 C 
ATOM     10  C   UNL     1       2.067   2.337  22.056  0.00  0.00    +0.000 C 
ATOM     11  C   UNL     1       1.446   3.605  21.558  0.00  0.00    +0.000 C 
ATOM     12  C   UNL     1       1.693   4.081  18.550  0.00  0.00    +0.000 C 
ATOM     13  C   UNL     1       2.685   4.039  17.255  0.00  0.00    +0.000 C 
ATOM     14  O   UNL     1       2.546   3.256  16.318  0.00  0.00    +0.000 OA
ENDROOT
BRANCH   1  18
ATOM     15  C   UNL     1       7.034   5.094  14.735  0.00  0.00    +0.000 A 
ATOM     16  C   UNL     1       5.965   5.996  14.639  0.00  0.00    +0.000 A 
ATOM     17  C   UNL     1       4.939   5.998  15.598  0.00  0.00    +0.000 A 
ATOM     18  C   UNL     1       4.890   5.008  16.592  0.00  0.00    +0.000 A 
ATOM     19  C   UNL     1       5.978   4.131  16.678  0.00  0.00    +0.000 A 
ATOM     20  C   UNL     1       7.037   4.162  15.766  0.00  0.00    +0.000 A 
BRANCH  15  21
ATOM     21  O   UNL     1       8.051   5.242  13.831  0.00  0.00    +0.000 OA
BRANCH  21  23
ATOM     22  C   UNL     1       7.030   3.886  12.136  0.00  0.00    +0.000 C 
ATOM     23  C   UNL     1       7.674   5.227  12.447  0.00  0.00    +0.000 C 
ENDBRANCH  21  23
ENDBRANCH  15  21
ENDBRANCH   1  18
TORSDOF 3
ENDMDL
MODEL 4
REMARK VINA RESULT:      -7.0      0.266      1.033
REMARK  Name = 
REMARK  4 active torsions:
REMARK  status: ('A' for Active; 'I' for Inactive)
REMARK    1  A    between atoms: C_1  and  C_2
REMARK    2  A    between atoms: C_2  and  O_3
REMARK    3  A    between atoms: O_3  and  C_4
REMARK    4  A    between atoms: C_7  and  N_8
REMARK                            x       y       z     vdW  Elec       q    Type
REMARK                         _______ _______ _______ _____ _____    ______ ____
ROOT
ATOM      1  N   UNL     1       5.166   5.214  17.243  0.00  0.00    +0.000 N 
ATOM      2  C   UNL     1       5.472   4.592  18.405  0.00  0.00    +0.000 C 
ATOM      3  O   UNL     1       6.401   3.787  18.561  0.00  0.00    +0.000 OA
ATOM      4  C   UNL     1       4.609   5.088  19.651  0.00  0.00    +0.000 C 
ATOM      5  C   UNL     1       3.381   4.385  20.187  0.00  0.00    +0.000 C 
ATOM      6  C   UNL     1       2.623   4.146  18.742  0.00  0.00    +0.000 C 
ATOM      7  C   UNL     1       2.243   5.201  18.005  0.00  0.00    +0.000 C 
ATOM      8  C   UNL     1       2.064   6.123  19.240  0.00  0.00    +0.000 C 
ATOM      9  C   UNL     1       1.455   5.601  20.504  0.00  0.00    +0.000 C 
ATOM     10  C   UNL     1       0.981   4.026  20.628  0.00  0.00    +0.000 C 
ATOM     11  C   UNL     1       2.262   4.630  21.112  0.00  0.00    +0.000 C 
ATOM     12  C   UNL     1       3.811   6.242  19.029  0.00  0.00    +0.000 C 
ATOM     13  C   UNL     1       4.351   6.291  17.491  0.00  0.00    +0.000 C 
ATOM     14  O   UNL     1       3.946   7.094  16.654  0.00  0.00    +0.000 OA
ENDROOT
BRANCH   1  18
ATOM     15  C   UNL     1       6.730   4.352  13.372  0.00  0.00    +0.000 A 
ATOM     16  C   UNL     1       7.459   5.142  14.271  0.00  0.00    +0.000 A 
ATOM     17  C   UNL     1       7.003   5.340  15.586  0.00  0.00    +0.000 A 
ATOM     18  C   UNL     1       5.743   4.866  15.982  0.00  0.00    +0.000 A 
ATOM     19  C   UNL     1       5.044   4.064  15.072  0.00  0.00    +0.000 A 
ATOM     20  C   UNL     1       5.519   3.808  13.782  0.00  0.00    +0.000 A 
BRANCH  15  21
ATOM     21  O   UNL     1       7.306   4.111  12.154  0.00  0.00    +0.000 OA
BRANCH  21  23
ATOM     22  C   UNL     1       7.453   1.939  11.143  0.00  0.00    +0.000 C 
ATOM     23  C   UNL     1       6.610   3.195  11.295  0.00  0.00    +0.000 C 
ENDBRANCH  21  23
ENDBRANCH  15  21
ENDBRANCH   1  18
TORSDOF 3
ENDMDL
MODEL 5
REMARK VINA RESULT:      -6.9      2.974      4.912
REMARK  Name = 
REMARK  4 active torsions:
REMARK  status: ('A' for Active; 'I' for Inactive)
REMARK    1  A    between atoms: C_1  and  C_2
REMARK    2  A    between atoms: C_2  and  O_3
REMARK    3  A    between atoms: O_3  and  C_4
REMARK    4  A    between atoms: C_7  and  N_8
REMARK                            x       y       z     vdW  Elec       q    Type
REMARK                         _______ _______ _______ _____ _____    ______ ____
ROOT
ATOM      1  N   UNL     1       5.416   4.693  18.093  0.00  0.00    +0.000 N 
ATOM      2  C   UNL     1       4.763   4.066  17.088  0.00  0.00    +0.000 C 
ATOM      3  O   UNL     1       4.923   4.295  15.880  0.00  0.00    +0.000 OA
ATOM      4  C   UNL     1       3.834   2.863  17.571  0.00  0.00    +0.000 C 
ATOM      5  C   UNL     1       2.341   2.962  17.798  0.00  0.00    +0.000 C 
ATOM      6  C   UNL     1       2.350   4.358  18.674  0.00  0.00    +0.000 C 
ATOM      7  C   UNL     1       2.982   4.401  19.857  0.00  0.00    +0.000 C 
ATOM      8  C   UNL     1       2.769   2.890  20.136  0.00  0.00    +0.000 C 
ATOM      9  C   UNL     1       1.471   2.223  19.795  0.00  0.00    +0.000 C 
ATOM     10  C   UNL     1       0.244   3.071  19.092  0.00  0.00    +0.000 C 
ATOM     11  C   UNL     1       1.246   2.191  18.412  0.00  0.00    +0.000 C 
ATOM     12  C   UNL     1       4.169   2.801  19.067  0.00  0.00    +0.000 C 
ATOM     13  C   UNL     1       5.293   3.968  19.252  0.00  0.00    +0.000 C 
ATOM     14  O   UNL     1       5.821   4.239  20.329  0.00  0.00    +0.000 OA
ENDROOT
BRANCH   1  18
ATOM     15  C   UNL     1       7.702   8.273  17.730  0.00  0.00    +0.000 A 
ATOM     16  C   UNL     1       8.236   7.154  18.387  0.00  0.00    +0.000 A 
ATOM     17  C   UNL     1       7.534   5.937  18.415  0.00  0.00    +0.000 A 
ATOM     18  C   UNL     1       6.228   5.855  17.908  0.00  0.00    +0.000 A 
ATOM     19  C   UNL     1       5.727   6.980  17.241  0.00  0.00    +0.000 A 
ATOM     20  C   UNL     1       6.444   8.177  17.152  0.00  0.00    +0.000 A 
BRANCH  15  21
ATOM     21  O   UNL     1       8.504   9.379  17.645  0.00  0.00    +0.000 OA
BRANCH  21  23
ATOM     22  C   UNL     1       9.423  11.335  18.689  0.00  0.00    +0.000 C 
ATOM     23  C   UNL     1       9.022   9.882  18.886  0.00  0.00    +0.000 C 
ENDBRANCH  21  23
ENDBRANCH  15  21
ENDBRANCH   1  18
TORSDOF 3
ENDMDL
MODEL 6
REMARK VINA RESULT:      -6.9      1.586      2.324
REMARK  Name = 
REMARK  4 active torsions:
REMARK  status: ('A' for Active; 'I' for Inactive)
REMARK    1  A    between atoms: C_1  and  C_2
REMARK    2  A    between atoms: C_2  and  O_3
REMARK    3  A    between atoms: O_3  and  C_4
REMARK    4  A    between atoms: C_7  and  N_8
REMARK                            x       y       z     vdW  Elec       q    Type
REMARK                         _______ _______ _______ _____ _____    ______ ____
ROOT
ATOM      1  N   UNL     1       3.711   4.784  17.505  0.00  0.00    +0.000 N 
ATOM      2  C   UNL     1       3.706   5.499  18.652  0.00  0.00    +0.000 C 
ATOM      3  O   UNL     1       4.492   6.419  18.924  0.00  0.00    +0.000 OA
ATOM      4  C   UNL     1       2.484   5.163  19.620  0.00  0.00    +0.000 C 
ATOM      5  C   UNL     1       2.552   4.222  20.802  0.00  0.00    +0.000 C 
ATOM      6  C   UNL     1       3.328   2.980  20.044  0.00  0.00    +0.000 C 
ATOM      7  C   UNL     1       2.741   2.354  19.014  0.00  0.00    +0.000 C 
ATOM      8  C   UNL     1       1.306   2.649  19.527  0.00  0.00    +0.000 C 
ATOM      9  C   UNL     1       0.979   2.553  20.985  0.00  0.00    +0.000 C 
ATOM     10  C   UNL     1       2.139   2.157  22.088  0.00  0.00    +0.000 C 
ATOM     11  C   UNL     1       1.650   3.527  21.737  0.00  0.00    +0.000 C 
ATOM     12  C   UNL     1       1.669   4.193  18.754  0.00  0.00    +0.000 C 
ATOM     13  C   UNL     1       2.517   4.122  17.363  0.00  0.00    +0.000 C 
ATOM     14  O   UNL     1       2.186   3.435  16.399  0.00  0.00    +0.000 OA
ENDROOT
BRANCH   1  18
ATOM     15  C   UNL     1       6.970   5.123  14.776  0.00  0.00    +0.000 A 
ATOM     16  C   UNL     1       6.775   3.941  15.505  0.00  0.00    +0.000 A 
ATOM     17  C   UNL     1       5.644   3.781  16.323  0.00  0.00    +0.000 A 
ATOM     18  C   UNL     1       4.759   4.850  16.533  0.00  0.00    +0.000 A 
ATOM     19  C   UNL     1       4.964   6.011  15.779  0.00  0.00    +0.000 A 
ATOM     20  C   UNL     1       6.053   6.157  14.914  0.00  0.00    +0.000 A 
BRANCH  15  21
ATOM     21  O   UNL     1       8.031   5.148  13.912  0.00  0.00    +0.000 OA
BRANCH  21  23
ATOM     22  C   UNL     1       7.102   4.009  12.015  0.00  0.00    +0.000 C 
ATOM     23  C   UNL     1       7.711   5.307  12.522  0.00  0.00    +0.000 C 
ENDBRANCH  21  23
ENDBRANCH  15  21
ENDBRANCH   1  18
TORSDOF 3
ENDMDL
MODEL 7
REMARK VINA RESULT:      -6.5      2.981      4.852
REMARK  Name = 
REMARK  4 active torsions:
REMARK  status: ('A' for Active; 'I' for Inactive)
REMARK    1  A    between atoms: C_1  and  C_2
REMARK    2  A    between atoms: C_2  and  O_3
REMARK    3  A    between atoms: O_3  and  C_4
REMARK    4  A    between atoms: C_7  and  N_8
REMARK                            x       y       z     vdW  Elec       q    Type
REMARK                         _______ _______ _______ _____ _____    ______ ____
ROOT
ATOM      1  N   UNL     1       5.342   4.730  18.193  0.00  0.00    +0.000 N 
ATOM      2  C   UNL     1       4.712   4.159  17.141  0.00  0.00    +0.000 C 
ATOM      3  O   UNL     1       4.879   4.472  15.953  0.00  0.00    +0.000 OA
ATOM      4  C   UNL     1       3.804   2.907  17.533  0.00  0.00    +0.000 C 
ATOM      5  C   UNL     1       2.308   2.960  17.750  0.00  0.00    +0.000 C 
ATOM      6  C   UNL     1       2.279   4.294  18.718  0.00  0.00    +0.000 C 
ATOM      7  C   UNL     1       2.898   4.271  19.907  0.00  0.00    +0.000 C 
ATOM      8  C   UNL     1       2.715   2.740  20.082  0.00  0.00    +0.000 C 
ATOM      9  C   UNL     1       1.435   2.071  19.683  0.00  0.00    +0.000 C 
ATOM     10  C   UNL     1       0.196   2.939  19.025  0.00  0.00    +0.000 C 
ATOM     11  C   UNL     1       1.224   2.128  18.299  0.00  0.00    +0.000 C 
ATOM     12  C   UNL     1       4.126   2.752  19.024  0.00  0.00    +0.000 C 
ATOM     13  C   UNL     1       5.224   3.926  19.300  0.00  0.00    +0.000 C 
ATOM     14  O   UNL     1       5.736   4.134  20.398  0.00  0.00    +0.000 OA
ENDROOT
BRANCH   1  18
ATOM     15  C   UNL     1       7.842   8.152  17.728  0.00  0.00    +0.000 A 
ATOM     16  C   UNL     1       6.580   8.107  17.117  0.00  0.00    +0.000 A 
ATOM     17  C   UNL     1       5.706   7.032  17.354  0.00  0.00    +0.000 A 
ATOM     18  C   UNL     1       6.131   5.918  18.095  0.00  0.00    +0.000 A 
ATOM     19  C   UNL     1       7.386   5.997  18.710  0.00  0.00    +0.000 A 
ATOM     20  C   UNL     1       8.239   7.092  18.531  0.00  0.00    +0.000 A 
BRANCH  15  21
ATOM     21  O   UNL     1       8.578   9.291  17.540  0.00  0.00    +0.000 OA
BRANCH  21  23
ATOM     22  C   UNL     1       9.691  11.267  18.326  0.00  0.00    +0.000 C 
ATOM     23  C   UNL     1       8.998   9.975  18.730  0.00  0.00    +0.000 C 
ENDBRANCH  21  23
ENDBRANCH  15  21
ENDBRANCH   1  18
TORSDOF 3
ENDMDL
MODEL 8
REMARK VINA RESULT:      -6.4      3.776      7.313
REMARK  Name = 
REMARK  4 active torsions:
REMARK  status: ('A' for Active; 'I' for Inactive)
REMARK    1  A    between atoms: C_1  and  C_2
REMARK    2  A    between atoms: C_2  and  O_3
REMARK    3  A    between atoms: O_3  and  C_4
REMARK    4  A    between atoms: C_7  and  N_8
REMARK                            x       y       z     vdW  Elec       q    Type
REMARK                         _______ _______ _______ _____ _____    ______ ____
ROOT
ATOM      1  N   UNL     1       2.353   7.224  19.226  0.00  0.00    +0.000 N 
ATOM      2  C   UNL     1       3.355   6.946  18.361  0.00  0.00    +0.000 C 
ATOM      3  O   UNL     1       3.831   7.744  17.539  0.00  0.00    +0.000 OA
ATOM      4  C   UNL     1       4.008   5.506  18.569  0.00  0.00    +0.000 C 
ATOM      5  C   UNL     1       3.656   4.274  17.765  0.00  0.00    +0.000 C 
ATOM      6  C   UNL     1       2.016   4.421  17.856  0.00  0.00    +0.000 C 
ATOM      7  C   UNL     1       1.404   4.362  19.048  0.00  0.00    +0.000 C 
ATOM      8  C   UNL     1       2.497   3.455  19.673  0.00  0.00    +0.000 C 
ATOM      9  C   UNL     1       3.110   2.339  18.883  0.00  0.00    +0.000 C 
ATOM     10  C   UNL     1       2.659   2.061  17.322  0.00  0.00    +0.000 C 
ATOM     11  C   UNL     1       3.860   2.815  17.800  0.00  0.00    +0.000 C 
ATOM     12  C   UNL     1       3.286   5.024  19.833  0.00  0.00    +0.000 C 
ATOM     13  C   UNL     1       2.321   6.280  20.222  0.00  0.00    +0.000 C 
ATOM     14  O   UNL     1       1.566   6.283  21.192  0.00  0.00    +0.000 OA
ENDROOT
BRANCH   1  18
ATOM     15  C   UNL     1      -0.215  10.621  19.004  0.00  0.00    +0.000 A 
ATOM     16  C   UNL     1       0.222  10.142  20.247  0.00  0.00    +0.000 A 
ATOM     17  C   UNL     1       1.154   9.093  20.325  0.00  0.00    +0.000 A 
ATOM     18  C   UNL     1       1.561   8.413  19.166  0.00  0.00    +0.000 A 
ATOM     19  C   UNL     1       1.126   8.923  17.937  0.00  0.00    +0.000 A 
ATOM     20  C   UNL     1       0.247  10.008  17.847  0.00  0.00    +0.000 A 
BRANCH  15  21
ATOM     21  O   UNL     1      -1.027  11.723  19.017  0.00  0.00    +0.000 OA
BRANCH  21  23
ATOM     22  C   UNL     1      -3.250  11.331  18.202  0.00  0.00    +0.000 C 
ATOM     23  C   UNL     1      -1.877  11.895  17.874  0.00  0.00    +0.000 C 
ENDBRANCH  21  23
ENDBRANCH  15  21
ENDBRANCH   1  18
TORSDOF 3
ENDMDL
MODEL 9
REMARK VINA RESULT:      -6.4      2.991      4.912
REMARK  Name = 
REMARK  4 active torsions:
REMARK  status: ('A' for Active; 'I' for Inactive)
REMARK    1  A    between atoms: C_1  and  C_2
REMARK    2  A    between atoms: C_2  and  O_3
REMARK    3  A    between atoms: O_3  and  C_4
REMARK    4  A    between atoms: C_7  and  N_8
REMARK                            x       y       z     vdW  Elec       q    Type
REMARK                         _______ _______ _______ _____ _____    ______ ____
ROOT
ATOM      1  N   UNL     1       4.466   5.551  17.676  0.00  0.00    +0.000 N 
ATOM      2  C   UNL     1       3.199   5.955  17.923  0.00  0.00    +0.000 C 
ATOM      3  O   UNL     1       2.852   7.126  18.138  0.00  0.00    +0.000 OA
ATOM      4  C   UNL     1       2.111   4.798  17.777  0.00  0.00    +0.000 C 
ATOM      5  C   UNL     1       1.540   3.999  18.927  0.00  0.00    +0.000 C 
ATOM      6  C   UNL     1       2.968   3.654  19.678  0.00  0.00    +0.000 C 
ATOM      7  C   UNL     1       3.895   2.920  19.045  0.00  0.00    +0.000 C 
ATOM      8  C   UNL     1       2.848   2.153  18.194  0.00  0.00    +0.000 C 
ATOM      9  C   UNL     1       1.553   1.702  18.797  0.00  0.00    +0.000 C 
ATOM     10  C   UNL     1       1.194   2.030  20.373  0.00  0.00    +0.000 C 
ATOM     11  C   UNL     1       0.741   2.784  19.162  0.00  0.00    +0.000 C 
ATOM     12  C   UNL     1       2.967   3.639  17.251  0.00  0.00    +0.000 C 
ATOM     13  C   UNL     1       4.455   4.295  17.123  0.00  0.00    +0.000 C 
ATOM     14  O   UNL     1       5.440   3.673  16.731  0.00  0.00    +0.000 OA
ENDROOT
BRANCH   1  18
ATOM     15  C   UNL     1       8.012   7.896  18.001  0.00  0.00    +0.000 A 
ATOM     16  C   UNL     1       6.954   8.319  17.184  0.00  0.00    +0.000 A 
ATOM     17  C   UNL     1       5.741   7.611  17.156  0.00  0.00    +0.000 A 
ATOM     18  C   UNL     1       5.612   6.391  17.838  0.00  0.00    +0.000 A 
ATOM     19  C   UNL     1       6.674   6.001  18.662  0.00  0.00    +0.000 A 
ATOM     20  C   UNL     1       7.863   6.733  18.746  0.00  0.00    +0.000 A 
BRANCH  15  21
ATOM     21  O   UNL     1       9.110   8.710  18.061  0.00  0.00    +0.000 OA
BRANCH  21  23
ATOM     22  C   UNL     1       9.557  11.058  18.280  0.00  0.00    +0.000 C 
ATOM     23  C   UNL     1       9.030   9.813  18.976  0.00  0.00    +0.000 C 
ENDBRANCH  21  23
ENDBRANCH  15  21
ENDBRANCH   1  18
TORSDOF 3
ENDMDL
