MODEL 1
REMARK VINA RESULT:      -8.2      0.000      0.000
REMARK  Name = 
REMARK  6 active torsions:
REMARK  status: ('A' for Active; 'I' for Inactive)
REMARK    1  A    between atoms: C_1  and  C_2
REMARK    2  A    between atoms: C_2  and  O_3
REMARK    3  A    between atoms: O_3  and  C_4
REMARK    4  A    between atoms: C_6  and  N_7
REMARK    5  A    between atoms: N_7  and  S_8
REMARK    6  A    between atoms: S_8  and  C_11
REMARK                            x       y       z     vdW  Elec       q    Type
REMARK                         _______ _______ _______ _____ _____    ______ ____
ROOT
ATOM      1  C   UNL     1       5.487   4.488  15.120  0.00  0.00    +0.000 A 
ATOM      2  C   UNL     1       4.799   3.695  16.028  0.00  0.00    +0.000 A 
ATOM      3  C   UNL     1       5.063   3.789  17.399  0.00  0.00    +0.000 A 
ATOM      4  C   UNL     1       6.013   4.684  17.911  0.00  0.00    +0.000 A 
ATOM      5  N   UNL     1       6.272   4.753  19.237  0.00  0.00    +0.000 NA
ATOM      6  C   UNL     1       7.179   5.658  19.667  0.00  0.00    +0.000 A 
ATOM      7  C   UNL     1       7.896   6.491  18.829  0.00  0.00    +0.000 A 
ATOM      8  C   UNL     1       7.661   6.398  17.464  0.00  0.00    +0.000 A 
ATOM      9  C   UNL     1       6.705   5.492  16.981  0.00  0.00    +0.000 A 
ATOM     10  C   UNL     1       6.437   5.388  15.602  0.00  0.00    +0.000 A 
ENDROOT
BRANCH   3  11
ATOM     11  N   UNL     1       4.310   2.909  18.255  0.00  0.00    +0.000 N 
ATOM     12  H   UNL     1       4.636   2.882  19.223  0.00  0.00    +0.000 HD
BRANCH  11  13
ATOM     13  S   UNL     1       2.621   3.044  18.237  0.00  0.00    +0.000 S 
ATOM     14  O   UNL     1       2.219   3.041  16.842  0.00  0.00    +0.000 OA
ATOM     15  O   UNL     1       2.032   2.117  19.180  0.00  0.00    +0.000 OA
BRANCH  13  16
ATOM     16  C   UNL     1       2.360   4.692  18.843  0.00  0.00    +0.000 A 
ATOM     17  C   UNL     1       2.581   5.778  17.990  0.00  0.00    +0.000 A 
ATOM     18  C   UNL     1       2.488   7.074  18.498  0.00  0.00    +0.000 A 
ATOM     19  C   UNL     1       2.157   7.275  19.841  0.00  0.00    +0.000 A 
ATOM     20  C   UNL     1       1.901   6.187  20.677  0.00  0.00    +0.000 A 
ATOM     21  C   UNL     1       2.000   4.889  20.178  0.00  0.00    +0.000 A 
ENDBRANCH  13  16
ENDBRANCH  11  13
ENDBRANCH   3  11
BRANCH   1  22
ATOM     22  O   UNL     1       5.323   4.458  13.761  0.00  0.00    +0.000 OA
BRANCH  22  24
ATOM     23  C   UNL     1       5.518   2.978  11.883  0.00  0.00    +0.000 C 
ATOM     24  C   UNL     1       6.245   3.641  13.037  0.00  0.00    +0.000 C 
ENDBRANCH  22  24
ENDBRANCH   1  22
TORSDOF 5
ENDMDL
MODEL 2
REMARK VINA RESULT:      -8.0      1.942      3.093
REMARK  Name = 
REMARK  6 active torsions:
REMARK  status: ('A' for Active; 'I' for Inactive)
REMARK    1  A    between atoms: C_1  and  C_2
REMARK    2  A    between atoms: C_2  and  O_3
REMARK    3  A    between atoms: O_3  and  C_4
REMARK    4  A    between atoms: C_6  and  N_7
REMARK    5  A    between atoms: N_7  and  S_8
REMARK    6  A    between atoms: S_8  and  C_11
REMARK                            x       y       z     vdW  Elec       q    Type
REMARK                         _______ _______ _______ _____ _____    ______ ____
ROOT
ATOM      1  C   UNL     1       5.706   5.633  16.112  0.00  0.00    +0.000 A 
ATOM      2  C   UNL     1       5.874   4.673  17.102  0.00  0.00    +0.000 A 
ATOM      3  C   UNL     1       5.119   4.722  18.278  0.00  0.00    +0.000 A 
ATOM      4  C   UNL     1       4.162   5.723  18.503  0.00  0.00    +0.000 A 
ATOM      5  N   UNL     1       3.450   5.771  19.652  0.00  0.00    +0.000 NA
ATOM      6  C   UNL     1       2.524   6.745  19.793  0.00  0.00    +0.000 A 
ATOM      7  C   UNL     1       2.288   7.728  18.851  0.00  0.00    +0.000 A 
ATOM      8  C   UNL     1       3.042   7.706  17.686  0.00  0.00    +0.000 A 
ATOM      9  C   UNL     1       3.992   6.693  17.489  0.00  0.00    +0.000 A 
ATOM     10  C   UNL     1       4.761   6.640  16.310  0.00  0.00    +0.000 A 
ENDROOT
BRANCH   3  11
ATOM     11  N   UNL     1       5.382   3.693  19.249  0.00  0.00    +0.000 N 
ATOM     12  H   UNL     1       5.303   3.999  20.221  0.00  0.00    +0.000 HD
BRANCH  11  13
ATOM     13  S   UNL     1       4.585   2.209  19.064  0.00  0.00    +0.000 S 
ATOM     14  O   UNL     1       4.498   1.960  17.637  0.00  0.00    +0.000 OA
ATOM     15  O   UNL     1       5.150   1.219  19.957  0.00  0.00    +0.000 OA
BRANCH  13  16
ATOM     16  C   UNL     1       2.941   2.583  19.620  0.00  0.00    +0.000 A 
ATOM     17  C   UNL     1       1.919   2.739  18.679  0.00  0.00    +0.000 A 
ATOM     18  C   UNL     1       0.655   3.146  19.107  0.00  0.00    +0.000 A 
ATOM     19  C   UNL     1       0.417   3.374  20.466  0.00  0.00    +0.000 A 
ATOM     20  C   UNL     1       1.432   3.179  21.403  0.00  0.00    +0.000 A 
ATOM     21  C   UNL     1       2.701   2.781  20.982  0.00  0.00    +0.000 A 
ENDBRANCH  13  16
ENDBRANCH  11  13
ENDBRANCH   3  11
BRANCH   1  22
ATOM     22  O   UNL     1       6.408   5.690  14.939  0.00  0.00    +0.000 OA
BRANCH  22  24
ATOM     23  C   UNL     1       6.103   3.834  13.450  0.00  0.00    +0.000 C 
ATOM     24  C   UNL     1       6.996   4.463  14.500  0.00  0.00    +0.000 C 
ENDBRANCH  22  24
ENDBRANCH   1  22
TORSDOF 5
ENDMDL
MODEL 3
REMARK VINA RESULT:      -7.9      2.685      6.214
REMARK  Name = 
REMARK  6 active torsions:
REMARK  status: ('A' for Active; 'I' for Inactive)
REMARK    1  A    between atoms: C_1  and  C_2
REMARK    2  A    between atoms: C_2  and  O_3
REMARK    3  A    between atoms: O_3  and  C_4
REMARK    4  A    between atoms: C_6  and  N_7
REMARK    5  A    between atoms: N_7  and  S_8
REMARK    6  A    between atoms: S_8  and  C_11
REMARK                            x       y       z     vdW  Elec       q    Type
REMARK                         _______ _______ _______ _____ _____    ______ ____
ROOT
ATOM      1  C   UNL     1       3.078   6.422  17.964  0.00  0.00    +0.000 A 
ATOM      2  C   UNL     1       4.088   5.709  17.333  0.00  0.00    +0.000 A 
ATOM      3  C   UNL     1       4.522   4.482  17.847  0.00  0.00    +0.000 A 
ATOM      4  C   UNL     1       3.957   3.921  19.001  0.00  0.00    +0.000 A 
ATOM      5  N   UNL     1       4.396   2.743  19.499  0.00  0.00    +0.000 NA
ATOM      6  C   UNL     1       3.789   2.243  20.598  0.00  0.00    +0.000 A 
ATOM      7  C   UNL     1       2.770   2.886  21.276  0.00  0.00    +0.000 A 
ATOM      8  C   UNL     1       2.340   4.113  20.790  0.00  0.00    +0.000 A 
ATOM      9  C   UNL     1       2.925   4.650  19.635  0.00  0.00    +0.000 A 
ATOM     10  C   UNL     1       2.498   5.887  19.114  0.00  0.00    +0.000 A 
ENDROOT
BRANCH   3  11
ATOM     11  N   UNL     1       5.588   3.831  17.131  0.00  0.00    +0.000 N 
ATOM     12  H   UNL     1       5.278   3.244  16.355  0.00  0.00    +0.000 HD
BRANCH  11  13
ATOM     13  S   UNL     1       6.894   4.784  16.623  0.00  0.00    +0.000 S 
ATOM     14  O   UNL     1       6.552   6.159  16.935  0.00  0.00    +0.000 OA
ATOM     15  O   UNL     1       8.143   4.209  17.079  0.00  0.00    +0.000 OA
BRANCH  13  16
ATOM     16  C   UNL     1       6.824   4.625  14.856  0.00  0.00    +0.000 A 
ATOM     17  C   UNL     1       5.868   3.780  14.283  0.00  0.00    +0.000 A 
ATOM     18  C   UNL     1       5.887   3.566  12.904  0.00  0.00    +0.000 A 
ATOM     19  C   UNL     1       6.842   4.209  12.111  0.00  0.00    +0.000 A 
ATOM     20  C   UNL     1       7.768   5.079  12.686  0.00  0.00    +0.000 A 
ATOM     21  C   UNL     1       7.761   5.292  14.064  0.00  0.00    +0.000 A 
ENDBRANCH  13  16
ENDBRANCH  11  13
ENDBRANCH   3  11
BRANCH   1  22
ATOM     22  O   UNL     1       2.598   7.639  17.559  0.00  0.00    +0.000 OA
BRANCH  22  24
ATOM     23  C   UNL     1       1.862   9.873  18.031  0.00  0.00    +0.000 C 
ATOM     24  C   UNL     1       2.070   8.479  18.588  0.00  0.00    +0.000 C 
ENDBRANCH  22  24
ENDBRANCH   1  22
TORSDOF 5
ENDMDL
MODEL 4
REMARK VINA RESULT:      -7.9      0.322      1.067
REMARK  Name = 
REMARK  6 active torsions:
REMARK  status: ('A' for Active; 'I' for Inactive)
REMARK    1  A    between atoms: C_1  and  C_2
REMARK    2  A    between atoms: C_2  and  O_3
REMARK    3  A    between atoms: O_3  and  C_4
REMARK    4  A    between atoms: C_6  and  N_7
REMARK    5  A    between atoms: N_7  and  S_8
REMARK    6  A    between atoms: S_8  and  C_11
REMARK                            x       y       z     vdW  Elec       q    Type
REMARK                         _______ _______ _______ _____ _____    ______ ____
ROOT
ATOM      1  C   UNL     1       5.564   4.629  15.037  0.00  0.00    +0.000 A 
ATOM      2  C   UNL     1       4.892   3.775  15.901  0.00  0.00    +0.000 A 
ATOM      3  C   UNL     1       5.138   3.814  17.277  0.00  0.00    +0.000 A 
ATOM      4  C   UNL     1       6.055   4.714  17.841  0.00  0.00    +0.000 A 
ATOM      5  N   UNL     1       6.298   4.730  19.171  0.00  0.00    +0.000 NA
ATOM      6  C   UNL     1       7.172   5.642  19.653  0.00  0.00    +0.000 A 
ATOM      7  C   UNL     1       7.871   6.534  18.861  0.00  0.00    +0.000 A 
ATOM      8  C   UNL     1       7.653   6.496  17.491  0.00  0.00    +0.000 A 
ATOM      9  C   UNL     1       6.731   5.584  16.956  0.00  0.00    +0.000 A 
ATOM     10  C   UNL     1       6.481   5.535  15.571  0.00  0.00    +0.000 A 
ENDROOT
BRANCH   3  11
ATOM     11  N   UNL     1       4.405   2.874  18.084  0.00  0.00    +0.000 N 
ATOM     12  H   UNL     1       4.787   2.732  19.020  0.00  0.00    +0.000 HD
BRANCH  11  13
ATOM     13  S   UNL     1       2.724   3.067  18.190  0.00  0.00    +0.000 S 
ATOM     14  O   UNL     1       2.227   3.130  16.828  0.00  0.00    +0.000 OA
ATOM     15  O   UNL     1       2.169   2.126  19.140  0.00  0.00    +0.000 OA
BRANCH  13  16
ATOM     16  C   UNL     1       2.567   4.700  18.870  0.00  0.00    +0.000 A 
ATOM     17  C   UNL     1       2.278   4.850  20.230  0.00  0.00    +0.000 A 
ATOM     18  C   UNL     1       2.040   6.126  20.739  0.00  0.00    +0.000 A 
ATOM     19  C   UNL     1       2.112   7.239  19.896  0.00  0.00    +0.000 A 
ATOM     20  C   UNL     1       2.438   7.084  18.548  0.00  0.00    +0.000 A 
ATOM     21  C   UNL     1       2.668   5.811  18.029  0.00  0.00    +0.000 A 
ENDBRANCH  13  16
ENDBRANCH  11  13
ENDBRANCH   3  11
BRANCH   1  22
ATOM     22  O   UNL     1       5.415   4.656  13.677  0.00  0.00    +0.000 OA
BRANCH  22  24
ATOM     23  C   UNL     1       6.698   3.548  11.978  0.00  0.00    +0.000 C 
ATOM     24  C   UNL     1       5.589   3.408  13.003  0.00  0.00    +0.000 C 
ENDBRANCH  22  24
ENDBRANCH   1  22
TORSDOF 5
ENDMDL
MODEL 5
REMARK VINA RESULT:      -7.8      2.001      3.249
REMARK  Name = 
REMARK  6 active torsions:
REMARK  status: ('A' for Active; 'I' for Inactive)
REMARK    1  A    between atoms: C_1  and  C_2
REMARK    2  A    between atoms: C_2  and  O_3
REMARK    3  A    between atoms: O_3  and  C_4
REMARK    4  A    between atoms: C_6  and  N_7
REMARK    5  A    between atoms: N_7  and  S_8
REMARK    6  A    between atoms: S_8  and  C_11
REMARK                            x       y       z     vdW  Elec       q    Type
REMARK                         _______ _______ _______ _____ _____    ______ ____
ROOT
ATOM      1  C   UNL     1       6.030   5.608  16.265  0.00  0.00    +0.000 A 
ATOM      2  C   UNL     1       6.110   4.654  17.271  0.00  0.00    +0.000 A 
ATOM      3  C   UNL     1       5.253   4.709  18.375  0.00  0.00    +0.000 A 
ATOM      4  C   UNL     1       4.280   5.711  18.508  0.00  0.00    +0.000 A 
ATOM      5  N   UNL     1       3.468   5.764  19.588  0.00  0.00    +0.000 NA
ATOM      6  C   UNL     1       2.532   6.739  19.641  0.00  0.00    +0.000 A 
ATOM      7  C   UNL     1       2.382   7.717  18.676  0.00  0.00    +0.000 A 
ATOM      8  C   UNL     1       3.237   7.688  17.583  0.00  0.00    +0.000 A 
ATOM      9  C   UNL     1       4.201   6.675  17.477  0.00  0.00    +0.000 A 
ATOM     10  C   UNL     1       5.072   6.615  16.372  0.00  0.00    +0.000 A 
ENDROOT
BRANCH   3  11
ATOM     11  N   UNL     1       5.429   3.686  19.372  0.00  0.00    +0.000 N 
ATOM     12  H   UNL     1       5.306   4.008  20.334  0.00  0.00    +0.000 HD
BRANCH  11  13
ATOM     13  S   UNL     1       4.596   2.226  19.160  0.00  0.00    +0.000 S 
ATOM     14  O   UNL     1       4.537   1.985  17.731  0.00  0.00    +0.000 OA
ATOM     15  O   UNL     1       5.111   1.217  20.062  0.00  0.00    +0.000 OA
BRANCH  13  16
ATOM     16  C   UNL     1       2.950   2.643  19.679  0.00  0.00    +0.000 A 
ATOM     17  C   UNL     1       2.686   2.825  21.040  0.00  0.00    +0.000 A 
ATOM     18  C   UNL     1       1.373   3.038  21.457  0.00  0.00    +0.000 A 
ATOM     19  C   UNL     1       0.340   3.088  20.516  0.00  0.00    +0.000 A 
ATOM     20  C   UNL     1       0.616   2.943  19.156  0.00  0.00    +0.000 A 
ATOM     21  C   UNL     1       1.926   2.722  18.732  0.00  0.00    +0.000 A 
ENDBRANCH  13  16
ENDBRANCH  11  13
ENDBRANCH   3  11
BRANCH   1  22
ATOM     22  O   UNL     1       6.835   5.659  15.159  0.00  0.00    +0.000 OA
BRANCH  22  24
ATOM     23  C   UNL     1       5.574   4.175  13.757  0.00  0.00    +0.000 C 
ATOM     24  C   UNL     1       6.922   4.456  14.391  0.00  0.00    +0.000 C 
ENDBRANCH  22  24
ENDBRANCH   1  22
TORSDOF 5
ENDMDL
MODEL 6
REMARK VINA RESULT:      -7.8      2.862      6.365
REMARK  Name = 
REMARK  6 active torsions:
REMARK  status: ('A' for Active; 'I' for Inactive)
REMARK    1  A    between atoms: C_1  and  C_2
REMARK    2  A    between atoms: C_2  and  O_3
REMARK    3  A    between atoms: O_3  and  C_4
REMARK    4  A    between atoms: C_6  and  N_7
REMARK    5  A    between atoms: N_7  and  S_8
REMARK    6  A    between atoms: S_8  and  C_11
REMARK                            x       y       z     vdW  Elec       q    Type
REMARK                         _______ _______ _______ _____ _____    ______ ____
ROOT
ATOM      1  C   UNL     1       3.126   7.267  18.174  0.00  0.00    +0.000 A 
ATOM      2  C   UNL     1       3.900   6.514  17.302  0.00  0.00    +0.000 A 
ATOM      3  C   UNL     1       4.172   5.169  17.570  0.00  0.00    +0.000 A 
ATOM      4  C   UNL     1       3.672   4.525  18.711  0.00  0.00    +0.000 A 
ATOM      5  N   UNL     1       3.956   3.228  18.970  0.00  0.00    +0.000 NA
ATOM      6  C   UNL     1       3.419   2.661  20.073  0.00  0.00    +0.000 A 
ATOM      7  C   UNL     1       2.630   3.338  20.983  0.00  0.00    +0.000 A 
ATOM      8  C   UNL     1       2.366   4.680  20.742  0.00  0.00    +0.000 A 
ATOM      9  C   UNL     1       2.880   5.296  19.592  0.00  0.00    +0.000 A 
ATOM     10  C   UNL     1       2.616   6.653  19.318  0.00  0.00    +0.000 A 
ENDROOT
BRANCH   3  11
ATOM     11  N   UNL     1       5.000   4.482  16.613  0.00  0.00    +0.000 N 
ATOM     12  H   UNL     1       4.532   4.257  15.734  0.00  0.00    +0.000 HD
BRANCH  11  13
ATOM     13  S   UNL     1       6.529   5.133  16.283  0.00  0.00    +0.000 S 
ATOM     14  O   UNL     1       6.386   6.576  16.334  0.00  0.00    +0.000 OA
ATOM     15  O   UNL     1       7.543   4.459  17.067  0.00  0.00    +0.000 OA
BRANCH  13  16
ATOM     16  C   UNL     1       6.771   4.702  14.577  0.00  0.00    +0.000 A 
ATOM     17  C   UNL     1       7.709   5.408  13.819  0.00  0.00    +0.000 A 
ATOM     18  C   UNL     1       7.817   5.147  12.453  0.00  0.00    +0.000 A 
ATOM     19  C   UNL     1       7.005   4.175  11.861  0.00  0.00    +0.000 A 
ATOM     20  C   UNL     1       6.098   3.448  12.632  0.00  0.00    +0.000 A 
ATOM     21  C   UNL     1       5.978   3.708  13.997  0.00  0.00    +0.000 A 
ENDBRANCH  13  16
ENDBRANCH  11  13
ENDBRANCH   3  11
BRANCH   1  22
ATOM     22  O   UNL     1       2.822   8.593  18.018  0.00  0.00    +0.000 OA
BRANCH  22  24
ATOM     23  C   UNL     1       1.029  10.014  18.742  0.00  0.00    +0.000 C 
ATOM     24  C   UNL     1       1.442   8.898  17.802  0.00  0.00    +0.000 C 
ENDBRANCH  22  24
ENDBRANCH   1  22
TORSDOF 5
ENDMDL
MODEL 7
REMARK VINA RESULT:      -7.8      1.871      2.188
REMARK  Name = 
REMARK  6 active torsions:
REMARK  status: ('A' for Active; 'I' for Inactive)
REMARK    1  A    between atoms: C_1  and  C_2
REMARK    2  A    between atoms: C_2  and  O_3
REMARK    3  A    between atoms: O_3  and  C_4
REMARK    4  A    between atoms: C_6  and  N_7
REMARK    5  A    between atoms: N_7  and  S_8
REMARK    6  A    between atoms: S_8  and  C_11
REMARK                            x       y       z     vdW  Elec       q    Type
REMARK                         _______ _______ _______ _____ _____    ______ ____
ROOT
ATOM      1  C   UNL     1       6.313   4.141  14.586  0.00  0.00    +0.000 A 
ATOM      2  C   UNL     1       5.463   3.372  15.370  0.00  0.00    +0.000 A 
ATOM      3  C   UNL     1       5.393   3.573  16.752  0.00  0.00    +0.000 A 
ATOM      4  C   UNL     1       6.159   4.554  17.399  0.00  0.00    +0.000 A 
ATOM      5  N   UNL     1       6.096   4.727  18.738  0.00  0.00    +0.000 NA
ATOM      6  C   UNL     1       6.840   5.709  19.294  0.00  0.00    +0.000 A 
ATOM      7  C   UNL     1       7.700   6.524  18.582  0.00  0.00    +0.000 A 
ATOM      8  C   UNL     1       7.796   6.325  17.211  0.00  0.00    +0.000 A 
ATOM      9  C   UNL     1       7.018   5.336  16.593  0.00  0.00    +0.000 A 
ATOM     10  C   UNL     1       7.087   5.123  15.202  0.00  0.00    +0.000 A 
ENDROOT
BRANCH   3  11
ATOM     11  N   UNL     1       4.496   2.711  17.478  0.00  0.00    +0.000 N 
ATOM     12  H   UNL     1       4.817   2.460  18.414  0.00  0.00    +0.000 HD
BRANCH  11  13
ATOM     13  S   UNL     1       2.861   3.153  17.547  0.00  0.00    +0.000 S 
ATOM     14  O   UNL     1       2.809   4.587  17.330  0.00  0.00    +0.000 OA
ATOM     15  O   UNL     1       2.063   2.252  16.742  0.00  0.00    +0.000 OA
BRANCH  13  16
ATOM     16  C   UNL     1       2.459   2.876  19.254  0.00  0.00    +0.000 A 
ATOM     17  C   UNL     1       1.158   3.129  19.700  0.00  0.00    +0.000 A 
ATOM     18  C   UNL     1       0.872   3.022  21.061  0.00  0.00    +0.000 A 
ATOM     19  C   UNL     1       1.876   2.646  21.959  0.00  0.00    +0.000 A 
ATOM     20  C   UNL     1       3.162   2.359  21.500  0.00  0.00    +0.000 A 
ATOM     21  C   UNL     1       3.458   2.471  20.142  0.00  0.00    +0.000 A 
ENDBRANCH  13  16
ENDBRANCH  11  13
ENDBRANCH   3  11
BRANCH   1  22
ATOM     22  O   UNL     1       6.475   4.010  13.233  0.00  0.00    +0.000 OA
BRANCH  22  24
ATOM     23  C   UNL     1       5.689   2.365  11.672  0.00  0.00    +0.000 C 
ATOM     24  C   UNL     1       5.323   3.580  12.503  0.00  0.00    +0.000 C 
ENDBRANCH  22  24
ENDBRANCH   1  22
TORSDOF 5
ENDMDL
MODEL 8
REMARK VINA RESULT:      -7.7      2.751      6.518
REMARK  Name = 
REMARK  6 active torsions:
REMARK  status: ('A' for Active; 'I' for Inactive)
REMARK    1  A    between atoms: C_1  and  C_2
REMARK    2  A    between atoms: C_2  and  O_3
REMARK    3  A    between atoms: O_3  and  C_4
REMARK    4  A    between atoms: C_6  and  N_7
REMARK    5  A    between atoms: N_7  and  S_8
REMARK    6  A    between atoms: S_8  and  C_11
REMARK                            x       y       z     vdW  Elec       q    Type
REMARK                         _______ _______ _______ _____ _____    ______ ____
ROOT
ATOM      1  C   UNL     1       2.889   6.759  18.488  0.00  0.00    +0.000 A 
ATOM      2  C   UNL     1       4.075   6.393  17.865  0.00  0.00    +0.000 A 
ATOM      3  C   UNL     1       4.351   5.050  17.591  0.00  0.00    +0.000 A 
ATOM      4  C   UNL     1       3.452   4.026  17.920  0.00  0.00    +0.000 A 
ATOM      5  N   UNL     1       3.738   2.729  17.666  0.00  0.00    +0.000 NA
ATOM      6  C   UNL     1       2.814   1.794  17.982  0.00  0.00    +0.000 A 
ATOM      7  C   UNL     1       1.607   2.077  18.593  0.00  0.00    +0.000 A 
ATOM      8  C   UNL     1       1.324   3.403  18.889  0.00  0.00    +0.000 A 
ATOM      9  C   UNL     1       2.244   4.406  18.549  0.00  0.00    +0.000 A 
ATOM     10  C   UNL     1       1.976   5.761  18.827  0.00  0.00    +0.000 A 
ENDROOT
BRANCH   3  11
ATOM     11  N   UNL     1       5.616   4.775  16.960  0.00  0.00    +0.000 N 
ATOM     12  H   UNL     1       5.687   3.845  16.544  0.00  0.00    +0.000 HD
BRANCH  11  13
ATOM     13  S   UNL     1       6.220   5.923  15.869  0.00  0.00    +0.000 S 
ATOM     14  O   UNL     1       5.139   6.856  15.607  0.00  0.00    +0.000 OA
ATOM     15  O   UNL     1       7.518   6.394  16.302  0.00  0.00    +0.000 OA
BRANCH  13  16
ATOM     16  C   UNL     1       6.443   4.968  14.389  0.00  0.00    +0.000 A 
ATOM     17  C   UNL     1       7.540   5.232  13.563  0.00  0.00    +0.000 A 
ATOM     18  C   UNL     1       7.652   4.562  12.345  0.00  0.00    +0.000 A 
ATOM     19  C   UNL     1       6.685   3.624  11.971  0.00  0.00    +0.000 A 
ATOM     20  C   UNL     1       5.613   3.339  12.818  0.00  0.00    +0.000 A 
ATOM     21  C   UNL     1       5.489   4.010  14.034  0.00  0.00    +0.000 A 
ENDBRANCH  13  16
ENDBRANCH  11  13
ENDBRANCH   3  11
BRANCH   1  22
ATOM     22  O   UNL     1       2.532   8.037  18.822  0.00  0.00    +0.000 OA
BRANCH  22  24
ATOM     23  C   UNL     1       1.317  10.048  18.335  0.00  0.00    +0.000 C 
ATOM     24  C   UNL     1       2.044   8.851  17.753  0.00  0.00    +0.000 C 
ENDBRANCH  22  24
ENDBRANCH   1  22
TORSDOF 5
ENDMDL
MODEL 9
REMARK VINA RESULT:      -7.7      2.734      5.618
REMARK  Name = 
REMARK  6 active torsions:
REMARK  status: ('A' for Active; 'I' for Inactive)
REMARK    1  A    between atoms: C_1  and  C_2
REMARK    2  A    between atoms: C_2  and  O_3
REMARK    3  A    between atoms: O_3  and  C_4
REMARK    4  A    between atoms: C_6  and  N_7
REMARK    5  A    between atoms: N_7  and  S_8
REMARK    6  A    between atoms: S_8  and  C_11
REMARK                            x       y       z     vdW  Elec       q    Type
REMARK                         _______ _______ _______ _____ _____    ______ ____
ROOT
ATOM      1  C   UNL     1       2.987   7.189  18.222  0.00  0.00    +0.000 A 
ATOM      2  C   UNL     1       3.602   6.286  17.366  0.00  0.00    +0.000 A 
ATOM      3  C   UNL     1       3.729   4.939  17.723  0.00  0.00    +0.000 A 
ATOM      4  C   UNL     1       3.239   4.446  18.941  0.00  0.00    +0.000 A 
ATOM      5  N   UNL     1       3.383   3.146  19.283  0.00  0.00    +0.000 NA
ATOM      6  C   UNL     1       2.862   2.729  20.459  0.00  0.00    +0.000 A 
ATOM      7  C   UNL     1       2.227   3.563  21.359  0.00  0.00    +0.000 A 
ATOM      8  C   UNL     1       2.108   4.906  21.030  0.00  0.00    +0.000 A 
ATOM      9  C   UNL     1       2.609   5.371  19.805  0.00  0.00    +0.000 A 
ATOM     10  C   UNL     1       2.490   6.726  19.440  0.00  0.00    +0.000 A 
ENDROOT
BRANCH   3  11
ATOM     11  N   UNL     1       4.399   4.088  16.774  0.00  0.00    +0.000 N 
ATOM     12  H   UNL     1       3.773   3.575  16.152  0.00  0.00    +0.000 HD
BRANCH  11  13
ATOM     13  S   UNL     1       5.663   4.759  15.867  0.00  0.00    +0.000 S 
ATOM     14  O   UNL     1       6.481   3.651  15.411  0.00  0.00    +0.000 OA
ATOM     15  O   UNL     1       5.147   5.735  14.930  0.00  0.00    +0.000 OA
BRANCH  13  16
ATOM     16  C   UNL     1       6.607   5.621  17.100  0.00  0.00    +0.000 A 
ATOM     17  C   UNL     1       6.909   6.973  16.910  0.00  0.00    +0.000 A 
ATOM     18  C   UNL     1       7.746   7.618  17.820  0.00  0.00    +0.000 A 
ATOM     19  C   UNL     1       8.257   6.919  18.917  0.00  0.00    +0.000 A 
ATOM     20  C   UNL     1       7.920   5.580  19.120  0.00  0.00    +0.000 A 
ATOM     21  C   UNL     1       7.091   4.925  18.211  0.00  0.00    +0.000 A 
ENDBRANCH  13  16
ENDBRANCH  11  13
ENDBRANCH   3  11
BRANCH   1  22
ATOM     22  O   UNL     1       2.834   8.528  17.981  0.00  0.00    +0.000 OA
BRANCH  22  24
ATOM     23  C   UNL     1       1.186  10.087  18.762  0.00  0.00    +0.000 C 
ATOM     24  C   UNL     1       1.492   8.978  17.775  0.00  0.00    +0.000 C 
ENDBRANCH  22  24
ENDBRANCH   1  22
TORSDOF 5
ENDMDL
