MODEL 1
REMARK VINA RESULT:      -6.1      0.000      0.000
REMARK  Name = 
REMARK  9 active torsions:
REMARK  status: ('A' for Active; 'I' for Inactive)
REMARK    1  A    between atoms: C_2  and  C_3
REMARK    2  A    between atoms: C_3  and  N_4
REMARK    3  A    between atoms: N_6  and  C_7
REMARK    4  A    between atoms: N_9  and  C_10
REMARK    5  A    between atoms: C_10  and  C_11
REMARK    6  A    between atoms: C_11  and  S_12
REMARK    7  A    between atoms: S_12  and  C_13
REMARK    8  A    between atoms: C_13  and  C_14
REMARK    9  A    between atoms: C_18  and  C_19
REMARK                            x       y       z     vdW  Elec       q    Type
REMARK                         _______ _______ _______ _____ _____    ______ ____
ROOT
ATOM      1  N   UNL     1       7.658   5.574  17.113  0.00  0.00    +0.000 N 
ATOM      2  C   UNL     1       6.646   4.632  16.713  0.00  0.00    +0.000 C 
ATOM      3  N   UNL     1       6.428   4.401  15.454  0.00  0.00    +0.000 NA
ATOM      4  N   UNL     1       5.793   4.044  17.703  0.00  0.00    +0.000 N 
ATOM      5  H   UNL     1       8.413   5.820  16.455  0.00  0.00    +0.000 HD
ATOM      6  H   UNL     1       5.949   4.248  18.700  0.00  0.00    +0.000 HD
ENDROOT
BRANCH   3   7
ATOM      7  C   UNL     1       7.261   5.005  14.406  0.00  0.00    +0.000 C 
ATOM      8  N   UNL     1       7.976   5.524  13.505  0.00  0.00    +0.000 NA
ENDBRANCH   3   7
BRANCH   1   9
ATOM      9  C   UNL     1       7.600   6.337  18.347  0.00  0.00    +0.000 C 
BRANCH   9  11
ATOM     10  C   UNL     1       8.164   8.905  17.816  0.00  0.00    +0.000 C 
ATOM     11  C   UNL     1       7.908   7.756  18.087  0.00  0.00    +0.000 C 
ENDBRANCH   9  11
ENDBRANCH   1   9
BRANCH   4  12
ATOM     12  C   UNL     1       4.725   3.132  17.344  0.00  0.00    +0.000 C 
BRANCH  12  13
ATOM     13  C   UNL     1       3.393   3.854  17.090  0.00  0.00    +0.000 C 
BRANCH  13  14
ATOM     14  S   UNL     1       3.419   5.383  18.089  0.00  0.00    +0.000 S 
BRANCH  14  15
ATOM     15  C   UNL     1       1.740   5.280  18.793  0.00  0.00    +0.000 C 
BRANCH  15  16
ATOM     16  C   UNL     1       1.771   4.292  19.926  0.00  0.00    +0.000 A 
ATOM     17  N   UNL     1       2.315   4.556  21.132  0.00  0.00    +0.000 NA
ATOM     18  C   UNL     1       2.158   3.417  21.840  0.00  0.00    +0.000 A 
ATOM     19  N   UNL     1       1.540   2.453  21.132  0.00  0.00    +0.000 N 
ATOM     20  C   UNL     1       1.289   2.991  19.929  0.00  0.00    +0.000 A 
ATOM     21  C   UNL     1       0.603   2.263  18.815  0.00  0.00    +0.000 C 
ATOM     22  H   UNL     1       1.310   1.488  21.457  0.00  0.00    +0.000 HD
ENDBRANCH  15  16
ENDBRANCH  14  15
ENDBRANCH  13  14
ENDBRANCH  12  13
ENDBRANCH   4  12
TORSDOF 8
ENDMDL
MODEL 2
REMARK VINA RESULT:      -6.0      2.572      3.574
REMARK  Name = 
REMARK  9 active torsions:
REMARK  status: ('A' for Active; 'I' for Inactive)
REMARK    1  A    between atoms: C_2  and  C_3
REMARK    2  A    between atoms: C_3  and  N_4
REMARK    3  A    between atoms: N_6  and  C_7
REMARK    4  A    between atoms: N_9  and  C_10
REMARK    5  A    between atoms: C_10  and  C_11
REMARK    6  A    between atoms: C_11  and  S_12
REMARK    7  A    between atoms: S_12  and  C_13
REMARK    8  A    between atoms: C_13  and  C_14
REMARK    9  A    between atoms: C_18  and  C_19
REMARK                            x       y       z     vdW  Elec       q    Type
REMARK                         _______ _______ _______ _____ _____    ______ ____
ROOT
ATOM      1  N   UNL     1       7.628   5.453  17.574  0.00  0.00    +0.000 N 
ATOM      2  C   UNL     1       6.498   4.566  17.490  0.00  0.00    +0.000 C 
ATOM      3  N   UNL     1       5.994   4.257  16.333  0.00  0.00    +0.000 NA
ATOM      4  N   UNL     1       5.851   4.124  18.689  0.00  0.00    +0.000 N 
ATOM      5  H   UNL     1       8.233   5.588  16.750  0.00  0.00    +0.000 HD
ATOM      6  H   UNL     1       6.236   4.390  19.607  0.00  0.00    +0.000 HD
ENDROOT
BRANCH   3   7
ATOM      7  C   UNL     1       6.610   4.712  15.079  0.00  0.00    +0.000 C 
ATOM      8  N   UNL     1       7.140   5.103  14.003  0.00  0.00    +0.000 NA
ENDBRANCH   3   7
BRANCH   1   9
ATOM      9  C   UNL     1       7.891   6.309  18.717  0.00  0.00    +0.000 C 
BRANCH   9  11
ATOM     10  C   UNL     1       8.238   8.854  17.941  0.00  0.00    +0.000 C 
ATOM     11  C   UNL     1       8.050   7.710  18.282  0.00  0.00    +0.000 C 
ENDBRANCH   9  11
ENDBRANCH   1   9
BRANCH   4  12
ATOM     12  C   UNL     1       4.678   3.273  18.653  0.00  0.00    +0.000 C 
BRANCH  12  13
ATOM     13  C   UNL     1       3.498   3.864  19.441  0.00  0.00    +0.000 C 
BRANCH  13  14
ATOM     14  S   UNL     1       2.851   5.262  18.460  0.00  0.00    +0.000 S 
BRANCH  14  15
ATOM     15  C   UNL     1       2.454   6.398  19.829  0.00  0.00    +0.000 C 
BRANCH  15  16
ATOM     16  C   UNL     1       2.080   7.728  19.235  0.00  0.00    +0.000 A 
ATOM     17  N   UNL     1       2.384   8.094  17.974  0.00  0.00    +0.000 NA
ATOM     18  C   UNL     1       1.897   9.347  17.849  0.00  0.00    +0.000 A 
ATOM     19  N   UNL     1       1.299   9.780  18.975  0.00  0.00    +0.000 N 
ATOM     20  C   UNL     1       1.406   8.771  19.853  0.00  0.00    +0.000 A 
ATOM     21  C   UNL     1       0.869   8.820  21.250  0.00  0.00    +0.000 C 
ATOM     22  H   UNL     1       0.853  10.711  19.128  0.00  0.00    +0.000 HD
ENDBRANCH  15  16
ENDBRANCH  14  15
ENDBRANCH  13  14
ENDBRANCH  12  13
ENDBRANCH   4  12
TORSDOF 8
ENDMDL
MODEL 3
REMARK VINA RESULT:      -5.9      2.323      4.066
REMARK  Name = 
REMARK  9 active torsions:
REMARK  status: ('A' for Active; 'I' for Inactive)
REMARK    1  A    between atoms: C_2  and  C_3
REMARK    2  A    between atoms: C_3  and  N_4
REMARK    3  A    between atoms: N_6  and  C_7
REMARK    4  A    between atoms: N_9  and  C_10
REMARK    5  A    between atoms: C_10  and  C_11
REMARK    6  A    between atoms: C_11  and  S_12
REMARK    7  A    between atoms: S_12  and  C_13
REMARK    8  A    between atoms: C_13  and  C_14
REMARK    9  A    between atoms: C_18  and  C_19
REMARK                            x       y       z     vdW  Elec       q    Type
REMARK                         _______ _______ _______ _____ _____    ______ ____
ROOT
ATOM      1  N   UNL     1       6.025   4.054  12.818  0.00  0.00    +0.000 N 
ATOM      2  C   UNL     1       6.309   4.366  14.194  0.00  0.00    +0.000 C 
ATOM      3  N   UNL     1       7.344   5.089  14.501  0.00  0.00    +0.000 NA
ATOM      4  N   UNL     1       5.522   3.773  15.234  0.00  0.00    +0.000 N 
ATOM      5  H   UNL     1       6.422   4.641  12.070  0.00  0.00    +0.000 HD
ATOM      6  H   UNL     1       4.717   3.178  14.991  0.00  0.00    +0.000 HD
ENDROOT
BRANCH   3   7
ATOM      7  C   UNL     1       8.194   5.693  13.465  0.00  0.00    +0.000 C 
ATOM      8  N   UNL     1       8.924   6.210  12.576  0.00  0.00    +0.000 NA
ENDBRANCH   3   7
BRANCH   1   9
ATOM      9  C   UNL     1       5.329   2.851  12.397  0.00  0.00    +0.000 C 
BRANCH   9  11
ATOM     10  C   UNL     1       3.431   3.395  10.581  0.00  0.00    +0.000 C 
ATOM     11  C   UNL     1       4.287   3.182  11.406  0.00  0.00    +0.000 C 
ENDBRANCH   9  11
ENDBRANCH   1   9
BRANCH   4  12
ATOM     12  C   UNL     1       5.804   4.015  16.635  0.00  0.00    +0.000 C 
BRANCH  12  13
ATOM     13  C   UNL     1       4.869   5.068  17.251  0.00  0.00    +0.000 C 
BRANCH  13  14
ATOM     14  S   UNL     1       4.888   4.801  19.058  0.00  0.00    +0.000 S 
BRANCH  14  15
ATOM     15  C   UNL     1       4.238   3.097  19.090  0.00  0.00    +0.000 C 
BRANCH  15  16
ATOM     16  C   UNL     1       2.933   3.112  19.837  0.00  0.00    +0.000 A 
ATOM     17  N   UNL     1       2.806   2.731  21.124  0.00  0.00    +0.000 NA
ATOM     18  C   UNL     1       1.491   2.871  21.399  0.00  0.00    +0.000 A 
ATOM     19  N   UNL     1       0.791   3.325  20.342  0.00  0.00    +0.000 N 
ATOM     20  C   UNL     1       1.686   3.482  19.355  0.00  0.00    +0.000 A 
ATOM     21  C   UNL     1       1.339   3.977  17.984  0.00  0.00    +0.000 C 
ATOM     22  H   UNL     1      -0.236   3.509  20.304  0.00  0.00    +0.000 HD
ENDBRANCH  15  16
ENDBRANCH  14  15
ENDBRANCH  13  14
ENDBRANCH  12  13
ENDBRANCH   4  12
TORSDOF 8
ENDMDL
MODEL 4
REMARK VINA RESULT:      -5.9      2.099      3.382
REMARK  Name = 
REMARK  9 active torsions:
REMARK  status: ('A' for Active; 'I' for Inactive)
REMARK    1  A    between atoms: C_2  and  C_3
REMARK    2  A    between atoms: C_3  and  N_4
REMARK    3  A    between atoms: N_6  and  C_7
REMARK    4  A    between atoms: N_9  and  C_10
REMARK    5  A    between atoms: C_10  and  C_11
REMARK    6  A    between atoms: C_11  and  S_12
REMARK    7  A    between atoms: S_12  and  C_13
REMARK    8  A    between atoms: C_13  and  C_14
REMARK    9  A    between atoms: C_18  and  C_19
REMARK                            x       y       z     vdW  Elec       q    Type
REMARK                         _______ _______ _______ _____ _____    ______ ____
ROOT
ATOM      1  N   UNL     1       5.560   5.798  17.034  0.00  0.00    +0.000 N 
ATOM      2  C   UNL     1       5.646   4.802  18.070  0.00  0.00    +0.000 C 
ATOM      3  N   UNL     1       6.611   4.843  18.939  0.00  0.00    +0.000 NA
ATOM      4  N   UNL     1       4.740   3.692  18.066  0.00  0.00    +0.000 N 
ATOM      5  H   UNL     1       6.041   6.702  17.156  0.00  0.00    +0.000 HD
ATOM      6  H   UNL     1       3.991   3.646  17.360  0.00  0.00    +0.000 HD
ENDROOT
BRANCH   3   7
ATOM      7  C   UNL     1       7.578   5.949  18.961  0.00  0.00    +0.000 C 
ATOM      8  N   UNL     1       8.408   6.899  18.981  0.00  0.00    +0.000 NA
ENDBRANCH   3   7
BRANCH   1   9
ATOM      9  C   UNL     1       4.959   5.553  15.736  0.00  0.00    +0.000 C 
BRANCH   9  11
ATOM     10  C   UNL     1       6.551   4.056  14.181  0.00  0.00    +0.000 C 
ATOM     11  C   UNL     1       5.851   4.720  14.907  0.00  0.00    +0.000 C 
ENDBRANCH   9  11
ENDBRANCH   1   9
BRANCH   4  12
ATOM     12  C   UNL     1       4.822   2.637  19.055  0.00  0.00    +0.000 C 
BRANCH  12  13
ATOM     13  C   UNL     1       3.639   1.658  18.973  0.00  0.00    +0.000 C 
BRANCH  13  14
ATOM     14  S   UNL     1       2.572   2.230  17.606  0.00  0.00    +0.000 S 
BRANCH  14  15
ATOM     15  C   UNL     1       1.158   2.824  18.591  0.00  0.00    +0.000 C 
BRANCH  15  16
ATOM     16  C   UNL     1       1.626   3.986  19.422  0.00  0.00    +0.000 A 
ATOM     17  N   UNL     1       1.993   5.175  18.903  0.00  0.00    +0.000 NA
ATOM     18  C   UNL     1       2.362   5.920  19.968  0.00  0.00    +0.000 A 
ATOM     19  N   UNL     1       2.241   5.250  21.129  0.00  0.00    +0.000 N 
ATOM     20  C   UNL     1       1.778   4.035  20.800  0.00  0.00    +0.000 A 
ATOM     21  C   UNL     1       1.491   2.953  21.796  0.00  0.00    +0.000 C 
ATOM     22  H   UNL     1       2.468   5.607  22.084  0.00  0.00    +0.000 HD
ENDBRANCH  15  16
ENDBRANCH  14  15
ENDBRANCH  13  14
ENDBRANCH  12  13
ENDBRANCH   4  12
TORSDOF 8
ENDMDL
MODEL 5
REMARK VINA RESULT:      -5.9      1.432      1.931
REMARK  Name = 
REMARK  9 active torsions:
REMARK  status: ('A' for Active; 'I' for Inactive)
REMARK    1  A    between atoms: C_2  and  C_3
REMARK    2  A    between atoms: C_3  and  N_4
REMARK    3  A    between atoms: N_6  and  C_7
REMARK    4  A    between atoms: N_9  and  C_10
REMARK    5  A    between atoms: C_10  and  C_11
REMARK    6  A    between atoms: C_11  and  S_12
REMARK    7  A    between atoms: S_12  and  C_13
REMARK    8  A    between atoms: C_13  and  C_14
REMARK    9  A    between atoms: C_18  and  C_19
REMARK                            x       y       z     vdW  Elec       q    Type
REMARK                         _______ _______ _______ _____ _____    ______ ____
ROOT
ATOM      1  N   UNL     1       7.470   5.173  16.952  0.00  0.00    +0.000 N 
ATOM      2  C   UNL     1       6.310   4.433  16.529  0.00  0.00    +0.000 C 
ATOM      3  N   UNL     1       6.029   4.321  15.266  0.00  0.00    +0.000 NA
ATOM      4  N   UNL     1       5.394   3.927  17.508  0.00  0.00    +0.000 N 
ATOM      5  H   UNL     1       8.240   5.335  16.286  0.00  0.00    +0.000 HD
ATOM      6  H   UNL     1       5.603   4.039  18.511  0.00  0.00    +0.000 HD
ENDROOT
BRANCH   3   7
ATOM      7  C   UNL     1       6.927   4.850  14.230  0.00  0.00    +0.000 C 
ATOM      8  N   UNL     1       7.696   5.305  13.339  0.00  0.00    +0.000 NA
ENDBRANCH   3   7
BRANCH   1   9
ATOM      9  C   UNL     1       7.564   5.853  18.231  0.00  0.00    +0.000 C 
BRANCH   9  11
ATOM     10  C   UNL     1       7.973   8.472  17.819  0.00  0.00    +0.000 C 
ATOM     11  C   UNL     1       7.812   7.293  18.028  0.00  0.00    +0.000 C 
ENDBRANCH   9  11
ENDBRANCH   1   9
BRANCH   4  12
ATOM     12  C   UNL     1       4.185   3.223  17.130  0.00  0.00    +0.000 C 
BRANCH  12  13
ATOM     13  C   UNL     1       3.827   2.096  18.112  0.00  0.00    +0.000 C 
BRANCH  13  14
ATOM     14  S   UNL     1       2.043   2.251  18.469  0.00  0.00    +0.000 S 
BRANCH  14  15
ATOM     15  C   UNL     1       1.755   3.890  17.722  0.00  0.00    +0.000 C 
BRANCH  15  16
ATOM     16  C   UNL     1       1.966   4.929  18.787  0.00  0.00    +0.000 A 
ATOM     17  N   UNL     1       2.467   6.157  18.543  0.00  0.00    +0.000 NA
ATOM     18  C   UNL     1       2.516   6.759  19.752  0.00  0.00    +0.000 A 
ATOM     19  N   UNL     1       2.066   5.963  20.740  0.00  0.00    +0.000 N 
ATOM     20  C   UNL     1       1.716   4.811  20.147  0.00  0.00    +0.000 A 
ATOM     21  C   UNL     1       1.155   3.632  20.880  0.00  0.00    +0.000 C 
ATOM     22  H   UNL     1       2.010   6.198  21.755  0.00  0.00    +0.000 HD
ENDBRANCH  15  16
ENDBRANCH  14  15
ENDBRANCH  13  14
ENDBRANCH  12  13
ENDBRANCH   4  12
TORSDOF 8
ENDMDL
MODEL 6
REMARK VINA RESULT:      -5.9      1.703      2.316
REMARK  Name = 
REMARK  9 active torsions:
REMARK  status: ('A' for Active; 'I' for Inactive)
REMARK    1  A    between atoms: C_2  and  C_3
REMARK    2  A    between atoms: C_3  and  N_4
REMARK    3  A    between atoms: N_6  and  C_7
REMARK    4  A    between atoms: N_9  and  C_10
REMARK    5  A    between atoms: C_10  and  C_11
REMARK    6  A    between atoms: C_11  and  S_12
REMARK    7  A    between atoms: S_12  and  C_13
REMARK    8  A    between atoms: C_13  and  C_14
REMARK    9  A    between atoms: C_18  and  C_19
REMARK                            x       y       z     vdW  Elec       q    Type
REMARK                         _______ _______ _______ _____ _____    ______ ____
ROOT
ATOM      1  N   UNL     1       6.702   4.438  17.350  0.00  0.00    +0.000 N 
ATOM      2  C   UNL     1       5.382   4.955  17.101  0.00  0.00    +0.000 C 
ATOM      3  N   UNL     1       4.887   4.936  15.901  0.00  0.00    +0.000 NA
ATOM      4  N   UNL     1       4.664   5.608  18.156  0.00  0.00    +0.000 N 
ATOM      5  H   UNL     1       7.123   3.776  16.682  0.00  0.00    +0.000 HD
ATOM      6  H   UNL     1       5.068   5.647  19.102  0.00  0.00    +0.000 HD
ENDROOT
BRANCH   3   7
ATOM      7  C   UNL     1       5.602   4.301  14.785  0.00  0.00    +0.000 C 
ATOM      8  N   UNL     1       6.216   3.756  13.827  0.00  0.00    +0.000 NA
ENDBRANCH   3   7
BRANCH   1   9
ATOM      9  C   UNL     1       7.560   4.915  18.420  0.00  0.00    +0.000 C 
BRANCH   9  11
ATOM     10  C   UNL     1       7.964   7.553  18.149  0.00  0.00    +0.000 C 
ATOM     11  C   UNL     1       7.814   6.360  18.267  0.00  0.00    +0.000 C 
ENDBRANCH   9  11
ENDBRANCH   1   9
BRANCH   4  12
ATOM     12  C   UNL     1       3.355   6.192  17.939  0.00  0.00    +0.000 C 
BRANCH  12  13
ATOM     13  C   UNL     1       2.241   5.432  18.678  0.00  0.00    +0.000 C 
BRANCH  13  14
ATOM     14  S   UNL     1       1.531   4.244  17.488  0.00  0.00    +0.000 S 
BRANCH  14  15
ATOM     15  C   UNL     1       1.224   2.858  18.633  0.00  0.00    +0.000 C 
BRANCH  15  16
ATOM     16  C   UNL     1       2.492   2.598  19.397  0.00  0.00    +0.000 A 
ATOM     17  N   UNL     1       3.682   2.361  18.809  0.00  0.00    +0.000 NA
ATOM     18  C   UNL     1       4.541   2.158  19.832  0.00  0.00    +0.000 A 
ATOM     19  N   UNL     1       3.940   2.260  21.033  0.00  0.00    +0.000 N 
ATOM     20  C   UNL     1       2.654   2.538  20.773  0.00  0.00    +0.000 A 
ATOM     21  C   UNL     1       1.613   2.740  21.831  0.00  0.00    +0.000 C 
ATOM     22  H   UNL     1       4.388   2.141  21.969  0.00  0.00    +0.000 HD
ENDBRANCH  15  16
ENDBRANCH  14  15
ENDBRANCH  13  14
ENDBRANCH  12  13
ENDBRANCH   4  12
TORSDOF 8
ENDMDL
MODEL 7
REMARK VINA RESULT:      -5.9      1.506      1.864
REMARK  Name = 
REMARK  9 active torsions:
REMARK  status: ('A' for Active; 'I' for Inactive)
REMARK    1  A    between atoms: C_2  and  C_3
REMARK    2  A    between atoms: C_3  and  N_4
REMARK    3  A    between atoms: N_6  and  C_7
REMARK    4  A    between atoms: N_9  and  C_10
REMARK    5  A    between atoms: C_10  and  C_11
REMARK    6  A    between atoms: C_11  and  S_12
REMARK    7  A    between atoms: S_12  and  C_13
REMARK    8  A    between atoms: C_13  and  C_14
REMARK    9  A    between atoms: C_18  and  C_19
REMARK                            x       y       z     vdW  Elec       q    Type
REMARK                         _______ _______ _______ _____ _____    ______ ____
ROOT
ATOM      1  N   UNL     1       7.523   7.368  16.927  0.00  0.00    +0.000 N 
ATOM      2  C   UNL     1       6.973   6.105  17.345  0.00  0.00    +0.000 C 
ATOM      3  N   UNL     1       6.863   5.126  16.498  0.00  0.00    +0.000 NA
ATOM      4  N   UNL     1       6.431   5.969  18.664  0.00  0.00    +0.000 N 
ATOM      5  H   UNL     1       8.114   7.411  16.083  0.00  0.00    +0.000 HD
ATOM      6  H   UNL     1       6.495   6.754  19.328  0.00  0.00    +0.000 HD
ENDROOT
BRANCH   3   7
ATOM      7  C   UNL     1       7.380   5.234  15.127  0.00  0.00    +0.000 C 
ATOM      8  N   UNL     1       7.824   5.328  13.950  0.00  0.00    +0.000 NA
ENDBRANCH   3   7
BRANCH   1   9
ATOM      9  C   UNL     1       7.167   8.637  17.535  0.00  0.00    +0.000 C 
BRANCH   9  11
ATOM     10  C   UNL     1       9.296   9.676  18.794  0.00  0.00    +0.000 C 
ATOM     11  C   UNL     1       8.324   9.201  18.257  0.00  0.00    +0.000 C 
ENDBRANCH   9  11
ENDBRANCH   1   9
BRANCH   4  12
ATOM     12  C   UNL     1       5.819   4.734  19.113  0.00  0.00    +0.000 C 
BRANCH  12  13
ATOM     13  C   UNL     1       4.292   4.734  18.936  0.00  0.00    +0.000 C 
BRANCH  13  14
ATOM     14  S   UNL     1       3.894   3.378  17.779  0.00  0.00    +0.000 S 
BRANCH  14  15
ATOM     15  C   UNL     1       3.781   2.014  18.984  0.00  0.00    +0.000 C 
BRANCH  15  16
ATOM     16  C   UNL     1       2.807   2.419  20.054  0.00  0.00    +0.000 A 
ATOM     17  N   UNL     1       3.161   2.660  21.333  0.00  0.00    +0.000 NA
ATOM     18  C   UNL     1       2.006   2.967  21.962  0.00  0.00    +0.000 A 
ATOM     19  N   UNL     1       0.945   2.930  21.132  0.00  0.00    +0.000 N 
ATOM     20  C   UNL     1       1.436   2.589  19.931  0.00  0.00    +0.000 A 
ATOM     21  C   UNL     1       0.597   2.433  18.700  0.00  0.00    +0.000 C 
ATOM     22  H   UNL     1      -0.050   3.123  21.381  0.00  0.00    +0.000 HD
ENDBRANCH  15  16
ENDBRANCH  14  15
ENDBRANCH  13  14
ENDBRANCH  12  13
ENDBRANCH   4  12
TORSDOF 8
ENDMDL
MODEL 8
REMARK VINA RESULT:      -5.8      2.416      4.301
REMARK  Name = 
REMARK  9 active torsions:
REMARK  status: ('A' for Active; 'I' for Inactive)
REMARK    1  A    between atoms: C_2  and  C_3
REMARK    2  A    between atoms: C_3  and  N_4
REMARK    3  A    between atoms: N_6  and  C_7
REMARK    4  A    between atoms: N_9  and  C_10
REMARK    5  A    between atoms: C_10  and  C_11
REMARK    6  A    between atoms: C_11  and  S_12
REMARK    7  A    between atoms: S_12  and  C_13
REMARK    8  A    between atoms: C_13  and  C_14
REMARK    9  A    between atoms: C_18  and  C_19
REMARK                            x       y       z     vdW  Elec       q    Type
REMARK                         _______ _______ _______ _____ _____    ______ ____
ROOT
ATOM      1  N   UNL     1       5.809   4.579  16.929  0.00  0.00    +0.000 N 
ATOM      2  C   UNL     1       5.561   4.145  18.278  0.00  0.00    +0.000 C 
ATOM      3  N   UNL     1       6.259   4.631  19.261  0.00  0.00    +0.000 NA
ATOM      4  N   UNL     1       4.631   3.083  18.524  0.00  0.00    +0.000 N 
ATOM      5  H   UNL     1       6.288   5.477  16.762  0.00  0.00    +0.000 HD
ATOM      6  H   UNL     1       4.096   2.680  17.741  0.00  0.00    +0.000 HD
ENDROOT
BRANCH   3   7
ATOM      7  C   UNL     1       7.243   5.701  19.049  0.00  0.00    +0.000 C 
ATOM      8  N   UNL     1       8.089   6.618  18.866  0.00  0.00    +0.000 NA
ENDBRANCH   3   7
BRANCH   1   9
ATOM      9  C   UNL     1       5.565   3.748  15.763  0.00  0.00    +0.000 C 
BRANCH   9  11
ATOM     10  C   UNL     1       6.947   4.651  13.648  0.00  0.00    +0.000 C 
ATOM     11  C   UNL     1       6.353   4.234  14.614  0.00  0.00    +0.000 C 
ENDBRANCH   9  11
ENDBRANCH   1   9
BRANCH   4  12
ATOM     12  C   UNL     1       4.387   2.576  19.859  0.00  0.00    +0.000 C 
BRANCH  12  13
ATOM     13  C   UNL     1       2.902   2.632  20.250  0.00  0.00    +0.000 C 
BRANCH  13  14
ATOM     14  S   UNL     1       2.140   3.956  19.248  0.00  0.00    +0.000 S 
BRANCH  14  15
ATOM     15  C   UNL     1       2.561   5.379  20.308  0.00  0.00    +0.000 C 
BRANCH  15  16
ATOM     16  C   UNL     1       2.453   6.626  19.475  0.00  0.00    +0.000 A 
ATOM     17  N   UNL     1       2.955   6.737  18.228  0.00  0.00    +0.000 NA
ATOM     18  C   UNL     1       2.669   8.001  17.850  0.00  0.00    +0.000 A 
ATOM     19  N   UNL     1       2.009   8.686  18.804  0.00  0.00    +0.000 N 
ATOM     20  C   UNL     1       1.866   7.832  19.829  0.00  0.00    +0.000 A 
ATOM     21  C   UNL     1       1.178   8.178  21.114  0.00  0.00    +0.000 C 
ATOM     22  H   UNL     1       1.685   9.676  18.751  0.00  0.00    +0.000 HD
ENDBRANCH  15  16
ENDBRANCH  14  15
ENDBRANCH  13  14
ENDBRANCH  12  13
ENDBRANCH   4  12
TORSDOF 8
ENDMDL
MODEL 9
REMARK VINA RESULT:      -5.7      1.872      2.317
REMARK  Name = 
REMARK  9 active torsions:
REMARK  status: ('A' for Active; 'I' for Inactive)
REMARK    1  A    between atoms: C_2  and  C_3
REMARK    2  A    between atoms: C_3  and  N_4
REMARK    3  A    between atoms: N_6  and  C_7
REMARK    4  A    between atoms: N_9  and  C_10
REMARK    5  A    between atoms: C_10  and  C_11
REMARK    6  A    between atoms: C_11  and  S_12
REMARK    7  A    between atoms: S_12  and  C_13
REMARK    8  A    between atoms: C_13  and  C_14
REMARK    9  A    between atoms: C_18  and  C_19
REMARK                            x       y       z     vdW  Elec       q    Type
REMARK                         _______ _______ _______ _____ _____    ______ ____
ROOT
ATOM      1  N   UNL     1       6.790   5.083  17.653  0.00  0.00    +0.000 N 
ATOM      2  C   UNL     1       5.378   5.232  17.419  0.00  0.00    +0.000 C 
ATOM      3  N   UNL     1       4.874   4.942  16.257  0.00  0.00    +0.000 NA
ATOM      4  N   UNL     1       4.548   5.820  18.427  0.00  0.00    +0.000 N 
ATOM      5  H   UNL     1       7.345   4.462  17.045  0.00  0.00    +0.000 HD
ATOM      6  H   UNL     1       4.954   6.075  19.340  0.00  0.00    +0.000 HD
ENDROOT
BRANCH   3   7
ATOM      7  C   UNL     1       5.695   4.363  15.185  0.00  0.00    +0.000 C 
ATOM      8  N   UNL     1       6.401   3.867  14.265  0.00  0.00    +0.000 NA
ENDBRANCH   3   7
BRANCH   1   9
ATOM      9  C   UNL     1       7.532   5.883  18.611  0.00  0.00    +0.000 C 
BRANCH   9  11
ATOM     10  C   UNL     1       7.976   8.349  17.654  0.00  0.00    +0.000 C 
ATOM     11  C   UNL     1       7.743   7.245  18.086  0.00  0.00    +0.000 C 
ENDBRANCH   9  11
ENDBRANCH   1   9
BRANCH   4  12
ATOM     12  C   UNL     1       3.131   6.040  18.217  0.00  0.00    +0.000 C 
BRANCH  12  13
ATOM     13  C   UNL     1       2.465   6.764  19.398  0.00  0.00    +0.000 C 
BRANCH  13  14
ATOM     14  S   UNL     1       2.093   5.495  20.656  0.00  0.00    +0.000 S 
BRANCH  14  15
ATOM     15  C   UNL     1       1.661   4.119  19.539  0.00  0.00    +0.000 C 
BRANCH  15  16
ATOM     16  C   UNL     1       2.779   3.115  19.585  0.00  0.00    +0.000 A 
ATOM     17  N   UNL     1       3.518   2.871  20.686  0.00  0.00    +0.000 NA
ATOM     18  C   UNL     1       4.414   1.935  20.303  0.00  0.00    +0.000 A 
ATOM     19  N   UNL     1       4.266   1.582  19.012  0.00  0.00    +0.000 N 
ATOM     20  C   UNL     1       3.241   2.315  18.551  0.00  0.00    +0.000 A 
ATOM     21  C   UNL     1       2.726   2.239  17.146  0.00  0.00    +0.000 C 
ATOM     22  H   UNL     1       4.837   0.886  18.485  0.00  0.00    +0.000 HD
ENDBRANCH  15  16
ENDBRANCH  14  15
ENDBRANCH  13  14
ENDBRANCH  12  13
ENDBRANCH   4  12
TORSDOF 8
ENDMDL
