MODEL 1
REMARK VINA RESULT:      -6.9      0.000      0.000
REMARK  Name = 
REMARK  6 active torsions:
REMARK  status: ('A' for Active; 'I' for Inactive)
REMARK    1  A    between atoms: C_1  and  O_2
REMARK    2  A    between atoms: O_2  and  C_3
REMARK    3  A    between atoms: C_3  and  C_5
REMARK    4  A    between atoms: C_5  and  S_6
REMARK    5  A    between atoms: S_6  and  C_7
REMARK    6  A    between atoms: N_9  and  C_10
REMARK                            x       y       z     vdW  Elec       q    Type
REMARK                         _______ _______ _______ _____ _____    ______ ____
ROOT
ATOM      1  C   UNL     1       5.720   5.110  17.004  0.00  0.00    +0.000 A 
ATOM      2  N   UNL     1       5.180   4.504  18.011  0.00  0.00    +0.000 NA
ATOM      3  N   UNL     1       4.071   5.218  18.437  0.00  0.00    +0.000 N 
ATOM      4  C   UNL     1       3.831   6.425  17.776  0.00  0.00    +0.000 A 
ATOM      5  S   UNL     1       2.735   7.642  18.110  0.00  0.00    +0.000 S 
ATOM      6  S   UNL     1       5.019   6.608  16.496  0.00  0.00    +0.000 S 
ENDROOT
BRANCH   3   7
ATOM      7  C   UNL     1       3.264   4.556  19.406  0.00  0.00    +0.000 A 
ATOM      8  C   UNL     1       3.727   3.377  20.016  0.00  0.00    +0.000 A 
ATOM      9  C   UNL     1       2.930   2.681  20.932  0.00  0.00    +0.000 A 
ATOM     10  C   UNL     1       1.654   3.143  21.221  0.00  0.00    +0.000 A 
ATOM     11  F   UNL     1       0.876   2.461  22.069  0.00  0.00    +0.000 F 
ATOM     12  C   UNL     1       1.168   4.298  20.624  0.00  0.00    +0.000 A 
ATOM     13  C   UNL     1       1.972   5.005  19.724  0.00  0.00    +0.000 A 
ENDBRANCH   3   7
BRANCH   1  14
ATOM     14  S   UNL     1       7.115   4.538  16.154  0.00  0.00    +0.000 S 
BRANCH  14  15
ATOM     15  C   UNL     1       6.444   4.407  14.476  0.00  0.00    +0.000 C 
BRANCH  15  16
ATOM     16  C   UNL     1       7.388   4.908  13.402  0.00  0.00    +0.000 C 
ATOM     17  O   UNL     1       8.267   5.747  13.534  0.00  0.00    +0.000 OA
BRANCH  16  19
ATOM     18  C   UNL     1       6.062   3.279  12.338  0.00  0.00    +0.000 C 
ATOM     19  O   UNL     1       7.097   4.258  12.233  0.00  0.00    +0.000 OA
ENDBRANCH  16  19
ENDBRANCH  15  16
ENDBRANCH  14  15
ENDBRANCH   1  14
TORSDOF 5
ENDMDL
MODEL 2
REMARK VINA RESULT:      -6.8      3.016      3.802
REMARK  Name = 
REMARK  6 active torsions:
REMARK  status: ('A' for Active; 'I' for Inactive)
REMARK    1  A    between atoms: C_1  and  O_2
REMARK    2  A    between atoms: O_2  and  C_3
REMARK    3  A    between atoms: C_3  and  C_5
REMARK    4  A    between atoms: C_5  and  S_6
REMARK    5  A    between atoms: S_6  and  C_7
REMARK    6  A    between atoms: N_9  and  C_10
REMARK                            x       y       z     vdW  Elec       q    Type
REMARK                         _______ _______ _______ _____ _____    ______ ____
ROOT
ATOM      1  C   UNL     1       5.237   5.731  17.296  0.00  0.00    +0.000 A 
ATOM      2  N   UNL     1       4.533   6.770  17.610  0.00  0.00    +0.000 NA
ATOM      3  N   UNL     1       3.264   6.366  17.997  0.00  0.00    +0.000 N 
ATOM      4  C   UNL     1       3.000   4.998  17.890  0.00  0.00    +0.000 A 
ATOM      5  S   UNL     1       1.567   4.156  18.070  0.00  0.00    +0.000 S 
ATOM      6  S   UNL     1       4.465   4.185  17.363  0.00  0.00    +0.000 S 
ENDROOT
BRANCH   3   7
ATOM      7  C   UNL     1       2.452   7.389  18.564  0.00  0.00    +0.000 A 
ATOM      8  C   UNL     1       2.022   8.465  17.767  0.00  0.00    +0.000 A 
ATOM      9  C   UNL     1       1.268   9.509  18.314  0.00  0.00    +0.000 A 
ATOM     10  C   UNL     1       0.963   9.498  19.668  0.00  0.00    +0.000 A 
ATOM     11  F   UNL     1       0.272  10.511  20.202  0.00  0.00    +0.000 F 
ATOM     12  C   UNL     1       1.383   8.453  20.479  0.00  0.00    +0.000 A 
ATOM     13  C   UNL     1       2.120   7.400  19.928  0.00  0.00    +0.000 A 
ENDBRANCH   3   7
BRANCH   1  14
ATOM     14  S   UNL     1       6.889   5.792  16.784  0.00  0.00    +0.000 S 
BRANCH  14  15
ATOM     15  C   UNL     1       6.937   4.364  15.670  0.00  0.00    +0.000 C 
BRANCH  15  16
ATOM     16  C   UNL     1       6.905   4.735  14.201  0.00  0.00    +0.000 C 
ATOM     17  O   UNL     1       7.553   5.617  13.655  0.00  0.00    +0.000 OA
BRANCH  16  19
ATOM     18  C   UNL     1       6.437   3.476  12.268  0.00  0.00    +0.000 C 
ATOM     19  O   UNL     1       6.020   3.909  13.564  0.00  0.00    +0.000 OA
ENDBRANCH  16  19
ENDBRANCH  15  16
ENDBRANCH  14  15
ENDBRANCH   1  14
TORSDOF 5
ENDMDL
MODEL 3
REMARK VINA RESULT:      -6.7      2.333      2.690
REMARK  Name = 
REMARK  6 active torsions:
REMARK  status: ('A' for Active; 'I' for Inactive)
REMARK    1  A    between atoms: C_1  and  O_2
REMARK    2  A    between atoms: O_2  and  C_3
REMARK    3  A    between atoms: C_3  and  C_5
REMARK    4  A    between atoms: C_5  and  S_6
REMARK    5  A    between atoms: S_6  and  C_7
REMARK    6  A    between atoms: N_9  and  C_10
REMARK                            x       y       z     vdW  Elec       q    Type
REMARK                         _______ _______ _______ _____ _____    ______ ____
ROOT
ATOM      1  C   UNL     1       6.314   4.650  15.394  0.00  0.00    +0.000 A 
ATOM      2  N   UNL     1       5.262   4.006  15.781  0.00  0.00    +0.000 NA
ATOM      3  N   UNL     1       5.041   4.252  17.128  0.00  0.00    +0.000 N 
ATOM      4  C   UNL     1       6.003   5.036  17.770  0.00  0.00    +0.000 A 
ATOM      5  S   UNL     1       6.200   5.394  19.391  0.00  0.00    +0.000 S 
ATOM      6  S   UNL     1       7.186   5.557  16.581  0.00  0.00    +0.000 S 
ENDROOT
BRANCH   3   7
ATOM      7  C   UNL     1       3.801   3.771  17.634  0.00  0.00    +0.000 A 
ATOM      8  C   UNL     1       3.661   2.412  17.969  0.00  0.00    +0.000 A 
ATOM      9  C   UNL     1       2.436   1.905  18.418  0.00  0.00    +0.000 A 
ATOM     10  C   UNL     1       1.336   2.747  18.508  0.00  0.00    +0.000 A 
ATOM     11  F   UNL     1       0.155   2.259  18.903  0.00  0.00    +0.000 F 
ATOM     12  C   UNL     1       1.445   4.089  18.173  0.00  0.00    +0.000 A 
ATOM     13  C   UNL     1       2.673   4.600  17.743  0.00  0.00    +0.000 A 
ENDBRANCH   3   7
BRANCH   1  14
ATOM     14  S   UNL     1       6.925   4.637  13.774  0.00  0.00    +0.000 S 
BRANCH  14  15
ATOM     15  C   UNL     1       5.580   3.767  12.926  0.00  0.00    +0.000 C 
BRANCH  15  16
ATOM     16  C   UNL     1       6.055   2.815  11.848  0.00  0.00    +0.000 C 
ATOM     17  O   UNL     1       7.215   2.577  11.540  0.00  0.00    +0.000 OA
BRANCH  16  19
ATOM     18  C   UNL     1       3.879   3.149  11.016  0.00  0.00    +0.000 C 
ATOM     19  O   UNL     1       4.959   2.246  11.258  0.00  0.00    +0.000 OA
ENDBRANCH  16  19
ENDBRANCH  15  16
ENDBRANCH  14  15
ENDBRANCH   1  14
TORSDOF 5
ENDMDL
MODEL 4
REMARK VINA RESULT:      -6.7      3.248      4.058
REMARK  Name = 
REMARK  6 active torsions:
REMARK  status: ('A' for Active; 'I' for Inactive)
REMARK    1  A    between atoms: C_1  and  O_2
REMARK    2  A    between atoms: O_2  and  C_3
REMARK    3  A    between atoms: C_3  and  C_5
REMARK    4  A    between atoms: C_5  and  S_6
REMARK    5  A    between atoms: S_6  and  C_7
REMARK    6  A    between atoms: N_9  and  C_10
REMARK                            x       y       z     vdW  Elec       q    Type
REMARK                         _______ _______ _______ _____ _____    ______ ____
ROOT
ATOM      1  C   UNL     1       4.985   5.140  18.347  0.00  0.00    +0.000 A 
ATOM      2  N   UNL     1       4.292   6.224  18.219  0.00  0.00    +0.000 NA
ATOM      3  N   UNL     1       3.111   6.103  18.934  0.00  0.00    +0.000 N 
ATOM      4  C   UNL     1       2.889   4.864  19.541  0.00  0.00    +0.000 A 
ATOM      5  S   UNL     1       1.533   4.264  20.313  0.00  0.00    +0.000 S 
ATOM      6  S   UNL     1       4.294   3.846  19.264  0.00  0.00    +0.000 S 
ENDROOT
BRANCH   3   7
ATOM      7  C   UNL     1       2.348   7.300  19.048  0.00  0.00    +0.000 A 
ATOM      8  C   UNL     1       2.164   8.123  17.922  0.00  0.00    +0.000 A 
ATOM      9  C   UNL     1       1.464   9.331  18.022  0.00  0.00    +0.000 A 
ATOM     10  C   UNL     1       0.968   9.737  19.253  0.00  0.00    +0.000 A 
ATOM     11  F   UNL     1       0.329  10.907  19.359  0.00  0.00    +0.000 F 
ATOM     12  C   UNL     1       1.145   8.949  20.381  0.00  0.00    +0.000 A 
ATOM     13  C   UNL     1       1.828   7.733  20.278  0.00  0.00    +0.000 A 
ENDBRANCH   3   7
BRANCH   1  14
ATOM     14  S   UNL     1       6.542   4.887  17.634  0.00  0.00    +0.000 S 
BRANCH  14  15
ATOM     15  C   UNL     1       6.075   3.952  16.154  0.00  0.00    +0.000 C 
BRANCH  15  16
ATOM     16  C   UNL     1       6.520   4.599  14.858  0.00  0.00    +0.000 C 
ATOM     17  O   UNL     1       7.469   5.355  14.707  0.00  0.00    +0.000 OA
BRANCH  16  19
ATOM     18  C   UNL     1       6.326   3.596  12.738  0.00  0.00    +0.000 C 
ATOM     19  O   UNL     1       5.676   4.195  13.860  0.00  0.00    +0.000 OA
ENDBRANCH  16  19
ENDBRANCH  15  16
ENDBRANCH  14  15
ENDBRANCH   1  14
TORSDOF 5
ENDMDL
MODEL 5
REMARK VINA RESULT:      -6.7      3.491      4.511
REMARK  Name = 
REMARK  6 active torsions:
REMARK  status: ('A' for Active; 'I' for Inactive)
REMARK    1  A    between atoms: C_1  and  O_2
REMARK    2  A    between atoms: O_2  and  C_3
REMARK    3  A    between atoms: C_3  and  C_5
REMARK    4  A    between atoms: C_5  and  S_6
REMARK    5  A    between atoms: S_6  and  C_7
REMARK    6  A    between atoms: N_9  and  C_10
REMARK                            x       y       z     vdW  Elec       q    Type
REMARK                         _______ _______ _______ _____ _____    ______ ____
ROOT
ATOM      1  C   UNL     1       4.438   4.372  17.028  0.00  0.00    +0.000 A 
ATOM      2  N   UNL     1       3.971   5.557  17.254  0.00  0.00    +0.000 NA
ATOM      3  N   UNL     1       2.923   5.474  18.158  0.00  0.00    +0.000 N 
ATOM      4  C   UNL     1       2.555   4.185  18.550  0.00  0.00    +0.000 A 
ATOM      5  S   UNL     1       1.251   3.660  19.453  0.00  0.00    +0.000 S 
ATOM      6  S   UNL     1       3.657   3.038  17.804  0.00  0.00    +0.000 S 
ENDROOT
BRANCH   3   7
ATOM      7  C   UNL     1       2.452   6.725  18.651  0.00  0.00    +0.000 A 
ATOM      8  C   UNL     1       2.150   6.870  20.016  0.00  0.00    +0.000 A 
ATOM      9  C   UNL     1       1.636   8.073  20.515  0.00  0.00    +0.000 A 
ATOM     10  C   UNL     1       1.394   9.128  19.646  0.00  0.00    +0.000 A 
ATOM     11  F   UNL     1       0.870  10.266  20.112  0.00  0.00    +0.000 F 
ATOM     12  C   UNL     1       1.674   9.007  18.292  0.00  0.00    +0.000 A 
ATOM     13  C   UNL     1       2.206   7.812  17.798  0.00  0.00    +0.000 A 
ENDBRANCH   3   7
BRANCH   1  14
ATOM     14  S   UNL     1       5.771   4.032  15.978  0.00  0.00    +0.000 S 
BRANCH  14  15
ATOM     15  C   UNL     1       6.866   5.417  16.382  0.00  0.00    +0.000 C 
BRANCH  15  16
ATOM     16  C   UNL     1       7.496   5.315  17.756  0.00  0.00    +0.000 C 
ATOM     17  O   UNL     1       8.051   4.337  18.236  0.00  0.00    +0.000 OA
BRANCH  16  19
ATOM     18  C   UNL     1       7.609   7.659  17.572  0.00  0.00    +0.000 C 
ATOM     19  O   UNL     1       7.348   6.518  18.391  0.00  0.00    +0.000 OA
ENDBRANCH  16  19
ENDBRANCH  15  16
ENDBRANCH  14  15
ENDBRANCH   1  14
TORSDOF 5
ENDMDL
MODEL 6
REMARK VINA RESULT:      -6.7      3.256      4.042
REMARK  Name = 
REMARK  6 active torsions:
REMARK  status: ('A' for Active; 'I' for Inactive)
REMARK    1  A    between atoms: C_1  and  O_2
REMARK    2  A    between atoms: O_2  and  C_3
REMARK    3  A    between atoms: C_3  and  C_5
REMARK    4  A    between atoms: C_5  and  S_6
REMARK    5  A    between atoms: S_6  and  C_7
REMARK    6  A    between atoms: N_9  and  C_10
REMARK                            x       y       z     vdW  Elec       q    Type
REMARK                         _______ _______ _______ _____ _____    ______ ____
ROOT
ATOM      1  C   UNL     1       4.773   5.037  18.184  0.00  0.00    +0.000 A 
ATOM      2  N   UNL     1       4.135   6.156  18.059  0.00  0.00    +0.000 NA
ATOM      3  N   UNL     1       3.016   6.142  18.877  0.00  0.00    +0.000 N 
ATOM      4  C   UNL     1       2.778   4.950  19.566  0.00  0.00    +0.000 A 
ATOM      5  S   UNL     1       1.464   4.473  20.482  0.00  0.00    +0.000 S 
ATOM      6  S   UNL     1       4.092   3.835  19.225  0.00  0.00    +0.000 S 
ENDROOT
BRANCH   3   7
ATOM      7  C   UNL     1       2.337   7.388  18.992  0.00  0.00    +0.000 A 
ATOM      8  C   UNL     1       1.836   7.801  20.240  0.00  0.00    +0.000 A 
ATOM      9  C   UNL     1       1.119   8.996  20.367  0.00  0.00    +0.000 A 
ATOM     10  C   UNL     1       0.875   9.773  19.243  0.00  0.00    +0.000 A 
ATOM     11  F   UNL     1       0.161  10.898  19.354  0.00  0.00    +0.000 F 
ATOM     12  C   UNL     1       1.350   9.383  17.998  0.00  0.00    +0.000 A 
ATOM     13  C   UNL     1       2.083   8.199  17.874  0.00  0.00    +0.000 A 
ENDBRANCH   3   7
BRANCH   1  14
ATOM     14  S   UNL     1       6.243   4.655  17.355  0.00  0.00    +0.000 S 
BRANCH  14  15
ATOM     15  C   UNL     1       5.885   5.347  15.720  0.00  0.00    +0.000 C 
BRANCH  15  16
ATOM     16  C   UNL     1       6.826   4.865  14.635  0.00  0.00    +0.000 C 
ATOM     17  O   UNL     1       7.808   5.453  14.203  0.00  0.00    +0.000 OA
BRANCH  16  19
ATOM     18  C   UNL     1       6.053   3.583  12.819  0.00  0.00    +0.000 C 
ATOM     19  O   UNL     1       6.398   3.639  14.204  0.00  0.00    +0.000 OA
ENDBRANCH  16  19
ENDBRANCH  15  16
ENDBRANCH  14  15
ENDBRANCH   1  14
TORSDOF 5
ENDMDL
MODEL 7
REMARK VINA RESULT:      -6.6      3.552      4.800
REMARK  Name = 
REMARK  6 active torsions:
REMARK  status: ('A' for Active; 'I' for Inactive)
REMARK    1  A    between atoms: C_1  and  O_2
REMARK    2  A    between atoms: O_2  and  C_3
REMARK    3  A    between atoms: C_3  and  C_5
REMARK    4  A    between atoms: C_5  and  S_6
REMARK    5  A    between atoms: S_6  and  C_7
REMARK    6  A    between atoms: N_9  and  C_10
REMARK                            x       y       z     vdW  Elec       q    Type
REMARK                         _______ _______ _______ _____ _____    ______ ____
ROOT
ATOM      1  C   UNL     1       4.600   4.792  17.635  0.00  0.00    +0.000 A 
ATOM      2  N   UNL     1       3.877   5.864  17.605  0.00  0.00    +0.000 NA
ATOM      3  N   UNL     1       3.055   5.896  18.721  0.00  0.00    +0.000 N 
ATOM      4  C   UNL     1       3.116   4.779  19.557  0.00  0.00    +0.000 A 
ATOM      5  S   UNL     1       2.169   4.354  20.867  0.00  0.00    +0.000 S 
ATOM      6  S   UNL     1       4.345   3.685  18.940  0.00  0.00    +0.000 S 
ENDROOT
BRANCH   3   7
ATOM      7  C   UNL     1       2.354   7.120  18.919  0.00  0.00    +0.000 A 
ATOM      8  C   UNL     1       2.122   7.979  17.829  0.00  0.00    +0.000 A 
ATOM      9  C   UNL     1       1.483   9.211  18.009  0.00  0.00    +0.000 A 
ATOM     10  C   UNL     1       1.098   9.605  19.283  0.00  0.00    +0.000 A 
ATOM     11  F   UNL     1       0.518  10.797  19.463  0.00  0.00    +0.000 F 
ATOM     12  C   UNL     1       1.324   8.781  20.376  0.00  0.00    +0.000 A 
ATOM     13  C   UNL     1       1.945   7.541  20.194  0.00  0.00    +0.000 A 
ENDBRANCH   3   7
BRANCH   1  14
ATOM     14  S   UNL     1       5.781   4.378  16.440  0.00  0.00    +0.000 S 
BRANCH  14  15
ATOM     15  C   UNL     1       7.300   4.861  17.302  0.00  0.00    +0.000 C 
BRANCH  15  16
ATOM     16  C   UNL     1       7.467   6.360  17.448  0.00  0.00    +0.000 C 
ATOM     17  O   UNL     1       7.197   7.211  16.613  0.00  0.00    +0.000 OA
BRANCH  16  19
ATOM     18  C   UNL     1       7.673   5.632  19.677  0.00  0.00    +0.000 C 
ATOM     19  O   UNL     1       7.977   6.620  18.691  0.00  0.00    +0.000 OA
ENDBRANCH  16  19
ENDBRANCH  15  16
ENDBRANCH  14  15
ENDBRANCH   1  14
TORSDOF 5
ENDMDL
MODEL 8
REMARK VINA RESULT:      -6.6      1.127      1.399
REMARK  Name = 
REMARK  6 active torsions:
REMARK  status: ('A' for Active; 'I' for Inactive)
REMARK    1  A    between atoms: C_1  and  O_2
REMARK    2  A    between atoms: O_2  and  C_3
REMARK    3  A    between atoms: C_3  and  C_5
REMARK    4  A    between atoms: C_5  and  S_6
REMARK    5  A    between atoms: S_6  and  C_7
REMARK    6  A    between atoms: N_9  and  C_10
REMARK                            x       y       z     vdW  Elec       q    Type
REMARK                         _______ _______ _______ _____ _____    ______ ____
ROOT
ATOM      1  C   UNL     1       5.466   5.218  16.219  0.00  0.00    +0.000 A 
ATOM      2  N   UNL     1       4.927   4.535  17.176  0.00  0.00    +0.000 NA
ATOM      3  N   UNL     1       3.957   5.304  17.800  0.00  0.00    +0.000 N 
ATOM      4  C   UNL     1       3.831   6.618  17.342  0.00  0.00    +0.000 A 
ATOM      5  S   UNL     1       2.934   7.893  17.945  0.00  0.00    +0.000 S 
ATOM      6  S   UNL     1       4.934   6.849  15.994  0.00  0.00    +0.000 S 
ENDROOT
BRANCH   3   7
ATOM      7  C   UNL     1       3.143   4.606  18.737  0.00  0.00    +0.000 A 
ATOM      8  C   UNL     1       2.182   3.686  18.281  0.00  0.00    +0.000 A 
ATOM      9  C   UNL     1       1.335   3.027  19.180  0.00  0.00    +0.000 A 
ATOM     10  C   UNL     1       1.425   3.304  20.537  0.00  0.00    +0.000 A 
ATOM     11  F   UNL     1       0.594   2.703  21.395  0.00  0.00    +0.000 F 
ATOM     12  C   UNL     1       2.358   4.215  21.012  0.00  0.00    +0.000 A 
ATOM     13  C   UNL     1       3.218   4.859  20.116  0.00  0.00    +0.000 A 
ENDBRANCH   3   7
BRANCH   1  14
ATOM     14  S   UNL     1       6.705   4.617  15.170  0.00  0.00    +0.000 S 
BRANCH  14  15
ATOM     15  C   UNL     1       5.696   3.779  13.920  0.00  0.00    +0.000 C 
BRANCH  15  16
ATOM     16  C   UNL     1       6.364   3.680  12.564  0.00  0.00    +0.000 C 
ATOM     17  O   UNL     1       7.332   4.319  12.177  0.00  0.00    +0.000 OA
BRANCH  16  19
ATOM     18  C   UNL     1       4.396   3.130  11.396  0.00  0.00    +0.000 C 
ATOM     19  O   UNL     1       5.702   2.740  11.822  0.00  0.00    +0.000 OA
ENDBRANCH  16  19
ENDBRANCH  15  16
ENDBRANCH  14  15
ENDBRANCH   1  14
TORSDOF 5
ENDMDL
MODEL 9
REMARK VINA RESULT:      -6.6      3.723      4.949
REMARK  Name = 
REMARK  6 active torsions:
REMARK  status: ('A' for Active; 'I' for Inactive)
REMARK    1  A    between atoms: C_1  and  O_2
REMARK    2  A    between atoms: O_2  and  C_3
REMARK    3  A    between atoms: C_3  and  C_5
REMARK    4  A    between atoms: C_5  and  S_6
REMARK    5  A    between atoms: S_6  and  C_7
REMARK    6  A    between atoms: N_9  and  C_10
REMARK                            x       y       z     vdW  Elec       q    Type
REMARK                         _______ _______ _______ _____ _____    ______ ____
ROOT
ATOM      1  C   UNL     1       4.707   4.788  18.289  0.00  0.00    +0.000 A 
ATOM      2  N   UNL     1       4.122   5.934  18.155  0.00  0.00    +0.000 NA
ATOM      3  N   UNL     1       2.973   5.958  18.929  0.00  0.00    +0.000 N 
ATOM      4  C   UNL     1       2.657   4.768  19.591  0.00  0.00    +0.000 A 
ATOM      5  S   UNL     1       1.289   4.337  20.449  0.00  0.00    +0.000 S 
ATOM      6  S   UNL     1       3.936   3.603  19.286  0.00  0.00    +0.000 S 
ENDROOT
BRANCH   3   7
ATOM      7  C   UNL     1       2.343   7.231  19.035  0.00  0.00    +0.000 A 
ATOM      8  C   UNL     1       1.855   7.669  20.279  0.00  0.00    +0.000 A 
ATOM      9  C   UNL     1       1.186   8.893  20.397  0.00  0.00    +0.000 A 
ATOM     10  C   UNL     1       0.975   9.672  19.268  0.00  0.00    +0.000 A 
ATOM     11  F   UNL     1       0.305  10.825  19.371  0.00  0.00    +0.000 F 
ATOM     12  C   UNL     1       1.437   9.257  18.027  0.00  0.00    +0.000 A 
ATOM     13  C   UNL     1       2.123   8.044  17.912  0.00  0.00    +0.000 A 
ENDBRANCH   3   7
BRANCH   1  14
ATOM     14  S   UNL     1       6.191   4.353  17.513  0.00  0.00    +0.000 S 
BRANCH  14  15
ATOM     15  C   UNL     1       7.351   5.422  18.403  0.00  0.00    +0.000 C 
BRANCH  15  16
ATOM     16  C   UNL     1       7.722   6.681  17.646  0.00  0.00    +0.000 C 
ATOM     17  O   UNL     1       7.611   6.872  16.444  0.00  0.00    +0.000 OA
BRANCH  16  19
ATOM     18  C   UNL     1       8.245   8.939  18.057  0.00  0.00    +0.000 C 
ATOM     19  O   UNL     1       8.211   7.596  18.539  0.00  0.00    +0.000 OA
ENDBRANCH  16  19
ENDBRANCH  15  16
ENDBRANCH  14  15
ENDBRANCH   1  14
TORSDOF 5
ENDMDL
