MODEL 1
REMARK VINA RESULT:      -7.0      0.000      0.000
REMARK  Name = 
REMARK  7 active torsions:
REMARK  status: ('A' for Active; 'I' for Inactive)
REMARK    1  A    between atoms: C_1  and  O_2
REMARK    2  A    between atoms: O_2  and  C_3
REMARK    3  A    between atoms: C_5  and  O_6
REMARK    4  A    between atoms: O_6  and  C_7
REMARK    5  A    between atoms: C_8  and  C_9
REMARK    6  A    between atoms: C_20  and  O_21
REMARK    7  A    between atoms: O_21  and  C_22
REMARK                            x       y       z     vdW  Elec       q    Type
REMARK                         _______ _______ _______ _____ _____    ______ ____
ROOT
ATOM      1  C   UNL     1       2.284   5.821  20.174  0.00  0.00    +0.000 A 
ATOM      2  C   UNL     1       2.789   6.606  19.139  0.00  0.00    +0.000 A 
ATOM      3  C   UNL     1       3.331   6.021  17.962  0.00  0.00    +0.000 A 
ATOM      4  C   UNL     1       3.459   4.612  17.769  0.00  0.00    +0.000 A 
ATOM      5  C   UNL     1       2.898   3.840  18.834  0.00  0.00    +0.000 A 
ATOM      6  C   UNL     1       2.354   4.448  20.015  0.00  0.00    +0.000 A 
ENDROOT
BRANCH   4   7
ATOM      7  C   UNL     1       4.011   3.961  16.445  0.00  0.00    +0.000 C 
ATOM      8  C   UNL     1       5.185   4.244  15.809  0.00  0.00    +0.000 C 
ATOM      9  C   UNL     1       6.236   4.837  16.683  0.00  0.00    +0.000 C 
ATOM     10  O   UNL     1       6.506   4.456  17.815  0.00  0.00    +0.000 OA
ATOM     11  N   UNL     1       7.070   5.564  15.860  0.00  0.00    +0.000 N 
ATOM     12  C   UNL     1       6.925   5.097  14.555  0.00  0.00    +0.000 A 
ATOM     13  C   UNL     1       7.867   5.387  13.570  0.00  0.00    +0.000 A 
ATOM     14  C   UNL     1       7.742   4.718  12.361  0.00  0.00    +0.000 A 
ATOM     15  C   UNL     1       6.693   3.806  12.193  0.00  0.00    +0.000 A 
ATOM     16  C   UNL     1       5.713   3.541  13.196  0.00  0.00    +0.000 A 
ATOM     17  C   UNL     1       5.845   4.183  14.444  0.00  0.00    +0.000 A 
ATOM     18  H   UNL     1       6.975   6.571  15.959  0.00  0.00    +0.000 HD
ENDBRANCH   4   7
BRANCH   1  20
ATOM     19  C   UNL     1       1.281   7.812  21.105  0.00  0.00    +0.000 C 
ATOM     20  O   UNL     1       1.789   6.486  21.264  0.00  0.00    +0.000 OA
ENDBRANCH   1  20
BRANCH   3  21
ATOM     21  O   UNL     1       3.757   6.958  17.045  0.00  0.00    +0.000 OA
ATOM     22  C   UNL     1       3.310   8.273  17.357  0.00  0.00    +0.000 C 
ENDBRANCH   3  21
BRANCH   5  23
ATOM     23  O   UNL     1       2.883   2.466  18.678  0.00  0.00    +0.000 OA
ATOM     24  C   UNL     1       1.693   1.793  19.102  0.00  0.00    +0.000 C 
ENDBRANCH   5  23
TORSDOF 4
ENDMDL
MODEL 2
REMARK VINA RESULT:      -6.9      1.414      1.866
REMARK  Name = 
REMARK  7 active torsions:
REMARK  status: ('A' for Active; 'I' for Inactive)
REMARK    1  A    between atoms: C_1  and  O_2
REMARK    2  A    between atoms: O_2  and  C_3
REMARK    3  A    between atoms: C_5  and  O_6
REMARK    4  A    between atoms: O_6  and  C_7
REMARK    5  A    between atoms: C_8  and  C_9
REMARK    6  A    between atoms: C_20  and  O_21
REMARK    7  A    between atoms: O_21  and  C_22
REMARK                            x       y       z     vdW  Elec       q    Type
REMARK                         _______ _______ _______ _____ _____    ______ ____
ROOT
ATOM      1  C   UNL     1       1.452   7.483  20.985  0.00  0.00    +0.000 A 
ATOM      2  C   UNL     1       1.882   8.079  19.801  0.00  0.00    +0.000 A 
ATOM      3  C   UNL     1       2.411   7.306  18.731  0.00  0.00    +0.000 A 
ATOM      4  C   UNL     1       2.601   5.892  18.799  0.00  0.00    +0.000 A 
ATOM      5  C   UNL     1       2.115   5.312  20.012  0.00  0.00    +0.000 A 
ATOM      6  C   UNL     1       1.582   6.109  21.081  0.00  0.00    +0.000 A 
ENDROOT
BRANCH   4   7
ATOM      7  C   UNL     1       3.139   5.027  17.598  0.00  0.00    +0.000 C 
ATOM      8  C   UNL     1       4.406   5.007  17.093  0.00  0.00    +0.000 C 
ATOM      9  C   UNL     1       5.461   5.449  18.047  0.00  0.00    +0.000 C 
ATOM     10  O   UNL     1       5.523   5.123  19.226  0.00  0.00    +0.000 OA
ATOM     11  N   UNL     1       6.513   5.914  17.287  0.00  0.00    +0.000 N 
ATOM     12  C   UNL     1       6.411   5.373  16.007  0.00  0.00    +0.000 A 
ATOM     13  C   UNL     1       7.491   5.376  15.128  0.00  0.00    +0.000 A 
ATOM     14  C   UNL     1       7.355   4.641  13.958  0.00  0.00    +0.000 A 
ATOM     15  C   UNL     1       6.160   3.951  13.723  0.00  0.00    +0.000 A 
ATOM     16  C   UNL     1       5.045   3.982  14.615  0.00  0.00    +0.000 A 
ATOM     17  C   UNL     1       5.179   4.692  15.825  0.00  0.00    +0.000 A 
ATOM     18  H   UNL     1       6.625   6.924  17.308  0.00  0.00    +0.000 HD
ENDBRANCH   4   7
BRANCH   1  20
ATOM     19  C   UNL     1      -0.297   8.964  21.749  0.00  0.00    +0.000 C 
ATOM     20  O   UNL     1       0.962   8.320  21.952  0.00  0.00    +0.000 OA
ENDBRANCH   1  20
BRANCH   3  21
ATOM     21  O   UNL     1       2.759   8.071  17.639  0.00  0.00    +0.000 OA
ATOM     22  C   UNL     1       2.188   9.374  17.677  0.00  0.00    +0.000 C 
ENDBRANCH   3  21
BRANCH   5  23
ATOM     23  O   UNL     1       2.161   3.934  20.116  0.00  0.00    +0.000 OA
ATOM     24  C   UNL     1       2.186   3.398  21.443  0.00  0.00    +0.000 C 
ENDBRANCH   5  23
TORSDOF 4
ENDMDL
MODEL 3
REMARK VINA RESULT:      -6.3      1.658      3.559
REMARK  Name = 
REMARK  7 active torsions:
REMARK  status: ('A' for Active; 'I' for Inactive)
REMARK    1  A    between atoms: C_1  and  O_2
REMARK    2  A    between atoms: O_2  and  C_3
REMARK    3  A    between atoms: C_5  and  O_6
REMARK    4  A    between atoms: O_6  and  C_7
REMARK    5  A    between atoms: C_8  and  C_9
REMARK    6  A    between atoms: C_20  and  O_21
REMARK    7  A    between atoms: O_21  and  C_22
REMARK                            x       y       z     vdW  Elec       q    Type
REMARK                         _______ _______ _______ _____ _____    ______ ____
ROOT
ATOM      1  C   UNL     1       1.327   8.099  21.222  0.00  0.00    +0.000 A 
ATOM      2  C   UNL     1       1.441   6.721  21.392  0.00  0.00    +0.000 A 
ATOM      3  C   UNL     1       1.908   5.881  20.344  0.00  0.00    +0.000 A 
ATOM      4  C   UNL     1       2.233   6.358  19.037  0.00  0.00    +0.000 A 
ATOM      5  C   UNL     1       2.139   7.779  18.913  0.00  0.00    +0.000 A 
ATOM      6  C   UNL     1       1.667   8.611  19.983  0.00  0.00    +0.000 A 
ENDROOT
BRANCH   4   7
ATOM      7  C   UNL     1       2.799   5.438  17.890  0.00  0.00    +0.000 C 
ATOM      8  C   UNL     1       4.097   5.321  17.486  0.00  0.00    +0.000 C 
ATOM      9  C   UNL     1       5.104   5.703  18.515  0.00  0.00    +0.000 C 
ATOM     10  O   UNL     1       5.052   5.392  19.698  0.00  0.00    +0.000 OA
ATOM     11  N   UNL     1       6.242   6.081  17.834  0.00  0.00    +0.000 N 
ATOM     12  C   UNL     1       6.200   5.528  16.556  0.00  0.00    +0.000 A 
ATOM     13  C   UNL     1       7.343   5.442  15.763  0.00  0.00    +0.000 A 
ATOM     14  C   UNL     1       7.245   4.700  14.594  0.00  0.00    +0.000 A 
ATOM     15  C   UNL     1       6.026   4.092  14.274  0.00  0.00    +0.000 A 
ATOM     16  C   UNL     1       4.851   4.215  15.076  0.00  0.00    +0.000 A 
ATOM     17  C   UNL     1       4.941   4.933  16.285  0.00  0.00    +0.000 A 
ATOM     18  H   UNL     1       6.423   7.081  17.853  0.00  0.00    +0.000 HD
ENDBRANCH   4   7
BRANCH   1  20
ATOM     19  C   UNL     1      -0.533   9.095  22.398  0.00  0.00    +0.000 C 
ATOM     20  O   UNL     1       0.864   8.814  22.294  0.00  0.00    +0.000 OA
ENDBRANCH   1  20
BRANCH   3  21
ATOM     21  O   UNL     1       1.973   4.553  20.709  0.00  0.00    +0.000 OA
ATOM     22  C   UNL     1       0.816   3.820  20.323  0.00  0.00    +0.000 C 
ENDBRANCH   3  21
BRANCH   5  23
ATOM     23  O   UNL     1       2.541   8.335  17.712  0.00  0.00    +0.000 OA
ATOM     24  C   UNL     1       2.241   9.721  17.523  0.00  0.00    +0.000 C 
ENDBRANCH   5  23
TORSDOF 4
ENDMDL
MODEL 4
REMARK VINA RESULT:      -6.0      3.280      5.218
REMARK  Name = 
REMARK  7 active torsions:
REMARK  status: ('A' for Active; 'I' for Inactive)
REMARK    1  A    between atoms: C_1  and  O_2
REMARK    2  A    between atoms: O_2  and  C_3
REMARK    3  A    between atoms: C_5  and  O_6
REMARK    4  A    between atoms: O_6  and  C_7
REMARK    5  A    between atoms: C_8  and  C_9
REMARK    6  A    between atoms: C_20  and  O_21
REMARK    7  A    between atoms: O_21  and  C_22
REMARK                            x       y       z     vdW  Elec       q    Type
REMARK                         _______ _______ _______ _____ _____    ______ ____
ROOT
ATOM      1  C   UNL     1       3.527   3.326  17.517  0.00  0.00    +0.000 A 
ATOM      2  C   UNL     1       3.269   4.486  18.243  0.00  0.00    +0.000 A 
ATOM      3  C   UNL     1       3.993   5.686  18.006  0.00  0.00    +0.000 A 
ATOM      4  C   UNL     1       5.064   5.788  17.067  0.00  0.00    +0.000 A 
ATOM      5  C   UNL     1       5.275   4.590  16.316  0.00  0.00    +0.000 A 
ATOM      6  C   UNL     1       4.533   3.387  16.569  0.00  0.00    +0.000 A 
ENDROOT
BRANCH   4   7
ATOM      7  C   UNL     1       5.834   7.129  16.766  0.00  0.00    +0.000 C 
ATOM      8  C   UNL     1       6.936   7.615  17.407  0.00  0.00    +0.000 C 
ATOM      9  C   UNL     1       7.757   6.581  18.098  0.00  0.00    +0.000 C 
ATOM     10  O   UNL     1       8.048   5.488  17.630  0.00  0.00    +0.000 OA
ATOM     11  N   UNL     1       8.431   7.226  19.113  0.00  0.00    +0.000 N 
ATOM     12  C   UNL     1       8.480   8.587  18.821  0.00  0.00    +0.000 A 
ATOM     13  C   UNL     1       9.375   9.438  19.466  0.00  0.00    +0.000 A 
ATOM     14  C   UNL     1       9.487  10.729  18.970  0.00  0.00    +0.000 A 
ATOM     15  C   UNL     1       8.706  11.107  17.872  0.00  0.00    +0.000 A 
ATOM     16  C   UNL     1       7.766  10.238  17.239  0.00  0.00    +0.000 A 
ATOM     17  C   UNL     1       7.666   8.912  17.705  0.00  0.00    +0.000 A 
ATOM     18  H   UNL     1       8.086   7.008  20.044  0.00  0.00    +0.000 HD
ENDBRANCH   4   7
BRANCH   1  20
ATOM     19  C   UNL     1       1.595   2.383  18.620  0.00  0.00    +0.000 C 
ATOM     20  O   UNL     1       2.774   2.225  17.827  0.00  0.00    +0.000 OA
ENDBRANCH   1  20
BRANCH   3  21
ATOM     21  O   UNL     1       3.578   6.729  18.806  0.00  0.00    +0.000 OA
ATOM     22  C   UNL     1       2.401   6.421  19.544  0.00  0.00    +0.000 C 
ENDBRANCH   3  21
BRANCH   5  23
ATOM     23  O   UNL     1       6.223   4.635  15.310  0.00  0.00    +0.000 OA
ATOM     24  C   UNL     1       5.868   4.004  14.075  0.00  0.00    +0.000 C 
ENDBRANCH   5  23
TORSDOF 4
ENDMDL
MODEL 5
REMARK VINA RESULT:      -5.9      0.600      2.669
REMARK  Name = 
REMARK  7 active torsions:
REMARK  status: ('A' for Active; 'I' for Inactive)
REMARK    1  A    between atoms: C_1  and  O_2
REMARK    2  A    between atoms: O_2  and  C_3
REMARK    3  A    between atoms: C_5  and  O_6
REMARK    4  A    between atoms: O_6  and  C_7
REMARK    5  A    between atoms: C_8  and  C_9
REMARK    6  A    between atoms: C_20  and  O_21
REMARK    7  A    between atoms: O_21  and  C_22
REMARK                            x       y       z     vdW  Elec       q    Type
REMARK                         _______ _______ _______ _____ _____    ______ ____
ROOT
ATOM      1  C   UNL     1       2.357   5.893  20.124  0.00  0.00    +0.000 A 
ATOM      2  C   UNL     1       2.467   4.508  20.019  0.00  0.00    +0.000 A 
ATOM      3  C   UNL     1       2.961   3.891  18.837  0.00  0.00    +0.000 A 
ATOM      4  C   UNL     1       3.320   4.616  17.660  0.00  0.00    +0.000 A 
ATOM      5  C   UNL     1       3.229   6.035  17.818  0.00  0.00    +0.000 A 
ATOM      6  C   UNL     1       2.729   6.640  19.020  0.00  0.00    +0.000 A 
ENDROOT
BRANCH   4   7
ATOM      7  C   UNL     1       3.916   3.940  16.368  0.00  0.00    +0.000 C 
ATOM      8  C   UNL     1       5.108   4.216  15.763  0.00  0.00    +0.000 C 
ATOM      9  C   UNL     1       6.128   4.832  16.655  0.00  0.00    +0.000 C 
ATOM     10  O   UNL     1       6.365   4.476  17.803  0.00  0.00    +0.000 OA
ATOM     11  N   UNL     1       6.985   5.546  15.843  0.00  0.00    +0.000 N 
ATOM     12  C   UNL     1       6.882   5.051  14.545  0.00  0.00    +0.000 A 
ATOM     13  C   UNL     1       7.853   5.325  13.583  0.00  0.00    +0.000 A 
ATOM     14  C   UNL     1       7.767   4.630  12.385  0.00  0.00    +0.000 A 
ATOM     15  C   UNL     1       6.728   3.710  12.204  0.00  0.00    +0.000 A 
ATOM     16  C   UNL     1       5.718   3.461  13.183  0.00  0.00    +0.000 A 
ATOM     17  C   UNL     1       5.810   4.130  14.420  0.00  0.00    +0.000 A 
ATOM     18  H   UNL     1       6.883   6.554  15.918  0.00  0.00    +0.000 HD
ENDBRANCH   4   7
BRANCH   1  20
ATOM     19  C   UNL     1       1.207   7.651  21.316  0.00  0.00    +0.000 C 
ATOM     20  O   UNL     1       1.866   6.383  21.304  0.00  0.00    +0.000 OA
ENDBRANCH   1  20
BRANCH   3  21
ATOM     21  O   UNL     1       3.017   2.517  18.932  0.00  0.00    +0.000 OA
ATOM     22  C   UNL     1       4.170   2.063  19.632  0.00  0.00    +0.000 C 
ENDBRANCH   3  21
BRANCH   5  23
ATOM     23  O   UNL     1       3.662   6.816  16.763  0.00  0.00    +0.000 OA
ATOM     24  C   UNL     1       4.531   7.904  17.093  0.00  0.00    +0.000 C 
ENDBRANCH   5  23
TORSDOF 4
ENDMDL
MODEL 6
REMARK VINA RESULT:      -5.8      6.408     11.650
REMARK  Name = 
REMARK  7 active torsions:
REMARK  status: ('A' for Active; 'I' for Inactive)
REMARK    1  A    between atoms: C_1  and  O_2
REMARK    2  A    between atoms: O_2  and  C_3
REMARK    3  A    between atoms: C_5  and  O_6
REMARK    4  A    between atoms: O_6  and  C_7
REMARK    5  A    between atoms: C_8  and  C_9
REMARK    6  A    between atoms: C_20  and  O_21
REMARK    7  A    between atoms: O_21  and  C_22
REMARK                            x       y       z     vdW  Elec       q    Type
REMARK                         _______ _______ _______ _____ _____    ______ ____
ROOT
ATOM      1  C   UNL     1       1.524  10.014  17.897  0.00  0.00    +0.000 A 
ATOM      2  C   UNL     1       0.181   9.695  18.084  0.00  0.00    +0.000 A 
ATOM      3  C   UNL     1      -0.718  10.604  18.708  0.00  0.00    +0.000 A 
ATOM      4  C   UNL     1      -0.318  11.867  19.239  0.00  0.00    +0.000 A 
ATOM      5  C   UNL     1       1.057  12.176  18.996  0.00  0.00    +0.000 A 
ATOM      6  C   UNL     1       1.949  11.246  18.364  0.00  0.00    +0.000 A 
ENDROOT
BRANCH   4   7
ATOM      7  C   UNL     1      -1.321  12.898  19.884  0.00  0.00    +0.000 C 
ATOM      8  C   UNL     1      -1.882  12.841  21.127  0.00  0.00    +0.000 C 
ATOM      9  C   UNL     1      -1.117  12.033  22.116  0.00  0.00    +0.000 C 
ATOM     10  O   UNL     1       0.100  12.060  22.256  0.00  0.00    +0.000 OA
ATOM     11  N   UNL     1      -2.023  11.603  23.062  0.00  0.00    +0.000 N 
ATOM     12  C   UNL     1      -3.138  12.439  23.021  0.00  0.00    +0.000 A 
ATOM     13  C   UNL     1      -4.057  12.476  24.067  0.00  0.00    +0.000 A 
ATOM     14  C   UNL     1      -5.018  13.476  24.027  0.00  0.00    +0.000 A 
ATOM     15  C   UNL     1      -5.020  14.377  22.955  0.00  0.00    +0.000 A 
ATOM     16  C   UNL     1      -4.094  14.308  21.869  0.00  0.00    +0.000 A 
ATOM     17  C   UNL     1      -3.088  13.323  21.912  0.00  0.00    +0.000 A 
ATOM     18  H   UNL     1      -2.240  10.611  23.009  0.00  0.00    +0.000 HD
ENDBRANCH   4   7
BRANCH   1  20
ATOM     19  C   UNL     1       2.733   7.928  18.038  0.00  0.00    +0.000 C 
ATOM     20  O   UNL     1       2.302   9.067  17.289  0.00  0.00    +0.000 OA
ENDBRANCH   1  20
BRANCH   3  21
ATOM     21  O   UNL     1      -2.006  10.118  18.781  0.00  0.00    +0.000 OA
ATOM     22  C   UNL     1      -2.556   9.827  17.501  0.00  0.00    +0.000 C 
ENDBRANCH   3  21
BRANCH   5  23
ATOM     23  O   UNL     1       1.501  13.427  19.382  0.00  0.00    +0.000 OA
ATOM     24  C   UNL     1       2.542  13.456  20.363  0.00  0.00    +0.000 C 
ENDBRANCH   5  23
TORSDOF 4
ENDMDL
MODEL 7
REMARK VINA RESULT:      -5.7      3.060      6.379
REMARK  Name = 
REMARK  7 active torsions:
REMARK  status: ('A' for Active; 'I' for Inactive)
REMARK    1  A    between atoms: C_1  and  O_2
REMARK    2  A    between atoms: O_2  and  C_3
REMARK    3  A    between atoms: C_5  and  O_6
REMARK    4  A    between atoms: O_6  and  C_7
REMARK    5  A    between atoms: C_8  and  C_9
REMARK    6  A    between atoms: C_20  and  O_21
REMARK    7  A    between atoms: O_21  and  C_22
REMARK                            x       y       z     vdW  Elec       q    Type
REMARK                         _______ _______ _______ _____ _____    ______ ____
ROOT
ATOM      1  C   UNL     1       8.147   8.206  17.936  0.00  0.00    +0.000 A 
ATOM      2  C   UNL     1       7.192   8.034  16.937  0.00  0.00    +0.000 A 
ATOM      3  C   UNL     1       6.299   6.928  16.946  0.00  0.00    +0.000 A 
ATOM      4  C   UNL     1       6.344   5.887  17.923  0.00  0.00    +0.000 A 
ATOM      5  C   UNL     1       7.311   6.116  18.952  0.00  0.00    +0.000 A 
ATOM      6  C   UNL     1       8.203   7.240  18.926  0.00  0.00    +0.000 A 
ENDROOT
BRANCH   4   7
ATOM      7  C   UNL     1       5.323   4.688  17.966  0.00  0.00    +0.000 C 
ATOM      8  C   UNL     1       4.184   4.595  18.710  0.00  0.00    +0.000 C 
ATOM      9  C   UNL     1       3.605   5.904  19.124  0.00  0.00    +0.000 C 
ATOM     10  O   UNL     1       3.499   6.885  18.399  0.00  0.00    +0.000 OA
ATOM     11  N   UNL     1       2.873   5.669  20.268  0.00  0.00    +0.000 N 
ATOM     12  C   UNL     1       2.557   4.313  20.324  0.00  0.00    +0.000 A 
ATOM     13  C   UNL     1       1.552   3.834  21.162  0.00  0.00    +0.000 A 
ATOM     14  C   UNL     1       1.177   2.508  21.003  0.00  0.00    +0.000 A 
ATOM     15  C   UNL     1       1.818   1.730  20.031  0.00  0.00    +0.000 A 
ATOM     16  C   UNL     1       2.871   2.221  19.201  0.00  0.00    +0.000 A 
ATOM     17  C   UNL     1       3.240   3.576  19.322  0.00  0.00    +0.000 A 
ATOM     18  H   UNL     1       3.298   6.036  21.115  0.00  0.00    +0.000 HD
ENDBRANCH   4   7
BRANCH   1  20
ATOM     19  C   UNL     1       9.125  10.164  18.959  0.00  0.00    +0.000 C 
ATOM     20  O   UNL     1       8.958   9.303  17.830  0.00  0.00    +0.000 OA
ENDBRANCH   1  20
BRANCH   3  21
ATOM     21  O   UNL     1       5.413   6.944  15.890  0.00  0.00    +0.000 OA
ATOM     22  C   UNL     1       5.547   5.808  15.044  0.00  0.00    +0.000 C 
ENDBRANCH   3  21
BRANCH   5  23
ATOM     23  O   UNL     1       7.346   5.211  19.997  0.00  0.00    +0.000 OA
ATOM     24  C   UNL     1       8.584   5.112  20.708  0.00  0.00    +0.000 C 
ENDBRANCH   5  23
TORSDOF 4
ENDMDL
MODEL 8
REMARK VINA RESULT:      -5.7      1.334      3.070
REMARK  Name = 
REMARK  7 active torsions:
REMARK  status: ('A' for Active; 'I' for Inactive)
REMARK    1  A    between atoms: C_1  and  O_2
REMARK    2  A    between atoms: O_2  and  C_3
REMARK    3  A    between atoms: C_5  and  O_6
REMARK    4  A    between atoms: O_6  and  C_7
REMARK    5  A    between atoms: C_8  and  C_9
REMARK    6  A    between atoms: C_20  and  O_21
REMARK    7  A    between atoms: O_21  and  C_22
REMARK                            x       y       z     vdW  Elec       q    Type
REMARK                         _______ _______ _______ _____ _____    ______ ____
ROOT
ATOM      1  C   UNL     1       2.810   4.150  20.161  0.00  0.00    +0.000 A 
ATOM      2  C   UNL     1       3.237   2.864  19.839  0.00  0.00    +0.000 A 
ATOM      3  C   UNL     1       3.781   2.562  18.560  0.00  0.00    +0.000 A 
ATOM      4  C   UNL     1       3.879   3.514  17.500  0.00  0.00    +0.000 A 
ATOM      5  C   UNL     1       3.466   4.830  17.880  0.00  0.00    +0.000 A 
ATOM      6  C   UNL     1       2.920   5.116  19.176  0.00  0.00    +0.000 A 
ENDROOT
BRANCH   4   7
ATOM      7  C   UNL     1       4.528   3.196  16.101  0.00  0.00    +0.000 C 
ATOM      8  C   UNL     1       5.610   3.803  15.532  0.00  0.00    +0.000 C 
ATOM      9  C   UNL     1       6.535   4.455  16.500  0.00  0.00    +0.000 C 
ATOM     10  O   UNL     1       6.895   3.969  17.565  0.00  0.00    +0.000 OA
ATOM     11  N   UNL     1       7.192   5.451  15.810  0.00  0.00    +0.000 N 
ATOM     12  C   UNL     1       7.122   5.169  14.447  0.00  0.00    +0.000 A 
ATOM     13  C   UNL     1       7.970   5.789  13.532  0.00  0.00    +0.000 A 
ATOM     14  C   UNL     1       7.961   5.300  12.233  0.00  0.00    +0.000 A 
ATOM     15  C   UNL     1       7.114   4.232  11.913  0.00  0.00    +0.000 A 
ATOM     16  C   UNL     1       6.224   3.626  12.850  0.00  0.00    +0.000 A 
ATOM     17  C   UNL     1       6.246   4.085  14.183  0.00  0.00    +0.000 A 
ATOM     18  H   UNL     1       6.899   6.392  16.060  0.00  0.00    +0.000 HD
ENDBRANCH   4   7
BRANCH   1  20
ATOM     19  C   UNL     1       1.666   3.235  22.082  0.00  0.00    +0.000 C 
ATOM     20  O   UNL     1       2.299   4.331  21.418  0.00  0.00    +0.000 OA
ENDBRANCH   1  20
BRANCH   3  21
ATOM     21  O   UNL     1       4.167   1.244  18.439  0.00  0.00    +0.000 OA
ATOM     22  C   UNL     1       4.768   0.738  19.626  0.00  0.00    +0.000 C 
ENDBRANCH   3  21
BRANCH   5  23
ATOM     23  O   UNL     1       3.629   5.836  16.946  0.00  0.00    +0.000 OA
ATOM     24  C   UNL     1       4.163   7.072  17.431  0.00  0.00    +0.000 C 
ENDBRANCH   5  23
TORSDOF 4
ENDMDL
MODEL 9
REMARK VINA RESULT:      -5.7      2.108      6.830
REMARK  Name = 
REMARK  7 active torsions:
REMARK  status: ('A' for Active; 'I' for Inactive)
REMARK    1  A    between atoms: C_1  and  O_2
REMARK    2  A    between atoms: O_2  and  C_3
REMARK    3  A    between atoms: C_5  and  O_6
REMARK    4  A    between atoms: O_6  and  C_7
REMARK    5  A    between atoms: C_8  and  C_9
REMARK    6  A    between atoms: C_20  and  O_21
REMARK    7  A    between atoms: O_21  and  C_22
REMARK                            x       y       z     vdW  Elec       q    Type
REMARK                         _______ _______ _______ _____ _____    ______ ____
ROOT
ATOM      1  C   UNL     1       7.716   5.292  14.402  0.00  0.00    +0.000 A 
ATOM      2  C   UNL     1       6.615   4.777  13.722  0.00  0.00    +0.000 A 
ATOM      3  C   UNL     1       5.536   4.162  14.414  0.00  0.00    +0.000 A 
ATOM      4  C   UNL     1       5.515   3.968  15.829  0.00  0.00    +0.000 A 
ATOM      5  C   UNL     1       6.642   4.542  16.496  0.00  0.00    +0.000 A 
ATOM      6  C   UNL     1       7.722   5.160  15.780  0.00  0.00    +0.000 A 
ENDROOT
BRANCH   4   7
ATOM      7  C   UNL     1       4.299   3.334  16.603  0.00  0.00    +0.000 C 
ATOM      8  C   UNL     1       3.674   3.828  17.711  0.00  0.00    +0.000 C 
ATOM      9  C   UNL     1       3.820   5.298  17.902  0.00  0.00    +0.000 C 
ATOM     10  O   UNL     1       3.722   6.135  17.013  0.00  0.00    +0.000 OA
ATOM     11  N   UNL     1       3.668   5.539  19.251  0.00  0.00    +0.000 N 
ATOM     12  C   UNL     1       2.987   4.466  19.821  0.00  0.00    +0.000 A 
ATOM     13  C   UNL     1       2.388   4.568  21.075  0.00  0.00    +0.000 A 
ATOM     14  C   UNL     1       1.568   3.520  21.469  0.00  0.00    +0.000 A 
ATOM     15  C   UNL     1       1.390   2.432  20.607  0.00  0.00    +0.000 A 
ATOM     16  C   UNL     1       2.036   2.321  19.338  0.00  0.00    +0.000 A 
ATOM     17  C   UNL     1       2.843   3.392  18.904  0.00  0.00    +0.000 A 
ATOM     18  H   UNL     1       4.531   5.789  19.727  0.00  0.00    +0.000 HD
ENDBRANCH   4   7
BRANCH   1  20
ATOM     19  C   UNL     1       8.481   6.050  12.240  0.00  0.00    +0.000 C 
ATOM     20  O   UNL     1       8.700   5.860  13.639  0.00  0.00    +0.000 OA
ENDBRANCH   1  20
BRANCH   3  21
ATOM     21  O   UNL     1       4.531   3.736  13.571  0.00  0.00    +0.000 OA
ATOM     22  C   UNL     1       5.007   3.415  12.269  0.00  0.00    +0.000 C 
ENDBRANCH   3  21
BRANCH   5  23
ATOM     23  O   UNL     1       6.649   4.495  17.878  0.00  0.00    +0.000 OA
ATOM     24  C   UNL     1       7.456   5.471  18.542  0.00  0.00    +0.000 C 
ENDBRANCH   5  23
TORSDOF 4
ENDMDL
