MODEL 1
REMARK VINA RESULT:      -8.7      0.000      0.000
REMARK  Name = 
REMARK  3 active torsions:
REMARK  status: ('A' for Active; 'I' for Inactive)
REMARK    1  A    between atoms: S_2  and  C_4
REMARK    2  A    between atoms: S_2  and  C_19
REMARK    3  A    between atoms: C_4  and  C_5
REMARK                            x       y       z     vdW  Elec       q    Type
REMARK                         _______ _______ _______ _____ _____    ______ ____
ROOT
ATOM      1  C   UNL     1       4.510   5.589  17.389  0.00  0.00    +0.000 C 
ATOM      2  C   UNL     1       5.196   5.462  18.787  0.00  0.00    +0.000 C 
ATOM      3  C   UNL     1       4.049   5.496  19.773  0.00  0.00    +0.000 C 
ATOM      4  C   UNL     1       2.659   5.445  19.163  0.00  0.00    +0.000 C 
ATOM      5  C   UNL     1       3.035   5.623  17.698  0.00  0.00    +0.000 C 
ATOM      6  C   UNL     1       3.697   4.314  17.318  0.00  0.00    +0.000 C 
ATOM      7  C   UNL     1       3.653   3.472  18.577  0.00  0.00    +0.000 C 
ATOM      8 BR   UNL     1       3.972   1.626  18.317  0.00  0.00    +0.000 Br
ATOM      9  C   UNL     1       4.692   4.187  19.402  0.00  0.00    +0.000 C 
ATOM     10  C   UNL     1       2.292   3.913  19.211  0.00  0.00    +0.000 C 
ATOM     11  O   UNL     1       2.072   3.422  20.537  0.00  0.00    +0.000 OA
ATOM     12  C   UNL     1       0.729   2.930  20.529  0.00  0.00    +0.000 C 
ATOM     13  C   UNL     1       0.459   2.598  19.087  0.00  0.00    +0.000 C 
ATOM     14  O   UNL     1       1.149   3.627  18.386  0.00  0.00    +0.000 OA
ENDROOT
BRANCH   1  15
ATOM     15  C   UNL     1       5.133   6.057  16.120  0.00  0.00    +0.000 C 
BRANCH  15  17
ATOM     16  O   UNL     1       7.754   6.442  16.090  0.00  0.00    +0.000 OA
ATOM     17  S   UNL     1       6.775   5.375  15.996  0.00  0.00    +0.000 S 
ATOM     18  O   UNL     1       6.868   4.196  16.838  0.00  0.00    +0.000 OA
BRANCH  17  19
ATOM     19  C   UNL     1       6.801   4.802  14.301  0.00  0.00    +0.000 A 
ATOM     20  C   UNL     1       5.895   3.820  13.893  0.00  0.00    +0.000 A 
ATOM     21  C   UNL     1       5.927   3.356  12.577  0.00  0.00    +0.000 A 
ATOM     22  C   UNL     1       6.855   3.880  11.675  0.00  0.00    +0.000 A 
ATOM     23  C   UNL     1       7.746   4.874  12.081  0.00  0.00    +0.000 A 
ATOM     24  C   UNL     1       7.718   5.346  13.396  0.00  0.00    +0.000 A 
ENDBRANCH  17  19
ENDBRANCH  15  17
ENDBRANCH   1  15
TORSDOF 3
ENDMDL
MODEL 2
REMARK VINA RESULT:      -8.3      1.377      1.698
REMARK  Name = 
REMARK  3 active torsions:
REMARK  status: ('A' for Active; 'I' for Inactive)
REMARK    1  A    between atoms: S_2  and  C_4
REMARK    2  A    between atoms: S_2  and  C_19
REMARK    3  A    between atoms: C_4  and  C_5
REMARK                            x       y       z     vdW  Elec       q    Type
REMARK                         _______ _______ _______ _____ _____    ______ ____
ROOT
ATOM      1  C   UNL     1       5.511   4.366  17.013  0.00  0.00    +0.000 C 
ATOM      2  C   UNL     1       5.645   5.401  18.176  0.00  0.00    +0.000 C 
ATOM      3  C   UNL     1       4.224   5.841  18.452  0.00  0.00    +0.000 C 
ATOM      4  C   UNL     1       3.144   5.065  17.719  0.00  0.00    +0.000 C 
ATOM      5  C   UNL     1       4.027   4.264  16.772  0.00  0.00    +0.000 C 
ATOM      6  C   UNL     1       4.718   3.254  17.667  0.00  0.00    +0.000 C 
ATOM      7  C   UNL     1       4.187   3.535  19.058  0.00  0.00    +0.000 C 
ATOM      8 BR   UNL     1       4.491   2.161  20.322  0.00  0.00    +0.000 Br
ATOM      9  C   UNL     1       4.895   4.833  19.347  0.00  0.00    +0.000 C 
ATOM     10  C   UNL     1       2.712   3.962  18.758  0.00  0.00    +0.000 C 
ATOM     11  O   UNL     1       2.009   4.489  19.888  0.00  0.00    +0.000 OA
ATOM     12  C   UNL     1       0.736   3.837  19.867  0.00  0.00    +0.000 C 
ATOM     13  C   UNL     1       0.985   2.552  19.125  0.00  0.00    +0.000 C 
ATOM     14  O   UNL     1       1.927   2.934  18.129  0.00  0.00    +0.000 OA
ENDROOT
BRANCH   1  15
ATOM     15  C   UNL     1       6.568   3.955  16.047  0.00  0.00    +0.000 C 
BRANCH  15  17
ATOM     16  O   UNL     1       5.536   6.090  14.865  0.00  0.00    +0.000 OA
ATOM     17  S   UNL     1       6.605   5.122  14.701  0.00  0.00    +0.000 S 
ATOM     18  O   UNL     1       7.974   5.549  14.475  0.00  0.00    +0.000 OA
BRANCH  17  19
ATOM     19  C   UNL     1       6.152   4.087  13.314  0.00  0.00    +0.000 A 
ATOM     20  C   UNL     1       4.805   3.946  12.970  0.00  0.00    +0.000 A 
ATOM     21  C   UNL     1       4.448   3.122  11.902  0.00  0.00    +0.000 A 
ATOM     22  C   UNL     1       5.435   2.452  11.178  0.00  0.00    +0.000 A 
ATOM     23  C   UNL     1       6.780   2.609  11.511  0.00  0.00    +0.000 A 
ATOM     24  C   UNL     1       7.147   3.434  12.577  0.00  0.00    +0.000 A 
ENDBRANCH  17  19
ENDBRANCH  15  17
ENDBRANCH   1  15
TORSDOF 3
ENDMDL
MODEL 3
REMARK VINA RESULT:      -8.2      1.577      2.538
REMARK  Name = 
REMARK  3 active torsions:
REMARK  status: ('A' for Active; 'I' for Inactive)
REMARK    1  A    between atoms: S_2  and  C_4
REMARK    2  A    between atoms: S_2  and  C_19
REMARK    3  A    between atoms: C_4  and  C_5
REMARK                            x       y       z     vdW  Elec       q    Type
REMARK                         _______ _______ _______ _____ _____    ______ ____
ROOT
ATOM      1  C   UNL     1       5.087   3.909  17.567  0.00  0.00    +0.000 C 
ATOM      2  C   UNL     1       3.801   3.950  16.680  0.00  0.00    +0.000 C 
ATOM      3  C   UNL     1       2.864   2.958  17.332  0.00  0.00    +0.000 C 
ATOM      4  C   UNL     1       3.325   2.401  18.668  0.00  0.00    +0.000 C 
ATOM      5  C   UNL     1       4.746   2.946  18.676  0.00  0.00    +0.000 C 
ATOM      6  C   UNL     1       4.575   4.437  18.891  0.00  0.00    +0.000 C 
ATOM      7  C   UNL     1       3.080   4.650  18.998  0.00  0.00    +0.000 C 
ATOM      8 BR   UNL     1       2.558   6.314  19.728  0.00  0.00    +0.000 Br
ATOM      9  C   UNL     1       2.685   4.435  17.560  0.00  0.00    +0.000 C 
ATOM     10  C   UNL     1       2.620   3.340  19.720  0.00  0.00    +0.000 C 
ATOM     11  O   UNL     1       1.201   3.165  19.779  0.00  0.00    +0.000 OA
ATOM     12  C   UNL     1       0.933   2.778  21.129  0.00  0.00    +0.000 C 
ATOM     13  C   UNL     1       2.087   3.336  21.916  0.00  0.00    +0.000 C 
ATOM     14  O   UNL     1       3.190   3.170  21.030  0.00  0.00    +0.000 OA
ENDROOT
BRANCH   1  15
ATOM     15  C   UNL     1       6.466   4.312  17.173  0.00  0.00    +0.000 C 
BRANCH  15  17
ATOM     16  O   UNL     1       5.024   6.287  16.153  0.00  0.00    +0.000 OA
ATOM     17  S   UNL     1       6.370   5.745  16.119  0.00  0.00    +0.000 S 
ATOM     18  O   UNL     1       7.525   6.592  16.355  0.00  0.00    +0.000 OA
BRANCH  17  19
ATOM     19  C   UNL     1       6.588   5.016  14.499  0.00  0.00    +0.000 A 
ATOM     20  C   UNL     1       7.635   5.452  13.683  0.00  0.00    +0.000 A 
ATOM     21  C   UNL     1       7.795   4.900  12.411  0.00  0.00    +0.000 A 
ATOM     22  C   UNL     1       6.915   3.912  11.965  0.00  0.00    +0.000 A 
ATOM     23  C   UNL     1       5.882   3.466  12.789  0.00  0.00    +0.000 A 
ATOM     24  C   UNL     1       5.717   4.011  14.064  0.00  0.00    +0.000 A 
ENDBRANCH  17  19
ENDBRANCH  15  17
ENDBRANCH   1  15
TORSDOF 3
ENDMDL
MODEL 4
REMARK VINA RESULT:      -8.1      0.953      1.107
REMARK  Name = 
REMARK  3 active torsions:
REMARK  status: ('A' for Active; 'I' for Inactive)
REMARK    1  A    between atoms: S_2  and  C_4
REMARK    2  A    between atoms: S_2  and  C_19
REMARK    3  A    between atoms: C_4  and  C_5
REMARK                            x       y       z     vdW  Elec       q    Type
REMARK                         _______ _______ _______ _____ _____    ______ ____
ROOT
ATOM      1  C   UNL     1       4.861   5.435  16.961  0.00  0.00    +0.000 C 
ATOM      2  C   UNL     1       5.804   5.159  18.177  0.00  0.00    +0.000 C 
ATOM      3  C   UNL     1       4.950   5.453  19.390  0.00  0.00    +0.000 C 
ATOM      4  C   UNL     1       3.480   5.715  19.108  0.00  0.00    +0.000 C 
ATOM      5  C   UNL     1       3.541   5.802  17.589  0.00  0.00    +0.000 C 
ATOM      6  C   UNL     1       3.795   4.376  17.142  0.00  0.00    +0.000 C 
ATOM      7  C   UNL     1       3.857   3.568  18.421  0.00  0.00    +0.000 C 
ATOM      8 BR   UNL     1       3.696   1.697  18.196  0.00  0.00    +0.000 Br
ATOM      9  C   UNL     1       5.187   4.032  18.955  0.00  0.00    +0.000 C 
ATOM     10  C   UNL     1       2.808   4.306  19.318  0.00  0.00    +0.000 C 
ATOM     11  O   UNL     1       2.795   3.880  20.684  0.00  0.00    +0.000 OA
ATOM     12  C   UNL     1       1.412   3.703  21.002  0.00  0.00    +0.000 C 
ATOM     13  C   UNL     1       0.752   3.437  19.675  0.00  0.00    +0.000 C 
ATOM     14  O   UNL     1       1.472   4.283  18.785  0.00  0.00    +0.000 OA
ENDROOT
BRANCH   1  15
ATOM     15  C   UNL     1       5.265   5.749  15.562  0.00  0.00    +0.000 C 
BRANCH  15  17
ATOM     16  O   UNL     1       7.812   5.701  14.837  0.00  0.00    +0.000 OA
ATOM     17  S   UNL     1       6.718   4.802  15.154  0.00  0.00    +0.000 S 
ATOM     18  O   UNL     1       6.882   3.734  16.125  0.00  0.00    +0.000 OA
BRANCH  17  19
ATOM     19  C   UNL     1       6.226   4.030  13.617  0.00  0.00    +0.000 A 
ATOM     20  C   UNL     1       4.867   3.867  13.332  0.00  0.00    +0.000 A 
ATOM     21  C   UNL     1       4.481   3.247  12.144  0.00  0.00    +0.000 A 
ATOM     22  C   UNL     1       5.449   2.801  11.243  0.00  0.00    +0.000 A 
ATOM     23  C   UNL     1       6.805   2.982  11.521  0.00  0.00    +0.000 A 
ATOM     24  C   UNL     1       7.200   3.605  12.707  0.00  0.00    +0.000 A 
ENDBRANCH  17  19
ENDBRANCH  15  17
ENDBRANCH   1  15
TORSDOF 3
ENDMDL
MODEL 5
REMARK VINA RESULT:      -8.0      1.077      1.294
REMARK  Name = 
REMARK  3 active torsions:
REMARK  status: ('A' for Active; 'I' for Inactive)
REMARK    1  A    between atoms: S_2  and  C_4
REMARK    2  A    between atoms: S_2  and  C_19
REMARK    3  A    between atoms: C_4  and  C_5
REMARK                            x       y       z     vdW  Elec       q    Type
REMARK                         _______ _______ _______ _____ _____    ______ ____
ROOT
ATOM      1  C   UNL     1       5.151   4.606  17.564  0.00  0.00    +0.000 C 
ATOM      2  C   UNL     1       4.940   5.605  18.748  0.00  0.00    +0.000 C 
ATOM      3  C   UNL     1       3.443   5.813  18.801  0.00  0.00    +0.000 C 
ATOM      4  C   UNL     1       2.623   4.910  17.896  0.00  0.00    +0.000 C 
ATOM      5  C   UNL     1       3.756   4.289  17.090  0.00  0.00    +0.000 C 
ATOM      6  C   UNL     1       4.450   3.363  18.070  0.00  0.00    +0.000 C 
ATOM      7  C   UNL     1       3.674   3.507  19.363  0.00  0.00    +0.000 C 
ATOM      8 BR   UNL     1       3.989   2.149  20.641  0.00  0.00    +0.000 Br
ATOM      9  C   UNL     1       4.116   4.886  19.778  0.00  0.00    +0.000 C 
ATOM     10  C   UNL     1       2.214   3.716  18.839  0.00  0.00    +0.000 C 
ATOM     11  O   UNL     1       1.271   4.087  19.850  0.00  0.00    +0.000 OA
ATOM     12  C   UNL     1       0.135   3.250  19.619  0.00  0.00    +0.000 C 
ATOM     13  C   UNL     1       0.692   2.046  18.909  0.00  0.00    +0.000 C 
ATOM     14  O   UNL     1       1.706   2.605  18.079  0.00  0.00    +0.000 OA
ENDROOT
BRANCH   1  15
ATOM     15  C   UNL     1       6.396   4.398  16.773  0.00  0.00    +0.000 C 
BRANCH  15  17
ATOM     16  O   UNL     1       5.376   6.556  15.624  0.00  0.00    +0.000 OA
ATOM     17  S   UNL     1       6.578   5.743  15.620  0.00  0.00    +0.000 S 
ATOM     18  O   UNL     1       7.889   6.344  15.788  0.00  0.00    +0.000 OA
BRANCH  17  19
ATOM     19  C   UNL     1       6.606   4.876  14.055  0.00  0.00    +0.000 A 
ATOM     20  C   UNL     1       5.630   3.912  13.784  0.00  0.00    +0.000 A 
ATOM     21  C   UNL     1       5.662   3.219  12.574  0.00  0.00    +0.000 A 
ATOM     22  C   UNL     1       6.659   3.496  11.637  0.00  0.00    +0.000 A 
ATOM     23  C   UNL     1       7.621   4.472  11.902  0.00  0.00    +0.000 A 
ATOM     24  C   UNL     1       7.595   5.172  13.111  0.00  0.00    +0.000 A 
ENDBRANCH  17  19
ENDBRANCH  15  17
ENDBRANCH   1  15
TORSDOF 3
ENDMDL
MODEL 6
REMARK VINA RESULT:      -7.6      2.675      3.962
REMARK  Name = 
REMARK  3 active torsions:
REMARK  status: ('A' for Active; 'I' for Inactive)
REMARK    1  A    between atoms: S_2  and  C_4
REMARK    2  A    between atoms: S_2  and  C_19
REMARK    3  A    between atoms: C_4  and  C_5
REMARK                            x       y       z     vdW  Elec       q    Type
REMARK                         _______ _______ _______ _____ _____    ______ ____
ROOT
ATOM      1  C   UNL     1       4.384   3.566  17.289  0.00  0.00    +0.000 C 
ATOM      2  C   UNL     1       2.953   3.534  16.663  0.00  0.00    +0.000 C 
ATOM      3  C   UNL     1       2.185   2.562  17.530  0.00  0.00    +0.000 C 
ATOM      4  C   UNL     1       2.906   2.088  18.780  0.00  0.00    +0.000 C 
ATOM      5  C   UNL     1       4.288   2.659  18.489  0.00  0.00    +0.000 C 
ATOM      6  C   UNL     1       4.118   4.156  18.658  0.00  0.00    +0.000 C 
ATOM      7  C   UNL     1       2.664   4.346  19.038  0.00  0.00    +0.000 C 
ATOM      8 BR   UNL     1       2.243   6.038  19.770  0.00  0.00    +0.000 Br
ATOM      9  C   UNL     1       2.010   4.046  17.714  0.00  0.00    +0.000 C 
ATOM     10  C   UNL     1       2.388   3.069  19.899  0.00  0.00    +0.000 C 
ATOM     11  O   UNL     1       1.011   2.870  20.236  0.00  0.00    +0.000 OA
ATOM     12  C   UNL     1       1.016   2.553  21.631  0.00  0.00    +0.000 C 
ATOM     13  C   UNL     1       2.282   3.175  22.154  0.00  0.00    +0.000 C 
ATOM     14  O   UNL     1       3.200   2.981  21.083  0.00  0.00    +0.000 OA
ENDROOT
BRANCH   1  15
ATOM     15  C   UNL     1       5.651   3.973  16.619  0.00  0.00    +0.000 C 
BRANCH  15  17
ATOM     16  O   UNL     1       6.036   5.864  14.805  0.00  0.00    +0.000 OA
ATOM     17  S   UNL     1       5.533   5.689  16.154  0.00  0.00    +0.000 S 
ATOM     18  O   UNL     1       4.231   6.202  16.541  0.00  0.00    +0.000 OA
BRANCH  17  19
ATOM     19  C   UNL     1       6.730   6.442  17.250  0.00  0.00    +0.000 A 
ATOM     20  C   UNL     1       7.277   5.690  18.294  0.00  0.00    +0.000 A 
ATOM     21  C   UNL     1       8.195   6.282  19.163  0.00  0.00    +0.000 A 
ATOM     22  C   UNL     1       8.569   7.615  18.981  0.00  0.00    +0.000 A 
ATOM     23  C   UNL     1       8.035   8.357  17.927  0.00  0.00    +0.000 A 
ATOM     24  C   UNL     1       7.118   7.772  17.051  0.00  0.00    +0.000 A 
ENDBRANCH  17  19
ENDBRANCH  15  17
ENDBRANCH   1  15
TORSDOF 3
ENDMDL
MODEL 7
REMARK VINA RESULT:      -7.6      1.997      3.257
REMARK  Name = 
REMARK  3 active torsions:
REMARK  status: ('A' for Active; 'I' for Inactive)
REMARK    1  A    between atoms: S_2  and  C_4
REMARK    2  A    between atoms: S_2  and  C_19
REMARK    3  A    between atoms: C_4  and  C_5
REMARK                            x       y       z     vdW  Elec       q    Type
REMARK                         _______ _______ _______ _____ _____    ______ ____
ROOT
ATOM      1  C   UNL     1       4.468   4.341  16.630  0.00  0.00    +0.000 C 
ATOM      2  C   UNL     1       4.450   5.549  17.621  0.00  0.00    +0.000 C 
ATOM      3  C   UNL     1       3.006   5.656  18.057  0.00  0.00    +0.000 C 
ATOM      4  C   UNL     1       2.099   4.526  17.603  0.00  0.00    +0.000 C 
ATOM      5  C   UNL     1       3.049   3.831  16.637  0.00  0.00    +0.000 C 
ATOM      6  C   UNL     1       4.089   3.186  17.533  0.00  0.00    +0.000 C 
ATOM      7  C   UNL     1       3.668   3.543  18.943  0.00  0.00    +0.000 C 
ATOM      8 BR   UNL     1       4.479   2.513  20.305  0.00  0.00    +0.000 Br
ATOM      9  C   UNL     1       4.025   5.007  18.956  0.00  0.00    +0.000 C 
ATOM     10  C   UNL     1       2.108   3.531  18.826  0.00  0.00    +0.000 C 
ATOM     11  O   UNL     1       1.425   4.039  19.977  0.00  0.00    +0.000 OA
ATOM     12  C   UNL     1       0.384   3.094  20.234  0.00  0.00    +0.000 C 
ATOM     13  C   UNL     1       0.884   1.810  19.628  0.00  0.00    +0.000 C 
ATOM     14  O   UNL     1       1.564   2.252  18.458  0.00  0.00    +0.000 OA
ENDROOT
BRANCH   1  15
ATOM     15  C   UNL     1       5.476   4.060  15.570  0.00  0.00    +0.000 C 
BRANCH  15  17
ATOM     16  O   UNL     1       7.479   5.258  14.316  0.00  0.00    +0.000 OA
ATOM     17  S   UNL     1       6.407   5.545  15.251  0.00  0.00    +0.000 S 
ATOM     18  O   UNL     1       5.488   6.646  15.023  0.00  0.00    +0.000 OA
BRANCH  17  19
ATOM     19  C   UNL     1       7.177   5.837  16.840  0.00  0.00    +0.000 A 
ATOM     20  C   UNL     1       7.517   4.750  17.650  0.00  0.00    +0.000 A 
ATOM     21  C   UNL     1       8.098   4.975  18.898  0.00  0.00    +0.000 A 
ATOM     22  C   UNL     1       8.345   6.280  19.328  0.00  0.00    +0.000 A 
ATOM     23  C   UNL     1       8.021   7.362  18.508  0.00  0.00    +0.000 A 
ATOM     24  C   UNL     1       7.442   7.146  17.256  0.00  0.00    +0.000 A 
ENDBRANCH  17  19
ENDBRANCH  15  17
ENDBRANCH   1  15
TORSDOF 3
ENDMDL
MODEL 8
REMARK VINA RESULT:      -7.5      1.386      1.892
REMARK  Name = 
REMARK  3 active torsions:
REMARK  status: ('A' for Active; 'I' for Inactive)
REMARK    1  A    between atoms: S_2  and  C_4
REMARK    2  A    between atoms: S_2  and  C_19
REMARK    3  A    between atoms: C_4  and  C_5
REMARK                            x       y       z     vdW  Elec       q    Type
REMARK                         _______ _______ _______ _____ _____    ______ ____
ROOT
ATOM      1  C   UNL     1       4.827   4.699  17.369  0.00  0.00    +0.000 C 
ATOM      2  C   UNL     1       4.660   3.200  16.960  0.00  0.00    +0.000 C 
ATOM      3  C   UNL     1       4.612   2.455  18.275  0.00  0.00    +0.000 C 
ATOM      4  C   UNL     1       4.542   3.324  19.518  0.00  0.00    +0.000 C 
ATOM      5  C   UNL     1       4.799   4.680  18.876  0.00  0.00    +0.000 C 
ATOM      6  C   UNL     1       3.530   4.974  18.100  0.00  0.00    +0.000 C 
ATOM      7  C   UNL     1       2.631   3.781  18.350  0.00  0.00    +0.000 C 
ATOM      8 BR   UNL     1       0.811   4.044  17.911  0.00  0.00    +0.000 Br
ATOM      9  C   UNL     1       3.342   2.744  17.519  0.00  0.00    +0.000 C 
ATOM     10  C   UNL     1       2.998   3.406  19.824  0.00  0.00    +0.000 C 
ATOM     11  O   UNL     1       2.440   2.167  20.275  0.00  0.00    +0.000 OA
ATOM     12  C   UNL     1       1.905   2.454  21.570  0.00  0.00    +0.000 C 
ATOM     13  C   UNL     1       1.629   3.933  21.544  0.00  0.00    +0.000 C 
ATOM     14  O   UNL     1       2.712   4.447  20.775  0.00  0.00    +0.000 OA
ENDROOT
BRANCH   1  15
ATOM     15  C   UNL     1       5.373   5.805  16.534  0.00  0.00    +0.000 C 
BRANCH  15  17
ATOM     16  O   UNL     1       7.836   6.727  16.212  0.00  0.00    +0.000 OA
ATOM     17  S   UNL     1       7.093   5.480  16.199  0.00  0.00    +0.000 S 
ATOM     18  O   UNL     1       7.527   4.341  16.988  0.00  0.00    +0.000 OA
BRANCH  17  19
ATOM     19  C   UNL     1       7.032   4.936  14.496  0.00  0.00    +0.000 A 
ATOM     20  C   UNL     1       6.141   3.924  14.127  0.00  0.00    +0.000 A 
ATOM     21  C   UNL     1       6.107   3.483  12.804  0.00  0.00    +0.000 A 
ATOM     22  C   UNL     1       6.954   4.058  11.855  0.00  0.00    +0.000 A 
ATOM     23  C   UNL     1       7.830   5.081  12.222  0.00  0.00    +0.000 A 
ATOM     24  C   UNL     1       7.868   5.530  13.544  0.00  0.00    +0.000 A 
ENDBRANCH  17  19
ENDBRANCH  15  17
ENDBRANCH   1  15
TORSDOF 3
ENDMDL
MODEL 9
REMARK VINA RESULT:      -7.4      2.027      3.314
REMARK  Name = 
REMARK  3 active torsions:
REMARK  status: ('A' for Active; 'I' for Inactive)
REMARK    1  A    between atoms: S_2  and  C_4
REMARK    2  A    between atoms: S_2  and  C_19
REMARK    3  A    between atoms: C_4  and  C_5
REMARK                            x       y       z     vdW  Elec       q    Type
REMARK                         _______ _______ _______ _____ _____    ______ ____
ROOT
ATOM      1  C   UNL     1       4.259   4.426  16.500  0.00  0.00    +0.000 C 
ATOM      2  C   UNL     1       4.188   5.712  17.385  0.00  0.00    +0.000 C 
ATOM      3  C   UNL     1       2.771   5.728  17.912  0.00  0.00    +0.000 C 
ATOM      4  C   UNL     1       1.949   4.485  17.619  0.00  0.00    +0.000 C 
ATOM      5  C   UNL     1       2.899   3.794  16.650  0.00  0.00    +0.000 C 
ATOM      6  C   UNL     1       4.049   3.328  17.521  0.00  0.00    +0.000 C 
ATOM      7  C   UNL     1       3.685   3.772  18.923  0.00  0.00    +0.000 C 
ATOM      8 BR   UNL     1       4.674   2.945  20.307  0.00  0.00    +0.000 Br
ATOM      9  C   UNL     1       3.901   5.257  18.788  0.00  0.00    +0.000 C 
ATOM     10  C   UNL     1       2.129   3.610  18.917  0.00  0.00    +0.000 C 
ATOM     11  O   UNL     1       1.474   4.156  20.067  0.00  0.00    +0.000 OA
ATOM     12  C   UNL     1       0.546   3.148  20.476  0.00  0.00    +0.000 C 
ATOM     13  C   UNL     1       1.127   1.865  19.946  0.00  0.00    +0.000 C 
ATOM     14  O   UNL     1       1.687   2.259  18.698  0.00  0.00    +0.000 OA
ENDROOT
BRANCH   1  15
ATOM     15  C   UNL     1       5.222   4.142  15.400  0.00  0.00    +0.000 C 
BRANCH  15  17
ATOM     16  O   UNL     1       7.269   5.281  14.163  0.00  0.00    +0.000 OA
ATOM     17  S   UNL     1       6.227   5.587  15.125  0.00  0.00    +0.000 S 
ATOM     18  O   UNL     1       5.366   6.744  14.955  0.00  0.00    +0.000 OA
BRANCH  17  19
ATOM     19  C   UNL     1       7.033   5.773  16.712  0.00  0.00    +0.000 A 
ATOM     20  C   UNL     1       7.281   7.054  17.213  0.00  0.00    +0.000 A 
ATOM     21  C   UNL     1       7.928   7.201  18.440  0.00  0.00    +0.000 A 
ATOM     22  C   UNL     1       8.315   6.073  19.165  0.00  0.00    +0.000 A 
ATOM     23  C   UNL     1       8.049   4.795  18.671  0.00  0.00    +0.000 A 
ATOM     24  C   UNL     1       7.399   4.638  17.444  0.00  0.00    +0.000 A 
ENDBRANCH  17  19
ENDBRANCH  15  17
ENDBRANCH   1  15
TORSDOF 3
ENDMDL
