MODEL 1
REMARK VINA RESULT:      -8.1      0.000      0.000
REMARK  Name = 
REMARK  9 active torsions:
REMARK  status: ('A' for Active; 'I' for Inactive)
REMARK    1  A    between atoms: C_1  and  C_2
REMARK    2  A    between atoms: C_5  and  C_6
REMARK    3  A    between atoms: N_7  and  O_8
REMARK    4  A    between atoms: N_9  and  C_10
REMARK    5  A    between atoms: C_13  and  O_14
REMARK    6  A    between atoms: O_14  and  C_15
REMARK    7  A    between atoms: C_19  and  C_20
REMARK    8  A    between atoms: C_20  and  C_21
REMARK    9  A    between atoms: C_20  and  C_22
REMARK                            x       y       z     vdW  Elec       q    Type
REMARK                         _______ _______ _______ _____ _____    ______ ____
ROOT
ATOM      1  C   UNL     1       0.335   2.572  19.667  0.00  0.00    +0.000 C 
ATOM      2  C   UNL     1       1.551   3.007  18.910  0.00  0.00    +0.000 A 
ATOM      3  C   UNL     1       2.208   2.161  18.034  0.00  0.00    +0.000 A 
ATOM      4  C   UNL     1       3.424   2.578  17.492  0.00  0.00    +0.000 A 
ATOM      5  C   UNL     1       3.993   3.811  17.860  0.00  0.00    +0.000 A 
ATOM      6  C   UNL     1       3.271   4.592  18.769  0.00  0.00    +0.000 A 
ATOM      7  N   UNL     1       2.038   4.223  19.227  0.00  0.00    +0.000 NA
ENDROOT
BRANCH   5   8
ATOM      8  C   UNL     1       5.372   4.140  17.320  0.00  0.00    +0.000 C 
ATOM      9  N   UNL     1       5.470   4.240  16.027  0.00  0.00    +0.000 NA
ATOM     10  N   UNL     1       6.368   4.309  18.288  0.00  0.00    +0.000 N 
ATOM     11  H   UNL     1       6.420   3.572  18.979  0.00  0.00    +0.000 HD
BRANCH  10  12
ATOM     12  C   UNL     1       7.568   5.122  18.095  0.00  0.00    +0.000 C 
ATOM     13  C   UNL     1       7.521   6.622  18.050  0.00  0.00    +0.000 C 
ATOM     14  C   UNL     1       8.110   5.935  19.244  0.00  0.00    +0.000 C 
ENDBRANCH  10  12
BRANCH   9  15
ATOM     15  O   UNL     1       6.774   4.461  15.582  0.00  0.00    +0.000 OA
ATOM     16  H   UNL     1       7.293   4.294  16.389  0.00  0.00    +0.000 HD
ENDBRANCH   9  15
ENDBRANCH   5   8
BRANCH   6  17
ATOM     17  O   UNL     1       3.766   5.794  19.264  0.00  0.00    +0.000 OA
BRANCH  17  18
ATOM     18  C   UNL     1       3.015   6.946  19.050  0.00  0.00    +0.000 A 
ATOM     19  C   UNL     1       2.946   7.602  17.815  0.00  0.00    +0.000 A 
ATOM     20  C   UNL     1       2.176   8.751  17.658  0.00  0.00    +0.000 A 
ATOM     21  C   UNL     1       1.398   9.214  18.714  0.00  0.00    +0.000 A 
ATOM     22  C   UNL     1       1.377   8.534  19.943  0.00  0.00    +0.000 A 
ATOM     23  C   UNL     1       2.223   7.415  20.111  0.00  0.00    +0.000 A 
BRANCH  22  24
ATOM     24  C   UNL     1       0.372   8.988  20.992  0.00  0.00    +0.000 C 
ATOM     25  C   UNL     1       1.033   9.162  22.359  0.00  0.00    +0.000 C 
ATOM     26  C   UNL     1      -0.410  10.239  20.594  0.00  0.00    +0.000 C 
ENDBRANCH  22  24
ENDBRANCH  17  18
ENDBRANCH   6  17
TORSDOF 6
ENDMDL
MODEL 2
REMARK VINA RESULT:      -7.7      1.238      1.926
REMARK  Name = 
REMARK  9 active torsions:
REMARK  status: ('A' for Active; 'I' for Inactive)
REMARK    1  A    between atoms: C_1  and  C_2
REMARK    2  A    between atoms: C_5  and  C_6
REMARK    3  A    between atoms: N_7  and  O_8
REMARK    4  A    between atoms: N_9  and  C_10
REMARK    5  A    between atoms: C_13  and  O_14
REMARK    6  A    between atoms: O_14  and  C_15
REMARK    7  A    between atoms: C_19  and  C_20
REMARK    8  A    between atoms: C_20  and  C_21
REMARK    9  A    between atoms: C_20  and  C_22
REMARK                            x       y       z     vdW  Elec       q    Type
REMARK                         _______ _______ _______ _____ _____    ______ ____
ROOT
ATOM      1  C   UNL     1       0.583   2.966  18.721  0.00  0.00    +0.000 C 
ATOM      2  C   UNL     1       1.894   3.390  18.136  0.00  0.00    +0.000 A 
ATOM      3  C   UNL     1       2.899   2.481  17.857  0.00  0.00    +0.000 A 
ATOM      4  C   UNL     1       4.148   2.967  17.469  0.00  0.00    +0.000 A 
ATOM      5  C   UNL     1       4.395   4.350  17.405  0.00  0.00    +0.000 A 
ATOM      6  C   UNL     1       3.329   5.197  17.726  0.00  0.00    +0.000 A 
ATOM      7  N   UNL     1       2.082   4.720  18.016  0.00  0.00    +0.000 NA
ENDROOT
BRANCH   5   8
ATOM      8  C   UNL     1       5.810   4.799  17.090  0.00  0.00    +0.000 C 
ATOM      9  N   UNL     1       6.443   4.104  16.192  0.00  0.00    +0.000 NA
ATOM     10  N   UNL     1       6.254   5.919  17.803  0.00  0.00    +0.000 N 
ATOM     11  H   UNL     1       6.105   5.875  18.802  0.00  0.00    +0.000 HD
BRANCH  10  12
ATOM     12  C   UNL     1       7.290   6.834  17.327  0.00  0.00    +0.000 C 
ATOM     13  C   UNL     1       7.237   8.311  17.590  0.00  0.00    +0.000 C 
ATOM     14  C   UNL     1       8.238   7.465  18.315  0.00  0.00    +0.000 C 
ENDBRANCH  10  12
BRANCH   9  15
ATOM     15  O   UNL     1       7.765   4.508  16.004  0.00  0.00    +0.000 OA
ATOM     16  H   UNL     1       7.656   5.308  15.459  0.00  0.00    +0.000 HD
ENDBRANCH   9  15
ENDBRANCH   5   8
BRANCH   6  17
ATOM     17  O   UNL     1       3.474   6.579  17.770  0.00  0.00    +0.000 OA
BRANCH  17  18
ATOM     18  C   UNL     1       2.622   7.298  18.603  0.00  0.00    +0.000 A 
ATOM     19  C   UNL     1       2.416   6.983  19.952  0.00  0.00    +0.000 A 
ATOM     20  C   UNL     1       1.552   7.740  20.738  0.00  0.00    +0.000 A 
ATOM     21  C   UNL     1       0.943   8.873  20.208  0.00  0.00    +0.000 A 
ATOM     22  C   UNL     1       1.190   9.268  18.883  0.00  0.00    +0.000 A 
ATOM     23  C   UNL     1       2.008   8.447  18.074  0.00  0.00    +0.000 A 
BRANCH  22  24
ATOM     24  C   UNL     1       0.637  10.610  18.423  0.00  0.00    +0.000 C 
ATOM     25  C   UNL     1      -0.881  10.671  18.582  0.00  0.00    +0.000 C 
ATOM     26  C   UNL     1       1.311  11.810  19.086  0.00  0.00    +0.000 C 
ENDBRANCH  22  24
ENDBRANCH  17  18
ENDBRANCH   6  17
TORSDOF 6
ENDMDL
MODEL 3
REMARK VINA RESULT:      -7.6      1.810      4.504
REMARK  Name = 
REMARK  9 active torsions:
REMARK  status: ('A' for Active; 'I' for Inactive)
REMARK    1  A    between atoms: C_1  and  C_2
REMARK    2  A    between atoms: C_5  and  C_6
REMARK    3  A    between atoms: N_7  and  O_8
REMARK    4  A    between atoms: N_9  and  C_10
REMARK    5  A    between atoms: C_13  and  O_14
REMARK    6  A    between atoms: O_14  and  C_15
REMARK    7  A    between atoms: C_19  and  C_20
REMARK    8  A    between atoms: C_20  and  C_21
REMARK    9  A    between atoms: C_20  and  C_22
REMARK                            x       y       z     vdW  Elec       q    Type
REMARK                         _______ _______ _______ _____ _____    ______ ____
ROOT
ATOM      1  C   UNL     1       7.705   7.844  17.334  0.00  0.00    +0.000 C 
ATOM      2  C   UNL     1       6.738   6.799  17.796  0.00  0.00    +0.000 A 
ATOM      3  C   UNL     1       7.157   5.551  18.221  0.00  0.00    +0.000 A 
ATOM      4  C   UNL     1       6.192   4.576  18.480  0.00  0.00    +0.000 A 
ATOM      5  C   UNL     1       4.826   4.841  18.272  0.00  0.00    +0.000 A 
ATOM      6  C   UNL     1       4.494   6.122  17.818  0.00  0.00    +0.000 A 
ATOM      7  N   UNL     1       5.431   7.102  17.654  0.00  0.00    +0.000 NA
ENDROOT
BRANCH   5   8
ATOM      8  C   UNL     1       3.850   3.695  18.461  0.00  0.00    +0.000 C 
ATOM      9  N   UNL     1       3.951   2.713  17.615  0.00  0.00    +0.000 NA
ATOM     10  N   UNL     1       2.966   3.834  19.538  0.00  0.00    +0.000 N 
ATOM     11  H   UNL     1       2.488   4.725  19.584  0.00  0.00    +0.000 HD
BRANCH  10  12
ATOM     12  C   UNL     1       2.345   2.711  20.238  0.00  0.00    +0.000 C 
ATOM     13  C   UNL     1       2.032   2.756  21.705  0.00  0.00    +0.000 C 
ATOM     14  C   UNL     1       0.917   2.825  20.708  0.00  0.00    +0.000 C 
ENDBRANCH  10  12
BRANCH   9  15
ATOM     15  O   UNL     1       2.977   1.729  17.785  0.00  0.00    +0.000 OA
ATOM     16  H   UNL     1       2.494   1.777  16.941  0.00  0.00    +0.000 HD
ENDBRANCH   9  15
ENDBRANCH   5   8
BRANCH   6  17
ATOM     17  O   UNL     1       3.186   6.477  17.506  0.00  0.00    +0.000 OA
BRANCH  17  18
ATOM     18  C   UNL     1       2.493   7.274  18.412  0.00  0.00    +0.000 A 
ATOM     19  C   UNL     1       2.365   6.963  19.771  0.00  0.00    +0.000 A 
ATOM     20  C   UNL     1       1.661   7.800  20.633  0.00  0.00    +0.000 A 
ATOM     21  C   UNL     1       1.143   9.002  20.163  0.00  0.00    +0.000 A 
ATOM     22  C   UNL     1       1.323   9.387  18.825  0.00  0.00    +0.000 A 
ATOM     23  C   UNL     1       1.972   8.492  17.945  0.00  0.00    +0.000 A 
BRANCH  22  24
ATOM     24  C   UNL     1       0.890  10.790  18.422  0.00  0.00    +0.000 C 
ATOM     25  C   UNL     1      -0.288  11.274  19.267  0.00  0.00    +0.000 C 
ATOM     26  C   UNL     1       2.028  11.809  18.426  0.00  0.00    +0.000 C 
ENDBRANCH  22  24
ENDBRANCH  17  18
ENDBRANCH   6  17
TORSDOF 6
ENDMDL
MODEL 4
REMARK VINA RESULT:      -7.6      1.751      4.215
REMARK  Name = 
REMARK  9 active torsions:
REMARK  status: ('A' for Active; 'I' for Inactive)
REMARK    1  A    between atoms: C_1  and  C_2
REMARK    2  A    between atoms: C_5  and  C_6
REMARK    3  A    between atoms: N_7  and  O_8
REMARK    4  A    between atoms: N_9  and  C_10
REMARK    5  A    between atoms: C_13  and  O_14
REMARK    6  A    between atoms: O_14  and  C_15
REMARK    7  A    between atoms: C_19  and  C_20
REMARK    8  A    between atoms: C_20  and  C_21
REMARK    9  A    between atoms: C_20  and  C_22
REMARK                            x       y       z     vdW  Elec       q    Type
REMARK                         _______ _______ _______ _____ _____    ______ ____
ROOT
ATOM      1  C   UNL     1       7.600   7.702  17.379  0.00  0.00    +0.000 C 
ATOM      2  C   UNL     1       6.652   6.658  17.880  0.00  0.00    +0.000 A 
ATOM      3  C   UNL     1       7.093   5.433  18.350  0.00  0.00    +0.000 A 
ATOM      4  C   UNL     1       6.145   4.452  18.644  0.00  0.00    +0.000 A 
ATOM      5  C   UNL     1       4.775   4.685  18.428  0.00  0.00    +0.000 A 
ATOM      6  C   UNL     1       4.420   5.942  17.929  0.00  0.00    +0.000 A 
ATOM      7  N   UNL     1       5.340   6.932  17.728  0.00  0.00    +0.000 NA
ENDROOT
BRANCH   5   8
ATOM      8  C   UNL     1       3.819   3.530  18.660  0.00  0.00    +0.000 C 
ATOM      9  N   UNL     1       4.149   2.397  18.113  0.00  0.00    +0.000 NA
ATOM     10  N   UNL     1       2.702   3.827  19.450  0.00  0.00    +0.000 N 
ATOM     11  H   UNL     1       2.198   4.661  19.178  0.00  0.00    +0.000 HD
BRANCH  10  12
ATOM     12  C   UNL     1       1.970   2.837  20.238  0.00  0.00    +0.000 C 
ATOM     13  C   UNL     1       2.491   2.308  21.543  0.00  0.00    +0.000 C 
ATOM     14  C   UNL     1       1.325   3.249  21.537  0.00  0.00    +0.000 C 
ENDBRANCH  10  12
BRANCH   9  15
ATOM     15  O   UNL     1       3.195   1.395  18.287  0.00  0.00    +0.000 OA
ATOM     16  H   UNL     1       2.740   1.397  17.426  0.00  0.00    +0.000 HD
ENDBRANCH   9  15
ENDBRANCH   5   8
BRANCH   6  17
ATOM     17  O   UNL     1       3.106   6.263  17.605  0.00  0.00    +0.000 OA
BRANCH  17  18
ATOM     18  C   UNL     1       2.547   7.394  18.192  0.00  0.00    +0.000 A 
ATOM     19  C   UNL     1       2.278   8.574  17.487  0.00  0.00    +0.000 A 
ATOM     20  C   UNL     1       1.715   9.675  18.126  0.00  0.00    +0.000 A 
ATOM     21  C   UNL     1       1.337   9.584  19.462  0.00  0.00    +0.000 A 
ATOM     22  C   UNL     1       1.516   8.390  20.179  0.00  0.00    +0.000 A 
ATOM     23  C   UNL     1       2.159   7.306  19.540  0.00  0.00    +0.000 A 
BRANCH  22  24
ATOM     24  C   UNL     1       0.920   8.301  21.578  0.00  0.00    +0.000 C 
ATOM     25  C   UNL     1       1.546   9.331  22.517  0.00  0.00    +0.000 C 
ATOM     26  C   UNL     1      -0.605   8.387  21.601  0.00  0.00    +0.000 C 
ENDBRANCH  22  24
ENDBRANCH  17  18
ENDBRANCH   6  17
TORSDOF 6
ENDMDL
MODEL 5
REMARK VINA RESULT:      -7.6      0.796      1.065
REMARK  Name = 
REMARK  9 active torsions:
REMARK  status: ('A' for Active; 'I' for Inactive)
REMARK    1  A    between atoms: C_1  and  C_2
REMARK    2  A    between atoms: C_5  and  C_6
REMARK    3  A    between atoms: N_7  and  O_8
REMARK    4  A    between atoms: N_9  and  C_10
REMARK    5  A    between atoms: C_13  and  O_14
REMARK    6  A    between atoms: O_14  and  C_15
REMARK    7  A    between atoms: C_19  and  C_20
REMARK    8  A    between atoms: C_20  and  C_21
REMARK    9  A    between atoms: C_20  and  C_22
REMARK                            x       y       z     vdW  Elec       q    Type
REMARK                         _______ _______ _______ _____ _____    ______ ____
ROOT
ATOM      1  C   UNL     1       0.987   2.513  21.098  0.00  0.00    +0.000 C 
ATOM      2  C   UNL     1       1.909   2.990  20.020  0.00  0.00    +0.000 A 
ATOM      3  C   UNL     1       2.407   2.137  19.051  0.00  0.00    +0.000 A 
ATOM      4  C   UNL     1       3.387   2.616  18.181  0.00  0.00    +0.000 A 
ATOM      5  C   UNL     1       3.890   3.923  18.311  0.00  0.00    +0.000 A 
ATOM      6  C   UNL     1       3.348   4.709  19.333  0.00  0.00    +0.000 A 
ATOM      7  N   UNL     1       2.324   4.269  20.124  0.00  0.00    +0.000 NA
ENDROOT
BRANCH   5   8
ATOM      8  C   UNL     1       5.037   4.329  17.404  0.00  0.00    +0.000 C 
ATOM      9  N   UNL     1       4.822   4.218  16.127  0.00  0.00    +0.000 NA
ATOM     10  N   UNL     1       6.185   4.788  18.061  0.00  0.00    +0.000 N 
ATOM     11  H   UNL     1       6.513   4.193  18.811  0.00  0.00    +0.000 HD
BRANCH  10  12
ATOM     12  C   UNL     1       7.158   5.704  17.467  0.00  0.00    +0.000 C 
ATOM     13  C   UNL     1       6.865   7.162  17.265  0.00  0.00    +0.000 C 
ATOM     14  C   UNL     1       7.829   6.740  18.331  0.00  0.00    +0.000 C 
ENDBRANCH  10  12
BRANCH   9  15
ATOM     15  O   UNL     1       5.936   4.525  15.345  0.00  0.00    +0.000 OA
ATOM     16  H   UNL     1       6.638   4.600  16.016  0.00  0.00    +0.000 HD
ENDBRANCH   9  15
ENDBRANCH   5   8
BRANCH   6  17
ATOM     17  O   UNL     1       3.817   5.989  19.606  0.00  0.00    +0.000 OA
BRANCH  17  18
ATOM     18  C   UNL     1       3.039   7.069  19.201  0.00  0.00    +0.000 A 
ATOM     19  C   UNL     1       2.961   7.507  17.873  0.00  0.00    +0.000 A 
ATOM     20  C   UNL     1       2.163   8.593  17.525  0.00  0.00    +0.000 A 
ATOM     21  C   UNL     1       1.369   9.208  18.488  0.00  0.00    +0.000 A 
ATOM     22  C   UNL     1       1.358   8.744  19.813  0.00  0.00    +0.000 A 
ATOM     23  C   UNL     1       2.231   7.690  20.168  0.00  0.00    +0.000 A 
BRANCH  22  24
ATOM     24  C   UNL     1       0.337   9.342  20.771  0.00  0.00    +0.000 C 
ATOM     25  C   UNL     1      -0.673  10.220  20.032  0.00  0.00    +0.000 C 
ATOM     26  C   UNL     1      -0.368   8.304  21.643  0.00  0.00    +0.000 C 
ENDBRANCH  22  24
ENDBRANCH  17  18
ENDBRANCH   6  17
TORSDOF 6
ENDMDL
MODEL 6
REMARK VINA RESULT:      -7.3      2.313      6.540
REMARK  Name = 
REMARK  9 active torsions:
REMARK  status: ('A' for Active; 'I' for Inactive)
REMARK    1  A    between atoms: C_1  and  C_2
REMARK    2  A    between atoms: C_5  and  C_6
REMARK    3  A    between atoms: N_7  and  O_8
REMARK    4  A    between atoms: N_9  and  C_10
REMARK    5  A    between atoms: C_13  and  O_14
REMARK    6  A    between atoms: O_14  and  C_15
REMARK    7  A    between atoms: C_19  and  C_20
REMARK    8  A    between atoms: C_20  and  C_21
REMARK    9  A    between atoms: C_20  and  C_22
REMARK                            x       y       z     vdW  Elec       q    Type
REMARK                         _______ _______ _______ _____ _____    ______ ____
ROOT
ATOM      1  C   UNL     1       1.951   1.766  19.197  0.00  0.00    +0.000 C 
ATOM      2  C   UNL     1       2.045   3.221  19.532  0.00  0.00    +0.000 A 
ATOM      3  C   UNL     1       1.284   3.792  20.537  0.00  0.00    +0.000 A 
ATOM      4  C   UNL     1       1.303   5.180  20.682  0.00  0.00    +0.000 A 
ATOM      5  C   UNL     1       2.045   5.986  19.799  0.00  0.00    +0.000 A 
ATOM      6  C   UNL     1       2.767   5.327  18.798  0.00  0.00    +0.000 A 
ATOM      7  N   UNL     1       2.819   3.964  18.716  0.00  0.00    +0.000 NA
ENDROOT
BRANCH   5   8
ATOM      8  C   UNL     1       1.922   7.491  19.948  0.00  0.00    +0.000 C 
ATOM      9  N   UNL     1       1.942   8.177  18.844  0.00  0.00    +0.000 NA
ATOM     10  N   UNL     1       1.786   7.953  21.262  0.00  0.00    +0.000 N 
ATOM     11  H   UNL     1       2.464   7.582  21.916  0.00  0.00    +0.000 HD
BRANCH  10  12
ATOM     12  C   UNL     1       1.134   9.210  21.626  0.00  0.00    +0.000 C 
ATOM     13  C   UNL     1      -0.356   9.328  21.764  0.00  0.00    +0.000 C 
ATOM     14  C   UNL     1       0.506   9.356  22.988  0.00  0.00    +0.000 C 
ENDBRANCH  10  12
BRANCH   9  15
ATOM     15  O   UNL     1       1.909   9.557  19.044  0.00  0.00    +0.000 OA
ATOM     16  H   UNL     1       1.793   9.890  18.137  0.00  0.00    +0.000 HD
ENDBRANCH   9  15
ENDBRANCH   5   8
BRANCH   6  17
ATOM     17  O   UNL     1       3.476   6.021  17.824  0.00  0.00    +0.000 OA
BRANCH  17  18
ATOM     18  C   UNL     1       4.770   5.598  17.534  0.00  0.00    +0.000 A 
ATOM     19  C   UNL     1       5.755   5.409  18.511  0.00  0.00    +0.000 A 
ATOM     20  C   UNL     1       7.034   4.982  18.164  0.00  0.00    +0.000 A 
ATOM     21  C   UNL     1       7.322   4.659  16.842  0.00  0.00    +0.000 A 
ATOM     22  C   UNL     1       6.335   4.756  15.847  0.00  0.00    +0.000 A 
ATOM     23  C   UNL     1       5.065   5.264  16.202  0.00  0.00    +0.000 A 
BRANCH  22  24
ATOM     24  C   UNL     1       6.664   4.217  14.461  0.00  0.00    +0.000 C 
ATOM     25  C   UNL     1       5.394   3.909  13.669  0.00  0.00    +0.000 C 
ATOM     26  C   UNL     1       7.609   5.113  13.663  0.00  0.00    +0.000 C 
ENDBRANCH  22  24
ENDBRANCH  17  18
ENDBRANCH   6  17
TORSDOF 6
ENDMDL
MODEL 7
REMARK VINA RESULT:      -7.3      1.518      1.810
REMARK  Name = 
REMARK  9 active torsions:
REMARK  status: ('A' for Active; 'I' for Inactive)
REMARK    1  A    between atoms: C_1  and  C_2
REMARK    2  A    between atoms: C_5  and  C_6
REMARK    3  A    between atoms: N_7  and  O_8
REMARK    4  A    between atoms: N_9  and  C_10
REMARK    5  A    between atoms: C_13  and  O_14
REMARK    6  A    between atoms: O_14  and  C_15
REMARK    7  A    between atoms: C_19  and  C_20
REMARK    8  A    between atoms: C_20  and  C_21
REMARK    9  A    between atoms: C_20  and  C_22
REMARK                            x       y       z     vdW  Elec       q    Type
REMARK                         _______ _______ _______ _____ _____    ______ ____
ROOT
ATOM      1  C   UNL     1       0.480   2.548  18.768  0.00  0.00    +0.000 C 
ATOM      2  C   UNL     1       1.780   3.285  18.680  0.00  0.00    +0.000 A 
ATOM      3  C   UNL     1       2.913   2.708  18.135  0.00  0.00    +0.000 A 
ATOM      4  C   UNL     1       4.125   3.393  18.237  0.00  0.00    +0.000 A 
ATOM      5  C   UNL     1       4.203   4.623  18.916  0.00  0.00    +0.000 A 
ATOM      6  C   UNL     1       3.013   5.121  19.458  0.00  0.00    +0.000 A 
ATOM      7  N   UNL     1       1.812   4.494  19.277  0.00  0.00    +0.000 NA
ENDROOT
BRANCH   5   8
ATOM      8  C   UNL     1       5.575   5.247  19.087  0.00  0.00    +0.000 C 
ATOM      9  N   UNL     1       6.325   4.732  20.016  0.00  0.00    +0.000 NA
ATOM     10  N   UNL     1       5.867   6.297  18.209  0.00  0.00    +0.000 N 
ATOM     11  H   UNL     1       5.153   7.011  18.145  0.00  0.00    +0.000 HD
BRANCH  10  12
ATOM     12  C   UNL     1       7.221   6.676  17.808  0.00  0.00    +0.000 C 
ATOM     13  C   UNL     1       7.543   7.148  16.419  0.00  0.00    +0.000 C 
ATOM     14  C   UNL     1       7.544   8.127  17.554  0.00  0.00    +0.000 C 
ENDBRANCH  10  12
BRANCH   9  15
ATOM     15  O   UNL     1       7.539   5.397  20.184  0.00  0.00    +0.000 OA
ATOM     16  H   UNL     1       7.556   5.986  19.408  0.00  0.00    +0.000 HD
ENDBRANCH   9  15
ENDBRANCH   5   8
BRANCH   6  17
ATOM     17  O   UNL     1       2.979   6.287  20.214  0.00  0.00    +0.000 OA
BRANCH  17  18
ATOM     18  C   UNL     1       2.373   7.409  19.656  0.00  0.00    +0.000 A 
ATOM     19  C   UNL     1       2.476   7.746  18.301  0.00  0.00    +0.000 A 
ATOM     20  C   UNL     1       1.846   8.880  17.797  0.00  0.00    +0.000 A 
ATOM     21  C   UNL     1       1.034   9.649  18.625  0.00  0.00    +0.000 A 
ATOM     22  C   UNL     1       0.839   9.294  19.970  0.00  0.00    +0.000 A 
ATOM     23  C   UNL     1       1.547   8.186  20.486  0.00  0.00    +0.000 A 
BRANCH  22  24
ATOM     24  C   UNL     1      -0.198  10.070  20.770  0.00  0.00    +0.000 C 
ATOM     25  C   UNL     1       0.087   9.999  22.269  0.00  0.00    +0.000 C 
ATOM     26  C   UNL     1      -0.373  11.516  20.308  0.00  0.00    +0.000 C 
ENDBRANCH  22  24
ENDBRANCH  17  18
ENDBRANCH   6  17
TORSDOF 6
ENDMDL
MODEL 8
REMARK VINA RESULT:      -7.3      1.762      2.700
REMARK  Name = 
REMARK  9 active torsions:
REMARK  status: ('A' for Active; 'I' for Inactive)
REMARK    1  A    between atoms: C_1  and  C_2
REMARK    2  A    between atoms: C_5  and  C_6
REMARK    3  A    between atoms: N_7  and  O_8
REMARK    4  A    between atoms: N_9  and  C_10
REMARK    5  A    between atoms: C_13  and  O_14
REMARK    6  A    between atoms: O_14  and  C_15
REMARK    7  A    between atoms: C_19  and  C_20
REMARK    8  A    between atoms: C_20  and  C_21
REMARK    9  A    between atoms: C_20  and  C_22
REMARK                            x       y       z     vdW  Elec       q    Type
REMARK                         _______ _______ _______ _____ _____    ______ ____
ROOT
ATOM      1  C   UNL     1       0.507   2.869  19.436  0.00  0.00    +0.000 C 
ATOM      2  C   UNL     1       1.682   3.164  18.557  0.00  0.00    +0.000 A 
ATOM      3  C   UNL     1       2.529   2.165  18.107  0.00  0.00    +0.000 A 
ATOM      4  C   UNL     1       3.693   2.533  17.431  0.00  0.00    +0.000 A 
ATOM      5  C   UNL     1       4.022   3.889  17.247  0.00  0.00    +0.000 A 
ATOM      6  C   UNL     1       3.121   4.831  17.754  0.00  0.00    +0.000 A 
ATOM      7  N   UNL     1       1.938   4.469  18.334  0.00  0.00    +0.000 NA
ENDROOT
BRANCH   5   8
ATOM      8  C   UNL     1       5.360   4.208  16.608  0.00  0.00    +0.000 C 
ATOM      9  N   UNL     1       6.352   4.401  17.426  0.00  0.00    +0.000 NA
ATOM     10  N   UNL     1       5.362   4.241  15.209  0.00  0.00    +0.000 N 
ATOM     11  H   UNL     1       4.624   4.798  14.795  0.00  0.00    +0.000 HD
BRANCH  10  12
ATOM     12  C   UNL     1       6.542   3.988  14.385  0.00  0.00    +0.000 C 
ATOM     13  C   UNL     1       6.452   3.757  12.904  0.00  0.00    +0.000 C 
ATOM     14  C   UNL     1       7.019   5.044  13.420  0.00  0.00    +0.000 C 
ENDBRANCH  10  12
BRANCH   9  15
ATOM     15  O   UNL     1       7.536   4.772  16.789  0.00  0.00    +0.000 OA
ATOM     16  H   UNL     1       7.426   5.736  16.705  0.00  0.00    +0.000 HD
ENDBRANCH   9  15
ENDBRANCH   5   8
BRANCH   6  17
ATOM     17  O   UNL     1       3.374   6.197  17.699  0.00  0.00    +0.000 OA
BRANCH  17  18
ATOM     18  C   UNL     1       2.625   7.034  18.520  0.00  0.00    +0.000 A 
ATOM     19  C   UNL     1       2.481   6.832  19.899  0.00  0.00    +0.000 A 
ATOM     20  C   UNL     1       1.720   7.704  20.672  0.00  0.00    +0.000 A 
ATOM     21  C   UNL     1       1.158   8.836  20.093  0.00  0.00    +0.000 A 
ATOM     22  C   UNL     1       1.349   9.116  18.730  0.00  0.00    +0.000 A 
ATOM     23  C   UNL     1       2.059   8.182  17.941  0.00  0.00    +0.000 A 
BRANCH  22  24
ATOM     24  C   UNL     1       0.861  10.457  18.200  0.00  0.00    +0.000 C 
ATOM     25  C   UNL     1      -0.645  10.621  18.403  0.00  0.00    +0.000 C 
ATOM     26  C   UNL     1       1.628  11.654  18.761  0.00  0.00    +0.000 C 
ENDBRANCH  22  24
ENDBRANCH  17  18
ENDBRANCH   6  17
TORSDOF 6
ENDMDL
MODEL 9
REMARK VINA RESULT:      -7.3      1.719      4.624
REMARK  Name = 
REMARK  9 active torsions:
REMARK  status: ('A' for Active; 'I' for Inactive)
REMARK    1  A    between atoms: C_1  and  C_2
REMARK    2  A    between atoms: C_5  and  C_6
REMARK    3  A    between atoms: N_7  and  O_8
REMARK    4  A    between atoms: N_9  and  C_10
REMARK    5  A    between atoms: C_13  and  O_14
REMARK    6  A    between atoms: O_14  and  C_15
REMARK    7  A    between atoms: C_19  and  C_20
REMARK    8  A    between atoms: C_20  and  C_21
REMARK    9  A    between atoms: C_20  and  C_22
REMARK                            x       y       z     vdW  Elec       q    Type
REMARK                         _______ _______ _______ _____ _____    ______ ____
ROOT
ATOM      1  C   UNL     1       7.644   8.182  17.156  0.00  0.00    +0.000 C 
ATOM      2  C   UNL     1       6.875   7.064  17.785  0.00  0.00    +0.000 A 
ATOM      3  C   UNL     1       7.503   5.950  18.315  0.00  0.00    +0.000 A 
ATOM      4  C   UNL     1       6.715   4.878  18.735  0.00  0.00    +0.000 A 
ATOM      5  C   UNL     1       5.317   4.908  18.584  0.00  0.00    +0.000 A 
ATOM      6  C   UNL     1       4.768   6.063  18.018  0.00  0.00    +0.000 A 
ATOM      7  N   UNL     1       5.532   7.148  17.693  0.00  0.00    +0.000 NA
ENDROOT
BRANCH   5   8
ATOM      8  C   UNL     1       4.542   3.657  18.955  0.00  0.00    +0.000 C 
ATOM      9  N   UNL     1       5.244   2.668  19.423  0.00  0.00    +0.000 NA
ATOM     10  N   UNL     1       3.158   3.731  18.757  0.00  0.00    +0.000 N 
ATOM     11  H   UNL     1       2.875   4.073  17.848  0.00  0.00    +0.000 HD
BRANCH  10  12
ATOM     12  C   UNL     1       2.181   2.936  19.500  0.00  0.00    +0.000 C 
ATOM     13  C   UNL     1       0.856   3.494  19.931  0.00  0.00    +0.000 C 
ATOM     14  C   UNL     1       0.911   2.491  18.820  0.00  0.00    +0.000 C 
ENDBRANCH  10  12
BRANCH   9  15
ATOM     15  O   UNL     1       4.493   1.518  19.667  0.00  0.00    +0.000 OA
ATOM     16  H   UNL     1       4.812   1.252  20.548  0.00  0.00    +0.000 HD
ENDBRANCH   9  15
ENDBRANCH   5   8
BRANCH   6  17
ATOM     17  O   UNL     1       3.408   6.178  17.751  0.00  0.00    +0.000 OA
BRANCH  17  18
ATOM     18  C   UNL     1       2.651   7.010  18.570  0.00  0.00    +0.000 A 
ATOM     19  C   UNL     1       2.509   6.812  19.949  0.00  0.00    +0.000 A 
ATOM     20  C   UNL     1       1.740   7.679  20.720  0.00  0.00    +0.000 A 
ATOM     21  C   UNL     1       1.167   8.804  20.137  0.00  0.00    +0.000 A 
ATOM     22  C   UNL     1       1.356   9.081  18.773  0.00  0.00    +0.000 A 
ATOM     23  C   UNL     1       2.074   8.151  17.987  0.00  0.00    +0.000 A 
BRANCH  22  24
ATOM     24  C   UNL     1       0.856  10.416  18.240  0.00  0.00    +0.000 C 
ATOM     25  C   UNL     1      -0.667  10.431  18.116  0.00  0.00    +0.000 C 
ATOM     26  C   UNL     1       1.357  11.621  19.034  0.00  0.00    +0.000 C 
ENDBRANCH  22  24
ENDBRANCH  17  18
ENDBRANCH   6  17
TORSDOF 6
ENDMDL
