MODEL 1
REMARK VINA RESULT:      -6.9      0.000      0.000
REMARK  Name = 
REMARK  14 active torsions:
REMARK  status: ('A' for Active; 'I' for Inactive)
REMARK    1  A    between atoms: C_1  and  C_2
REMARK    2  A    between atoms: C_2  and  C_3
REMARK    3  A    between atoms: C_3  and  C_4
REMARK    4  A    between atoms: C_4  and  C_5
REMARK    5  A    between atoms: C_5  and  C_6
REMARK    6  A    between atoms: C_6  and  C_7
REMARK    7  A    between atoms: C_7  and  C_8
REMARK    8  A    between atoms: C_8  and  C_9
REMARK    9  A    between atoms: C_9  and  C_10
REMARK   10  A    between atoms: C_10  and  N_11
REMARK   11  A    between atoms: C_16  and  O_17
REMARK   12  A    between atoms: C_18  and  O_19
REMARK   13  A    between atoms: C_20  and  C_21
REMARK   14  A    between atoms: C_21  and  O_22
REMARK                            x       y       z     vdW  Elec       q    Type
REMARK                         _______ _______ _______ _____ _____    ______ ____
ROOT
ATOM      1  N   UNL     1       3.980   5.178  17.181  0.00  0.00    +0.000 NA
ATOM      2  C   UNL     1       3.409   5.031  18.309  0.00  0.00    +0.000 C 
ATOM      3  S   UNL     1       2.706   6.513  18.964  0.00  0.00    +0.000 S 
ATOM      4  C   UNL     1       1.985   5.708  20.409  0.00  0.00    +0.000 C 
ATOM      5  C   UNL     1       2.401   4.245  20.359  0.00  0.00    +0.000 C 
ATOM      6  C   UNL     1       1.226   3.265  20.275  0.00  0.00    +0.000 C 
ATOM      7  C   UNL     1       1.711   2.118  19.368  0.00  0.00    +0.000 C 
ATOM      8  C   UNL     1       3.076   2.561  18.794  0.00  0.00    +0.000 C 
ATOM      9  N   UNL     1       3.203   3.978  19.162  0.00  0.00    +0.000 N 
ENDROOT
BRANCH   6  10
ATOM     10  O   UNL     1       0.877   2.790  21.577  0.00  0.00    +0.000 OA
ATOM     11  H   UNL     1       0.437   3.515  22.059  0.00  0.00    +0.000 HD
ENDBRANCH   6  10
BRANCH   7  12
ATOM     12  O   UNL     1       0.771   1.904  18.302  0.00  0.00    +0.000 OA
ATOM     13  H   UNL     1       1.257   1.885  17.458  0.00  0.00    +0.000 HD
ENDBRANCH   7  12
BRANCH   1  14
ATOM     14  C   UNL     1       4.615   4.067  16.508  0.00  0.00    +0.000 C 
BRANCH  14  15
ATOM     15  C   UNL     1       5.966   4.508  15.956  0.00  0.00    +0.000 C 
BRANCH  15  16
ATOM     16  C   UNL     1       5.872   4.897  14.474  0.00  0.00    +0.000 C 
BRANCH  16  17
ATOM     17  C   UNL     1       7.167   4.706  13.677  0.00  0.00    +0.000 C 
BRANCH  17  18
ATOM     18  C   UNL     1       6.904   4.204  12.258  0.00  0.00    +0.000 C 
BRANCH  18  19
ATOM     19  C   UNL     1       5.771   3.185  12.219  0.00  0.00    +0.000 C 
BRANCH  19  20
ATOM     20  C   UNL     1       4.575   3.755  11.459  0.00  0.00    +0.000 C 
BRANCH  20  21
ATOM     21  C   UNL     1       3.676   2.637  10.938  0.00  0.00    +0.000 C 
BRANCH  21  23
ATOM     22  C   UNL     1       3.032   4.544   9.443  0.00  0.00    +0.000 C 
ATOM     23  C   UNL     1       2.634   3.175   9.965  0.00  0.00    +0.000 C 
ENDBRANCH  21  23
ENDBRANCH  20  21
ENDBRANCH  19  20
ENDBRANCH  18  19
ENDBRANCH  17  18
ENDBRANCH  16  17
ENDBRANCH  15  16
ENDBRANCH  14  15
ENDBRANCH   1  14
BRANCH   8  24
ATOM     24  C   UNL     1       4.222   1.748  19.424  0.00  0.00    +0.000 C 
BRANCH  24  25
ATOM     25  O   UNL     1       4.474   0.540  18.704  0.00  0.00    +0.000 OA
ATOM     26  H   UNL     1       3.751  -0.069  18.952  0.00  0.00    +0.000 HD
ENDBRANCH  24  25
ENDBRANCH   8  24
TORSDOF 13
ENDMDL
MODEL 2
REMARK VINA RESULT:      -6.9      0.786      1.178
REMARK  Name = 
REMARK  14 active torsions:
REMARK  status: ('A' for Active; 'I' for Inactive)
REMARK    1  A    between atoms: C_1  and  C_2
REMARK    2  A    between atoms: C_2  and  C_3
REMARK    3  A    between atoms: C_3  and  C_4
REMARK    4  A    between atoms: C_4  and  C_5
REMARK    5  A    between atoms: C_5  and  C_6
REMARK    6  A    between atoms: C_6  and  C_7
REMARK    7  A    between atoms: C_7  and  C_8
REMARK    8  A    between atoms: C_8  and  C_9
REMARK    9  A    between atoms: C_9  and  C_10
REMARK   10  A    between atoms: C_10  and  N_11
REMARK   11  A    between atoms: C_16  and  O_17
REMARK   12  A    between atoms: C_18  and  O_19
REMARK   13  A    between atoms: C_20  and  C_21
REMARK   14  A    between atoms: C_21  and  O_22
REMARK                            x       y       z     vdW  Elec       q    Type
REMARK                         _______ _______ _______ _____ _____    ______ ____
ROOT
ATOM      1  N   UNL     1       3.915   5.144  17.197  0.00  0.00    +0.000 NA
ATOM      2  C   UNL     1       3.361   4.997  18.334  0.00  0.00    +0.000 C 
ATOM      3  S   UNL     1       2.700   6.485  19.016  0.00  0.00    +0.000 S 
ATOM      4  C   UNL     1       1.990   5.681  20.467  0.00  0.00    +0.000 C 
ATOM      5  C   UNL     1       2.375   4.210  20.394  0.00  0.00    +0.000 C 
ATOM      6  C   UNL     1       1.179   3.254  20.322  0.00  0.00    +0.000 C 
ATOM      7  C   UNL     1       1.624   2.107  19.395  0.00  0.00    +0.000 C 
ATOM      8  C   UNL     1       2.988   2.529  18.801  0.00  0.00    +0.000 C 
ATOM      9  N   UNL     1       3.150   3.939  19.180  0.00  0.00    +0.000 N 
ENDROOT
BRANCH   6  10
ATOM     10  O   UNL     1       0.845   2.773  21.625  0.00  0.00    +0.000 OA
ATOM     11  H   UNL     1       1.426   3.215  22.272  0.00  0.00    +0.000 HD
ENDBRANCH   6  10
BRANCH   7  12
ATOM     12  O   UNL     1       0.662   1.923  18.344  0.00  0.00    +0.000 OA
ATOM     13  H   UNL     1       0.858   1.086  17.885  0.00  0.00    +0.000 HD
ENDBRANCH   7  12
BRANCH   1  14
ATOM     14  C   UNL     1       4.515   4.028  16.502  0.00  0.00    +0.000 C 
BRANCH  14  15
ATOM     15  C   UNL     1       6.018   4.253  16.372  0.00  0.00    +0.000 C 
BRANCH  15  16
ATOM     16  C   UNL     1       6.517   3.933  14.957  0.00  0.00    +0.000 C 
BRANCH  16  17
ATOM     17  C   UNL     1       6.937   5.155  14.132  0.00  0.00    +0.000 C 
BRANCH  17  18
ATOM     18  C   UNL     1       7.786   4.771  12.921  0.00  0.00    +0.000 C 
BRANCH  18  19
ATOM     19  C   UNL     1       6.927   4.291  11.757  0.00  0.00    +0.000 C 
BRANCH  19  20
ATOM     20  C   UNL     1       6.922   2.764  11.700  0.00  0.00    +0.000 C 
BRANCH  20  21
ATOM     21  C   UNL     1       5.504   2.229  11.523  0.00  0.00    +0.000 C 
BRANCH  21  23
ATOM     22  C   UNL     1       3.453   3.329  10.589  0.00  0.00    +0.000 C 
ATOM     23  C   UNL     1       4.470   3.332  11.717  0.00  0.00    +0.000 C 
ENDBRANCH  21  23
ENDBRANCH  20  21
ENDBRANCH  19  20
ENDBRANCH  18  19
ENDBRANCH  17  18
ENDBRANCH  16  17
ENDBRANCH  15  16
ENDBRANCH  14  15
ENDBRANCH   1  14
BRANCH   8  24
ATOM     24  C   UNL     1       4.129   1.687  19.402  0.00  0.00    +0.000 C 
BRANCH  24  25
ATOM     25  O   UNL     1       5.280   2.483  19.692  0.00  0.00    +0.000 OA
ATOM     26  H   UNL     1       5.175   2.768  20.620  0.00  0.00    +0.000 HD
ENDBRANCH  24  25
ENDBRANCH   8  24
TORSDOF 13
ENDMDL
MODEL 3
REMARK VINA RESULT:      -6.8      3.104      5.363
REMARK  Name = 
REMARK  14 active torsions:
REMARK  status: ('A' for Active; 'I' for Inactive)
REMARK    1  A    between atoms: C_1  and  C_2
REMARK    2  A    between atoms: C_2  and  C_3
REMARK    3  A    between atoms: C_3  and  C_4
REMARK    4  A    between atoms: C_4  and  C_5
REMARK    5  A    between atoms: C_5  and  C_6
REMARK    6  A    between atoms: C_6  and  C_7
REMARK    7  A    between atoms: C_7  and  C_8
REMARK    8  A    between atoms: C_8  and  C_9
REMARK    9  A    between atoms: C_9  and  C_10
REMARK   10  A    between atoms: C_10  and  N_11
REMARK   11  A    between atoms: C_16  and  O_17
REMARK   12  A    between atoms: C_18  and  O_19
REMARK   13  A    between atoms: C_20  and  C_21
REMARK   14  A    between atoms: C_21  and  O_22
REMARK                            x       y       z     vdW  Elec       q    Type
REMARK                         _______ _______ _______ _____ _____    ______ ____
ROOT
ATOM      1  N   UNL     1       3.855   5.131  17.172  0.00  0.00    +0.000 NA
ATOM      2  C   UNL     1       3.282   4.992  18.300  0.00  0.00    +0.000 C 
ATOM      3  S   UNL     1       2.580   6.479  18.943  0.00  0.00    +0.000 S 
ATOM      4  C   UNL     1       1.857   5.686  20.393  0.00  0.00    +0.000 C 
ATOM      5  C   UNL     1       2.269   4.222  20.354  0.00  0.00    +0.000 C 
ATOM      6  C   UNL     1       1.093   3.243  20.274  0.00  0.00    +0.000 C 
ATOM      7  C   UNL     1       1.577   2.089  19.376  0.00  0.00    +0.000 C 
ATOM      8  C   UNL     1       2.945   2.526  18.802  0.00  0.00    +0.000 C 
ATOM      9  N   UNL     1       3.073   3.946  19.160  0.00  0.00    +0.000 N 
ENDROOT
BRANCH   6  10
ATOM     10  O   UNL     1       0.741   2.778  21.579  0.00  0.00    +0.000 OA
ATOM     11  H   UNL     1       1.301   3.243  22.230  0.00  0.00    +0.000 HD
ENDBRANCH   6  10
BRANCH   7  12
ATOM     12  O   UNL     1       0.640   1.869  18.310  0.00  0.00    +0.000 OA
ATOM     13  H   UNL     1       0.495   2.712  17.844  0.00  0.00    +0.000 HD
ENDBRANCH   7  12
BRANCH   1  14
ATOM     14  C   UNL     1       4.490   4.014  16.508  0.00  0.00    +0.000 C 
BRANCH  14  15
ATOM     15  C   UNL     1       5.177   4.497  15.235  0.00  0.00    +0.000 C 
BRANCH  15  16
ATOM     16  C   UNL     1       6.343   5.445  15.547  0.00  0.00    +0.000 C 
BRANCH  16  17
ATOM     17  C   UNL     1       7.130   5.098  16.816  0.00  0.00    +0.000 C 
BRANCH  17  18
ATOM     18  C   UNL     1       7.065   6.211  17.860  0.00  0.00    +0.000 C 
BRANCH  18  19
ATOM     19  C   UNL     1       7.660   7.514  17.336  0.00  0.00    +0.000 C 
BRANCH  19  20
ATOM     20  C   UNL     1       8.412   8.237  18.452  0.00  0.00    +0.000 C 
BRANCH  20  21
ATOM     21  C   UNL     1       8.323   9.750  18.277  0.00  0.00    +0.000 C 
BRANCH  21  23
ATOM     22  C   UNL     1      10.223  11.338  17.877  0.00  0.00    +0.000 C 
ATOM     23  C   UNL     1       9.530  10.448  18.894  0.00  0.00    +0.000 C 
ENDBRANCH  21  23
ENDBRANCH  20  21
ENDBRANCH  19  20
ENDBRANCH  18  19
ENDBRANCH  17  18
ENDBRANCH  16  17
ENDBRANCH  15  16
ENDBRANCH  14  15
ENDBRANCH   1  14
BRANCH   8  24
ATOM     24  C   UNL     1       4.088   1.716  19.439  0.00  0.00    +0.000 C 
BRANCH  24  25
ATOM     25  O   UNL     1       5.241   2.525  19.681  0.00  0.00    +0.000 OA
ATOM     26  H   UNL     1       5.204   2.759  20.629  0.00  0.00    +0.000 HD
ENDBRANCH  24  25
ENDBRANCH   8  24
TORSDOF 13
ENDMDL
MODEL 4
REMARK VINA RESULT:      -6.6      1.411      1.989
REMARK  Name = 
REMARK  14 active torsions:
REMARK  status: ('A' for Active; 'I' for Inactive)
REMARK    1  A    between atoms: C_1  and  C_2
REMARK    2  A    between atoms: C_2  and  C_3
REMARK    3  A    between atoms: C_3  and  C_4
REMARK    4  A    between atoms: C_4  and  C_5
REMARK    5  A    between atoms: C_5  and  C_6
REMARK    6  A    between atoms: C_6  and  C_7
REMARK    7  A    between atoms: C_7  and  C_8
REMARK    8  A    between atoms: C_8  and  C_9
REMARK    9  A    between atoms: C_9  and  C_10
REMARK   10  A    between atoms: C_10  and  N_11
REMARK   11  A    between atoms: C_16  and  O_17
REMARK   12  A    between atoms: C_18  and  O_19
REMARK   13  A    between atoms: C_20  and  C_21
REMARK   14  A    between atoms: C_21  and  O_22
REMARK                            x       y       z     vdW  Elec       q    Type
REMARK                         _______ _______ _______ _____ _____    ______ ____
ROOT
ATOM      1  N   UNL     1       4.834   5.907  19.106  0.00  0.00    +0.000 NA
ATOM      2  C   UNL     1       3.712   5.507  19.556  0.00  0.00    +0.000 C 
ATOM      3  S   UNL     1       2.536   6.797  19.822  0.00  0.00    +0.000 S 
ATOM      4  C   UNL     1       1.203   5.683  20.310  0.00  0.00    +0.000 C 
ATOM      5  C   UNL     1       1.777   4.274  20.311  0.00  0.00    +0.000 C 
ATOM      6  C   UNL     1       1.085   3.316  19.335  0.00  0.00    +0.000 C 
ATOM      7  C   UNL     1       2.201   2.404  18.792  0.00  0.00    +0.000 C 
ATOM      8  C   UNL     1       3.534   2.985  19.316  0.00  0.00    +0.000 C 
ATOM      9  N   UNL     1       3.182   4.289  19.895  0.00  0.00    +0.000 N 
ENDROOT
BRANCH   6  10
ATOM     10  O   UNL     1       0.074   2.562  20.007  0.00  0.00    +0.000 OA
ATOM     11  H   UNL     1       0.174   1.625  19.754  0.00  0.00    +0.000 HD
ENDBRANCH   6  10
BRANCH   7  12
ATOM     12  O   UNL     1       2.187   2.414  17.355  0.00  0.00    +0.000 OA
ATOM     13  H   UNL     1       1.697   3.199  17.053  0.00  0.00    +0.000 HD
ENDBRANCH   7  12
BRANCH   1  14
ATOM     14  C   UNL     1       5.912   4.981  18.841  0.00  0.00    +0.000 C 
BRANCH  14  15
ATOM     15  C   UNL     1       7.093   5.730  18.233  0.00  0.00    +0.000 C 
BRANCH  15  16
ATOM     16  C   UNL     1       7.073   5.667  16.699  0.00  0.00    +0.000 C 
BRANCH  16  17
ATOM     17  C   UNL     1       5.695   5.893  16.065  0.00  0.00    +0.000 C 
BRANCH  17  18
ATOM     18  C   UNL     1       5.453   4.978  14.866  0.00  0.00    +0.000 C 
BRANCH  18  19
ATOM     19  C   UNL     1       6.757   4.598  14.173  0.00  0.00    +0.000 C 
BRANCH  19  20
ATOM     20  C   UNL     1       6.474   3.689  12.977  0.00  0.00    +0.000 C 
BRANCH  20  21
ATOM     21  C   UNL     1       4.978   3.625  12.684  0.00  0.00    +0.000 C 
BRANCH  21  23
ATOM     22  C   UNL     1       3.490   3.505  10.669  0.00  0.00    +0.000 C 
ATOM     23  C   UNL     1       4.705   2.915  11.363  0.00  0.00    +0.000 C 
ENDBRANCH  21  23
ENDBRANCH  20  21
ENDBRANCH  19  20
ENDBRANCH  18  19
ENDBRANCH  17  18
ENDBRANCH  16  17
ENDBRANCH  15  16
ENDBRANCH  14  15
ENDBRANCH   1  14
BRANCH   8  24
ATOM     24  C   UNL     1       4.138   2.073  20.400  0.00  0.00    +0.000 C 
BRANCH  24  25
ATOM     25  O   UNL     1       5.293   1.377  19.926  0.00  0.00    +0.000 OA
ATOM     26  H   UNL     1       6.032   1.684  20.486  0.00  0.00    +0.000 HD
ENDBRANCH  24  25
ENDBRANCH   8  24
TORSDOF 13
ENDMDL
MODEL 5
REMARK VINA RESULT:      -6.6      2.275      3.712
REMARK  Name = 
REMARK  14 active torsions:
REMARK  status: ('A' for Active; 'I' for Inactive)
REMARK    1  A    between atoms: C_1  and  C_2
REMARK    2  A    between atoms: C_2  and  C_3
REMARK    3  A    between atoms: C_3  and  C_4
REMARK    4  A    between atoms: C_4  and  C_5
REMARK    5  A    between atoms: C_5  and  C_6
REMARK    6  A    between atoms: C_6  and  C_7
REMARK    7  A    between atoms: C_7  and  C_8
REMARK    8  A    between atoms: C_8  and  C_9
REMARK    9  A    between atoms: C_9  and  C_10
REMARK   10  A    between atoms: C_10  and  N_11
REMARK   11  A    between atoms: C_16  and  O_17
REMARK   12  A    between atoms: C_18  and  O_19
REMARK   13  A    between atoms: C_20  and  C_21
REMARK   14  A    between atoms: C_21  and  O_22
REMARK                            x       y       z     vdW  Elec       q    Type
REMARK                         _______ _______ _______ _____ _____    ______ ____
ROOT
ATOM      1  N   UNL     1       5.614   4.042  18.775  0.00  0.00    +0.000 NA
ATOM      2  C   UNL     1       4.415   3.650  18.600  0.00  0.00    +0.000 C 
ATOM      3  S   UNL     1       4.270   2.152  17.677  0.00  0.00    +0.000 S 
ATOM      4  C   UNL     1       2.477   2.046  17.848  0.00  0.00    +0.000 C 
ATOM      5  C   UNL     1       2.027   3.288  18.604  0.00  0.00    +0.000 C 
ATOM      6  C   UNL     1       1.328   2.991  19.935  0.00  0.00    +0.000 C 
ATOM      7  C   UNL     1       1.764   4.118  20.890  0.00  0.00    +0.000 C 
ATOM      8  C   UNL     1       2.855   4.923  20.147  0.00  0.00    +0.000 C 
ATOM      9  N   UNL     1       3.179   4.121  18.959  0.00  0.00    +0.000 N 
ENDROOT
BRANCH   6  10
ATOM     10  O   UNL     1      -0.091   2.973  19.761  0.00  0.00    +0.000 OA
ATOM     11  H   UNL     1      -0.338   2.117  19.363  0.00  0.00    +0.000 HD
ENDBRANCH   6  10
BRANCH   7  12
ATOM     12  O   UNL     1       2.299   3.558  22.100  0.00  0.00    +0.000 OA
ATOM     13  H   UNL     1       2.014   4.108  22.851  0.00  0.00    +0.000 HD
ENDBRANCH   7  12
BRANCH   1  14
ATOM     14  C   UNL     1       5.910   5.255  19.503  0.00  0.00    +0.000 C 
BRANCH  14  15
ATOM     15  C   UNL     1       7.342   5.692  19.209  0.00  0.00    +0.000 C 
BRANCH  15  16
ATOM     16  C   UNL     1       7.464   6.331  17.820  0.00  0.00    +0.000 C 
BRANCH  16  17
ATOM     17  C   UNL     1       6.145   6.844  17.230  0.00  0.00    +0.000 C 
BRANCH  17  18
ATOM     18  C   UNL     1       5.728   6.067  15.983  0.00  0.00    +0.000 C 
BRANCH  18  19
ATOM     19  C   UNL     1       6.757   5.005  15.608  0.00  0.00    +0.000 C 
BRANCH  19  20
ATOM     20  C   UNL     1       6.719   4.742  14.103  0.00  0.00    +0.000 C 
BRANCH  20  21
ATOM     21  C   UNL     1       5.493   3.918  13.724  0.00  0.00    +0.000 C 
BRANCH  21  23
ATOM     22  C   UNL     1       7.042   3.510  11.794  0.00  0.00    +0.000 C 
ATOM     23  C   UNL     1       5.625   3.348  12.316  0.00  0.00    +0.000 C 
ENDBRANCH  21  23
ENDBRANCH  20  21
ENDBRANCH  19  20
ENDBRANCH  18  19
ENDBRANCH  17  18
ENDBRANCH  16  17
ENDBRANCH  15  16
ENDBRANCH  14  15
ENDBRANCH   1  14
BRANCH   8  24
ATOM     24  C   UNL     1       2.321   6.303  19.722  0.00  0.00    +0.000 C 
BRANCH  24  25
ATOM     25  O   UNL     1       2.825   6.696  18.443  0.00  0.00    +0.000 OA
ATOM     26  H   UNL     1       3.797   6.644  18.517  0.00  0.00    +0.000 HD
ENDBRANCH  24  25
ENDBRANCH   8  24
TORSDOF 13
ENDMDL
MODEL 6
REMARK VINA RESULT:      -6.5      3.852      5.960
REMARK  Name = 
REMARK  14 active torsions:
REMARK  status: ('A' for Active; 'I' for Inactive)
REMARK    1  A    between atoms: C_1  and  C_2
REMARK    2  A    between atoms: C_2  and  C_3
REMARK    3  A    between atoms: C_3  and  C_4
REMARK    4  A    between atoms: C_4  and  C_5
REMARK    5  A    between atoms: C_5  and  C_6
REMARK    6  A    between atoms: C_6  and  C_7
REMARK    7  A    between atoms: C_7  and  C_8
REMARK    8  A    between atoms: C_8  and  C_9
REMARK    9  A    between atoms: C_9  and  C_10
REMARK   10  A    between atoms: C_10  and  N_11
REMARK   11  A    between atoms: C_16  and  O_17
REMARK   12  A    between atoms: C_18  and  O_19
REMARK   13  A    between atoms: C_20  and  C_21
REMARK   14  A    between atoms: C_21  and  O_22
REMARK                            x       y       z     vdW  Elec       q    Type
REMARK                         _______ _______ _______ _____ _____    ______ ____
ROOT
ATOM      1  N   UNL     1       3.719   6.086  17.641  0.00  0.00    +0.000 NA
ATOM      2  C   UNL     1       3.160   5.719  18.724  0.00  0.00    +0.000 C 
ATOM      3  S   UNL     1       2.308   7.010  19.574  0.00  0.00    +0.000 S 
ATOM      4  C   UNL     1       1.666   5.935  20.872  0.00  0.00    +0.000 C 
ATOM      5  C   UNL     1       2.227   4.543  20.618  0.00  0.00    +0.000 C 
ATOM      6  C   UNL     1       1.158   3.474  20.368  0.00  0.00    +0.000 C 
ATOM      7  C   UNL     1       1.761   2.527  19.314  0.00  0.00    +0.000 C 
ATOM      8  C   UNL     1       3.078   3.183  18.838  0.00  0.00    +0.000 C 
ATOM      9  N   UNL     1       3.059   4.536  19.411  0.00  0.00    +0.000 N 
ENDROOT
BRANCH   6  10
ATOM     10  O   UNL     1       0.853   2.781  21.580  0.00  0.00    +0.000 OA
ATOM     11  H   UNL     1       1.686   2.642  22.071  0.00  0.00    +0.000 HD
ENDBRANCH   6  10
BRANCH   7  12
ATOM     12  O   UNL     1       0.854   2.379  18.210  0.00  0.00    +0.000 OA
ATOM     13  H   UNL     1       0.367   1.542  18.316  0.00  0.00    +0.000 HD
ENDBRANCH   7  12
BRANCH   1  14
ATOM     14  C   UNL     1       4.467   5.154  16.827  0.00  0.00    +0.000 C 
BRANCH  14  15
ATOM     15  C   UNL     1       5.601   5.888  16.118  0.00  0.00    +0.000 C 
BRANCH  15  16
ATOM     16  C   UNL     1       6.258   6.930  17.033  0.00  0.00    +0.000 C 
BRANCH  16  17
ATOM     17  C   UNL     1       7.402   6.392  17.901  0.00  0.00    +0.000 C 
BRANCH  17  18
ATOM     18  C   UNL     1       8.264   7.512  18.481  0.00  0.00    +0.000 C 
BRANCH  18  19
ATOM     19  C   UNL     1       7.870   8.876  17.924  0.00  0.00    +0.000 C 
BRANCH  19  20
ATOM     20  C   UNL     1       9.073   9.818  17.936  0.00  0.00    +0.000 C 
BRANCH  20  21
ATOM     21  C   UNL     1       8.855  10.967  18.916  0.00  0.00    +0.000 C 
BRANCH  21  23
ATOM     22  C   UNL     1      10.956  11.746  17.789  0.00  0.00    +0.000 C 
ATOM     23  C   UNL     1       9.714  12.172  18.553  0.00  0.00    +0.000 C 
ENDBRANCH  21  23
ENDBRANCH  20  21
ENDBRANCH  19  20
ENDBRANCH  18  19
ENDBRANCH  17  18
ENDBRANCH  16  17
ENDBRANCH  15  16
ENDBRANCH  14  15
ENDBRANCH   1  14
BRANCH   8  24
ATOM     24  C   UNL     1       4.297   2.405  19.366  0.00  0.00    +0.000 C 
BRANCH  24  25
ATOM     25  O   UNL     1       5.483   3.204  19.352  0.00  0.00    +0.000 OA
ATOM     26  H   UNL     1       5.965   2.971  20.170  0.00  0.00    +0.000 HD
ENDBRANCH  24  25
ENDBRANCH   8  24
TORSDOF 13
ENDMDL
MODEL 7
REMARK VINA RESULT:      -6.5      4.475      6.667
REMARK  Name = 
REMARK  14 active torsions:
REMARK  status: ('A' for Active; 'I' for Inactive)
REMARK    1  A    between atoms: C_1  and  C_2
REMARK    2  A    between atoms: C_2  and  C_3
REMARK    3  A    between atoms: C_3  and  C_4
REMARK    4  A    between atoms: C_4  and  C_5
REMARK    5  A    between atoms: C_5  and  C_6
REMARK    6  A    between atoms: C_6  and  C_7
REMARK    7  A    between atoms: C_7  and  C_8
REMARK    8  A    between atoms: C_8  and  C_9
REMARK    9  A    between atoms: C_9  and  C_10
REMARK   10  A    between atoms: C_10  and  N_11
REMARK   11  A    between atoms: C_16  and  O_17
REMARK   12  A    between atoms: C_18  and  O_19
REMARK   13  A    between atoms: C_20  and  C_21
REMARK   14  A    between atoms: C_21  and  O_22
REMARK                            x       y       z     vdW  Elec       q    Type
REMARK                         _______ _______ _______ _____ _____    ______ ____
ROOT
ATOM      1  N   UNL     1       4.832   5.579  17.961  0.00  0.00    +0.000 NA
ATOM      2  C   UNL     1       3.939   5.361  18.843  0.00  0.00    +0.000 C 
ATOM      3  S   UNL     1       2.891   6.744  19.170  0.00  0.00    +0.000 S 
ATOM      4  C   UNL     1       1.830   5.854  20.327  0.00  0.00    +0.000 C 
ATOM      5  C   UNL     1       2.406   4.453  20.474  0.00  0.00    +0.000 C 
ATOM      6  C   UNL     1       1.448   3.336  20.045  0.00  0.00    +0.000 C 
ATOM      7  C   UNL     1       2.337   2.259  19.395  0.00  0.00    +0.000 C 
ATOM      8  C   UNL     1       3.754   2.867  19.288  0.00  0.00    +0.000 C 
ATOM      9  N   UNL     1       3.586   4.289  19.621  0.00  0.00    +0.000 N 
ENDROOT
BRANCH   6  10
ATOM     10  O   UNL     1       0.744   2.820  21.176  0.00  0.00    +0.000 OA
ATOM     11  H   UNL     1      -0.113   3.282  21.239  0.00  0.00    +0.000 HD
ENDBRANCH   6  10
BRANCH   7  12
ATOM     12  O   UNL     1       1.837   1.933  18.088  0.00  0.00    +0.000 OA
ATOM     13  H   UNL     1       2.442   1.292  17.673  0.00  0.00    +0.000 HD
ENDBRANCH   7  12
BRANCH   1  14
ATOM     14  C   UNL     1       5.779   4.555  17.581  0.00  0.00    +0.000 C 
BRANCH  14  15
ATOM     15  C   UNL     1       7.130   5.194  17.280  0.00  0.00    +0.000 C 
BRANCH  15  16
ATOM     16  C   UNL     1       7.426   6.364  18.228  0.00  0.00    +0.000 C 
BRANCH  16  17
ATOM     17  C   UNL     1       7.728   7.695  17.530  0.00  0.00    +0.000 C 
BRANCH  17  18
ATOM     18  C   UNL     1       8.480   8.667  18.438  0.00  0.00    +0.000 C 
BRANCH  18  19
ATOM     19  C   UNL     1       8.394  10.101  17.926  0.00  0.00    +0.000 C 
BRANCH  19  20
ATOM     20  C   UNL     1       9.532  10.938  18.509  0.00  0.00    +0.000 C 
BRANCH  20  21
ATOM     21  C   UNL     1       9.551  10.848  20.031  0.00  0.00    +0.000 C 
BRANCH  21  23
ATOM     22  C   UNL     1      10.201  13.242  20.400  0.00  0.00    +0.000 C 
ATOM     23  C   UNL     1      10.590  11.792  20.627  0.00  0.00    +0.000 C 
ENDBRANCH  21  23
ENDBRANCH  20  21
ENDBRANCH  19  20
ENDBRANCH  18  19
ENDBRANCH  17  18
ENDBRANCH  16  17
ENDBRANCH  15  16
ENDBRANCH  14  15
ENDBRANCH   1  14
BRANCH   8  24
ATOM     24  C   UNL     1       4.712   2.201  20.292  0.00  0.00    +0.000 C 
BRANCH  24  25
ATOM     25  O   UNL     1       4.052   1.873  21.517  0.00  0.00    +0.000 OA
ATOM     26  H   UNL     1       3.636   1.002  21.365  0.00  0.00    +0.000 HD
ENDBRANCH  24  25
ENDBRANCH   8  24
TORSDOF 13
ENDMDL
MODEL 8
REMARK VINA RESULT:      -6.4      1.587      2.074
REMARK  Name = 
REMARK  14 active torsions:
REMARK  status: ('A' for Active; 'I' for Inactive)
REMARK    1  A    between atoms: C_1  and  C_2
REMARK    2  A    between atoms: C_2  and  C_3
REMARK    3  A    between atoms: C_3  and  C_4
REMARK    4  A    between atoms: C_4  and  C_5
REMARK    5  A    between atoms: C_5  and  C_6
REMARK    6  A    between atoms: C_6  and  C_7
REMARK    7  A    between atoms: C_7  and  C_8
REMARK    8  A    between atoms: C_8  and  C_9
REMARK    9  A    between atoms: C_9  and  C_10
REMARK   10  A    between atoms: C_10  and  N_11
REMARK   11  A    between atoms: C_16  and  O_17
REMARK   12  A    between atoms: C_18  and  O_19
REMARK   13  A    between atoms: C_20  and  C_21
REMARK   14  A    between atoms: C_21  and  O_22
REMARK                            x       y       z     vdW  Elec       q    Type
REMARK                         _______ _______ _______ _____ _____    ______ ____
ROOT
ATOM      1  N   UNL     1       3.961   6.248  17.821  0.00  0.00    +0.000 NA
ATOM      2  C   UNL     1       3.297   5.843  18.829  0.00  0.00    +0.000 C 
ATOM      3  S   UNL     1       2.329   7.095  19.610  0.00  0.00    +0.000 S 
ATOM      4  C   UNL     1       1.576   5.975  20.806  0.00  0.00    +0.000 C 
ATOM      5  C   UNL     1       2.192   4.602  20.582  0.00  0.00    +0.000 C 
ATOM      6  C   UNL     1       1.180   3.518  20.194  0.00  0.00    +0.000 C 
ATOM      7  C   UNL     1       1.915   2.610  19.190  0.00  0.00    +0.000 C 
ATOM      8  C   UNL     1       3.260   3.303  18.874  0.00  0.00    +0.000 C 
ATOM      9  N   UNL     1       3.149   4.642  19.472  0.00  0.00    +0.000 N 
ENDROOT
BRANCH   6  10
ATOM     10  O   UNL     1       0.762   2.788  21.350  0.00  0.00    +0.000 OA
ATOM     11  H   UNL     1      -0.117   3.117  21.617  0.00  0.00    +0.000 HD
ENDBRANCH   6  10
BRANCH   7  12
ATOM     12  O   UNL     1       1.135   2.472  17.991  0.00  0.00    +0.000 OA
ATOM     13  H   UNL     1       1.110   1.531  17.741  0.00  0.00    +0.000 HD
ENDBRANCH   7  12
BRANCH   1  14
ATOM     14  C   UNL     1       4.813   5.352  17.071  0.00  0.00    +0.000 C 
BRANCH  14  15
ATOM     15  C   UNL     1       6.218   5.365  17.663  0.00  0.00    +0.000 C 
BRANCH  15  16
ATOM     16  C   UNL     1       7.207   4.580  16.791  0.00  0.00    +0.000 C 
BRANCH  16  17
ATOM     17  C   UNL     1       7.014   4.759  15.281  0.00  0.00    +0.000 C 
BRANCH  17  18
ATOM     18  C   UNL     1       5.974   3.795  14.712  0.00  0.00    +0.000 C 
BRANCH  18  19
ATOM     19  C   UNL     1       5.519   4.213  13.318  0.00  0.00    +0.000 C 
BRANCH  19  20
ATOM     20  C   UNL     1       5.695   3.055  12.337  0.00  0.00    +0.000 C 
BRANCH  20  21
ATOM     21  C   UNL     1       7.076   3.094  11.689  0.00  0.00    +0.000 C 
BRANCH  21  23
ATOM     22  C   UNL     1       6.190   0.858  10.979  0.00  0.00    +0.000 C 
ATOM     23  C   UNL     1       7.404   1.770  11.009  0.00  0.00    +0.000 C 
ENDBRANCH  21  23
ENDBRANCH  20  21
ENDBRANCH  19  20
ENDBRANCH  18  19
ENDBRANCH  17  18
ENDBRANCH  16  17
ENDBRANCH  15  16
ENDBRANCH  14  15
ENDBRANCH   1  14
BRANCH   8  24
ATOM     24  C   UNL     1       4.432   2.537  19.512  0.00  0.00    +0.000 C 
BRANCH  24  25
ATOM     25  O   UNL     1       4.534   1.204  19.005  0.00  0.00    +0.000 OA
ATOM     26  H   UNL     1       4.393   1.279  18.041  0.00  0.00    +0.000 HD
ENDBRANCH  24  25
ENDBRANCH   8  24
TORSDOF 13
ENDMDL
MODEL 9
REMARK VINA RESULT:      -6.4      1.062      1.398
REMARK  Name = 
REMARK  14 active torsions:
REMARK  status: ('A' for Active; 'I' for Inactive)
REMARK    1  A    between atoms: C_1  and  C_2
REMARK    2  A    between atoms: C_2  and  C_3
REMARK    3  A    between atoms: C_3  and  C_4
REMARK    4  A    between atoms: C_4  and  C_5
REMARK    5  A    between atoms: C_5  and  C_6
REMARK    6  A    between atoms: C_6  and  C_7
REMARK    7  A    between atoms: C_7  and  C_8
REMARK    8  A    between atoms: C_8  and  C_9
REMARK    9  A    between atoms: C_9  and  C_10
REMARK   10  A    between atoms: C_10  and  N_11
REMARK   11  A    between atoms: C_16  and  O_17
REMARK   12  A    between atoms: C_18  and  O_19
REMARK   13  A    between atoms: C_20  and  C_21
REMARK   14  A    between atoms: C_21  and  O_22
REMARK                            x       y       z     vdW  Elec       q    Type
REMARK                         _______ _______ _______ _____ _____    ______ ____
ROOT
ATOM      1  N   UNL     1       5.059   5.445  17.120  0.00  0.00    +0.000 NA
ATOM      2  C   UNL     1       4.132   5.528  17.988  0.00  0.00    +0.000 C 
ATOM      3  S   UNL     1       3.292   7.081  18.004  0.00  0.00    +0.000 S 
ATOM      4  C   UNL     1       2.097   6.590  19.264  0.00  0.00    +0.000 C 
ATOM      5  C   UNL     1       2.461   5.177  19.697  0.00  0.00    +0.000 C 
ATOM      6  C   UNL     1       1.357   4.143  19.448  0.00  0.00    +0.000 C 
ATOM      7  C   UNL     1       2.088   2.847  19.051  0.00  0.00    +0.000 C 
ATOM      8  C   UNL     1       3.580   3.219  18.889  0.00  0.00    +0.000 C 
ATOM      9  N   UNL     1       3.616   4.687  18.940  0.00  0.00    +0.000 N 
ENDROOT
BRANCH   6  10
ATOM     10  O   UNL     1       0.570   3.959  20.626  0.00  0.00    +0.000 OA
ATOM     11  H   UNL     1       1.143   4.107  21.402  0.00  0.00    +0.000 HD
ENDBRANCH   6  10
BRANCH   7  12
ATOM     12  O   UNL     1       1.565   2.348  17.809  0.00  0.00    +0.000 OA
ATOM     13  H   UNL     1       2.247   1.801  17.381  0.00  0.00    +0.000 HD
ENDBRANCH   7  12
BRANCH   1  14
ATOM     14  C   UNL     1       5.852   4.244  16.979  0.00  0.00    +0.000 C 
BRANCH  14  15
ATOM     15  C   UNL     1       5.837   3.787  15.524  0.00  0.00    +0.000 C 
BRANCH  15  16
ATOM     16  C   UNL     1       6.221   4.926  14.570  0.00  0.00    +0.000 C 
BRANCH  16  17
ATOM     17  C   UNL     1       7.686   4.918  14.118  0.00  0.00    +0.000 C 
BRANCH  17  18
ATOM     18  C   UNL     1       7.834   5.221  12.628  0.00  0.00    +0.000 C 
BRANCH  18  19
ATOM     19  C   UNL     1       6.753   4.532  11.801  0.00  0.00    +0.000 C 
BRANCH  19  20
ATOM     20  C   UNL     1       6.860   3.015  11.952  0.00  0.00    +0.000 C 
BRANCH  20  21
ATOM     21  C   UNL     1       5.538   2.338  11.605  0.00  0.00    +0.000 C 
BRANCH  21  23
ATOM     22  C   UNL     1       3.420   3.156  10.542  0.00  0.00    +0.000 C 
ATOM     23  C   UNL     1       4.373   3.314  11.714  0.00  0.00    +0.000 C 
ENDBRANCH  21  23
ENDBRANCH  20  21
ENDBRANCH  19  20
ENDBRANCH  18  19
ENDBRANCH  17  18
ENDBRANCH  16  17
ENDBRANCH  15  16
ENDBRANCH  14  15
ENDBRANCH   1  14
BRANCH   8  24
ATOM     24  C   UNL     1       4.417   2.631  20.040  0.00  0.00    +0.000 C 
BRANCH  24  25
ATOM     25  O   UNL     1       5.028   1.392  19.673  0.00  0.00    +0.000 OA
ATOM     26  H   UNL     1       5.991   1.545  19.739  0.00  0.00    +0.000 HD
ENDBRANCH  24  25
ENDBRANCH   8  24
TORSDOF 13
ENDMDL
