MODEL 1
REMARK VINA RESULT:      -9.2      0.000      0.000
REMARK  Name = 
REMARK  9 active torsions:
REMARK  status: ('A' for Active; 'I' for Inactive)
REMARK    1  A    between atoms: C_1  and  O_2
REMARK    2  A    between atoms: O_2  and  C_3
REMARK    3  A    between atoms: C_6  and  C_7
REMARK    4  A    between atoms: N_9  and  C_10
REMARK    5  A    between atoms: C_10  and  C_11
REMARK    6  A    between atoms: C_11  and  C_12
REMARK    7  A    between atoms: C_15  and  C_16
REMARK    8  A    between atoms: C_16  and  N_17
REMARK    9  A    between atoms: N_17  and  C_18
REMARK                            x       y       z     vdW  Elec       q    Type
REMARK                         _______ _______ _______ _____ _____    ______ ____
ROOT
ATOM      1  C   UNL     1       2.004   6.946  20.222  0.00  0.00    +0.000 A 
ATOM      2  C   UNL     1       1.876   5.666  20.780  0.00  0.00    +0.000 A 
ATOM      3  C   UNL     1       2.050   4.520  20.009  0.00  0.00    +0.000 A 
ATOM      4  C   UNL     1       2.337   4.627  18.644  0.00  0.00    +0.000 A 
ATOM      5  C   UNL     1       2.397   5.900  18.060  0.00  0.00    +0.000 A 
ATOM      6  C   UNL     1       2.240   7.045  18.846  0.00  0.00    +0.000 A 
ENDROOT
BRANCH   1   7
ATOM      7  C   UNL     1       1.866   8.207  21.050  0.00  0.00    +0.000 C 
BRANCH   7   8
ATOM      8  C   UNL     1       0.424   8.533  21.453  0.00  0.00    +0.000 C 
BRANCH   8  11
ATOM      9  C   UNL     1      -0.429  10.184  19.835  0.00  0.00    +0.000 C 
ATOM     10  O   UNL     1       0.310  11.073  20.247  0.00  0.00    +0.000 OA
ATOM     11  N   UNL     1      -0.417   8.899  20.330  0.00  0.00    +0.000 N 
ATOM     12  H   UNL     1      -0.969   8.183  19.875  0.00  0.00    +0.000 HD
BRANCH   9  16
ATOM     13  C   UNL     1      -3.195  10.889  16.646  0.00  0.00    +0.000 A 
ATOM     14  C   UNL     1      -2.179   9.939  16.518  0.00  0.00    +0.000 A 
ATOM     15  C   UNL     1      -1.287   9.716  17.567  0.00  0.00    +0.000 A 
ATOM     16  C   UNL     1      -1.402  10.449  18.748  0.00  0.00    +0.000 A 
ATOM     17  C   UNL     1      -2.401  11.424  18.865  0.00  0.00    +0.000 A 
ATOM     18  C   UNL     1      -3.296  11.642  17.815  0.00  0.00    +0.000 A 
BRANCH  13  20
ATOM     19  C   UNL     1      -3.651  10.265  14.415  0.00  0.00    +0.000 C 
ATOM     20  O   UNL     1      -4.006  11.035  15.558  0.00  0.00    +0.000 OA
ENDBRANCH  13  20
ENDBRANCH   9  16
ENDBRANCH   8  11
ENDBRANCH   7   8
ENDBRANCH   1   7
BRANCH   4  21
ATOM     21  C   UNL     1       2.553   3.393  17.810  0.00  0.00    +0.000 C 
BRANCH  21  22
ATOM     22  N   UNL     1       3.981   3.143  17.679  0.00  0.00    +0.000 N 
ATOM     23  H   UNL     1       4.340   2.593  18.455  0.00  0.00    +0.000 HD
BRANCH  22  24
ATOM     24  C   UNL     1       4.830   4.211  17.389  0.00  0.00    +0.000 A 
ATOM     25  C   UNL     1       4.836   4.905  16.180  0.00  0.00    +0.000 A 
ATOM     26  C   UNL     1       5.700   5.990  15.981  0.00  0.00    +0.000 A 
ATOM     27  C   UNL     1       6.595   6.387  16.958  0.00  0.00    +0.000 A 
ATOM     28  N   UNL     1       7.262   7.534  16.824  0.00  0.00    +0.000 NA
ATOM     29  C   UNL     1       8.081   7.877  17.817  0.00  0.00    +0.000 A 
ATOM     30  N   UNL     1       8.297   9.230  18.040  0.00  0.00    +0.000 N 
ATOM     31  N   UNL     1       8.396   7.123  18.863  0.00  0.00    +0.000 NA
ATOM     32  C   UNL     1       7.686   6.005  19.012  0.00  0.00    +0.000 A 
ATOM     33  N   UNL     1       7.895   5.360  20.236  0.00  0.00    +0.000 N 
ATOM     34  C   UNL     1       6.705   5.604  18.101  0.00  0.00    +0.000 A 
ATOM     35  C   UNL     1       5.822   4.529  18.316  0.00  0.00    +0.000 A 
ATOM     36  H   UNL     1       7.359   9.565  18.248  0.00  0.00    +0.000 HD
ATOM     37  H   UNL     1       8.844   9.246  18.895  0.00  0.00    +0.000 HD
ATOM     38  H   UNL     1       8.695   5.809  20.679  0.00  0.00    +0.000 HD
ATOM     39  H   UNL     1       8.024   4.363  20.134  0.00  0.00    +0.000 HD
ENDBRANCH  22  24
ENDBRANCH  21  22
ENDBRANCH   4  21
TORSDOF 8
ENDMDL
MODEL 2
REMARK VINA RESULT:      -9.2      2.445      3.008
REMARK  Name = 
REMARK  9 active torsions:
REMARK  status: ('A' for Active; 'I' for Inactive)
REMARK    1  A    between atoms: C_1  and  O_2
REMARK    2  A    between atoms: O_2  and  C_3
REMARK    3  A    between atoms: C_6  and  C_7
REMARK    4  A    between atoms: N_9  and  C_10
REMARK    5  A    between atoms: C_10  and  C_11
REMARK    6  A    between atoms: C_11  and  C_12
REMARK    7  A    between atoms: C_15  and  C_16
REMARK    8  A    between atoms: C_16  and  N_17
REMARK    9  A    between atoms: N_17  and  C_18
REMARK                            x       y       z     vdW  Elec       q    Type
REMARK                         _______ _______ _______ _____ _____    ______ ____
ROOT
ATOM      1  C   UNL     1       1.920   6.315  20.065  0.00  0.00    +0.000 A 
ATOM      2  C   UNL     1       2.149   5.077  20.682  0.00  0.00    +0.000 A 
ATOM      3  C   UNL     1       2.485   3.949  19.939  0.00  0.00    +0.000 A 
ATOM      4  C   UNL     1       2.579   4.027  18.545  0.00  0.00    +0.000 A 
ATOM      5  C   UNL     1       2.282   5.241  17.911  0.00  0.00    +0.000 A 
ATOM      6  C   UNL     1       1.965   6.373  18.667  0.00  0.00    +0.000 A 
ENDROOT
BRANCH   1   7
ATOM      7  C   UNL     1       1.600   7.567  20.856  0.00  0.00    +0.000 C 
BRANCH   7   8
ATOM      8  C   UNL     1       1.597   8.849  20.017  0.00  0.00    +0.000 C 
BRANCH   8  11
ATOM      9  C   UNL     1       0.387  10.315  21.585  0.00  0.00    +0.000 C 
ATOM     10  O   UNL     1       1.226  10.176  22.470  0.00  0.00    +0.000 OA
ATOM     11  N   UNL     1       0.500   9.743  20.337  0.00  0.00    +0.000 N 
ATOM     12  H   UNL     1      -0.165   9.984  19.614  0.00  0.00    +0.000 HD
BRANCH   9  16
ATOM     13  C   UNL     1      -3.120  12.701  22.157  0.00  0.00    +0.000 A 
ATOM     14  C   UNL     1      -2.500  12.624  20.908  0.00  0.00    +0.000 A 
ATOM     15  C   UNL     1      -1.360  11.839  20.735  0.00  0.00    +0.000 A 
ATOM     16  C   UNL     1      -0.830  11.132  21.813  0.00  0.00    +0.000 A 
ATOM     17  C   UNL     1      -1.432  11.233  23.073  0.00  0.00    +0.000 A 
ATOM     18  C   UNL     1      -2.576  12.016  23.244  0.00  0.00    +0.000 A 
BRANCH  13  20
ATOM     19  C   UNL     1      -4.928  13.487  23.456  0.00  0.00    +0.000 C 
ATOM     20  O   UNL     1      -4.223  13.504  22.220  0.00  0.00    +0.000 OA
ENDBRANCH  13  20
ENDBRANCH   9  16
ENDBRANCH   8  11
ENDBRANCH   7   8
ENDBRANCH   1   7
BRANCH   4  21
ATOM     21  C   UNL     1       2.968   2.818  17.737  0.00  0.00    +0.000 C 
BRANCH  21  22
ATOM     22  N   UNL     1       4.419   2.736  17.659  0.00  0.00    +0.000 N 
ATOM     23  H   UNL     1       4.813   2.263  18.468  0.00  0.00    +0.000 HD
BRANCH  22  24
ATOM     24  C   UNL     1       5.145   3.886  17.350  0.00  0.00    +0.000 A 
ATOM     25  C   UNL     1       5.089   4.545  16.122  0.00  0.00    +0.000 A 
ATOM     26  C   UNL     1       5.826   5.715  15.902  0.00  0.00    +0.000 A 
ATOM     27  C   UNL     1       6.656   6.238  16.877  0.00  0.00    +0.000 A 
ATOM     28  N   UNL     1       7.190   7.449  16.719  0.00  0.00    +0.000 NA
ATOM     29  C   UNL     1       7.950   7.909  17.712  0.00  0.00    +0.000 A 
ATOM     30  N   UNL     1       8.007   9.284  17.899  0.00  0.00    +0.000 N 
ATOM     31  N   UNL     1       8.334   7.224  18.781  0.00  0.00    +0.000 NA
ATOM     32  C   UNL     1       7.754   6.037  18.953  0.00  0.00    +0.000 A 
ATOM     33  N   UNL     1       8.018   5.453  20.198  0.00  0.00    +0.000 N 
ATOM     34  C   UNL     1       6.838   5.503  18.043  0.00  0.00    +0.000 A 
ATOM     35  C   UNL     1       6.081   4.340  18.278  0.00  0.00    +0.000 A 
ATOM     36  H   UNL     1       7.035   9.515  18.087  0.00  0.00    +0.000 HD
ATOM     37  H   UNL     1       8.537   9.385  18.760  0.00  0.00    +0.000 HD
ATOM     38  H   UNL     1       8.754   6.002  20.637  0.00  0.00    +0.000 HD
ATOM     39  H   UNL     1       8.261   4.475  20.125  0.00  0.00    +0.000 HD
ENDBRANCH  22  24
ENDBRANCH  21  22
ENDBRANCH   4  21
TORSDOF 8
ENDMDL
MODEL 3
REMARK VINA RESULT:      -8.9      4.222      8.880
REMARK  Name = 
REMARK  9 active torsions:
REMARK  status: ('A' for Active; 'I' for Inactive)
REMARK    1  A    between atoms: C_1  and  O_2
REMARK    2  A    between atoms: O_2  and  C_3
REMARK    3  A    between atoms: C_6  and  C_7
REMARK    4  A    between atoms: N_9  and  C_10
REMARK    5  A    between atoms: C_10  and  C_11
REMARK    6  A    between atoms: C_11  and  C_12
REMARK    7  A    between atoms: C_15  and  C_16
REMARK    8  A    between atoms: C_16  and  N_17
REMARK    9  A    between atoms: N_17  and  C_18
REMARK                            x       y       z     vdW  Elec       q    Type
REMARK                         _______ _______ _______ _____ _____    ______ ____
ROOT
ATOM      1  C   UNL     1       1.946   3.622  19.075  0.00  0.00    +0.000 A 
ATOM      2  C   UNL     1       1.934   4.678  18.154  0.00  0.00    +0.000 A 
ATOM      3  C   UNL     1       1.905   6.005  18.574  0.00  0.00    +0.000 A 
ATOM      4  C   UNL     1       1.866   6.310  19.939  0.00  0.00    +0.000 A 
ATOM      5  C   UNL     1       1.805   5.262  20.868  0.00  0.00    +0.000 A 
ATOM      6  C   UNL     1       1.854   3.934  20.437  0.00  0.00    +0.000 A 
ENDROOT
BRANCH   1   7
ATOM      7  C   UNL     1       2.025   2.172  18.643  0.00  0.00    +0.000 C 
BRANCH   7   8
ATOM      8  C   UNL     1       3.386   1.767  18.067  0.00  0.00    +0.000 C 
BRANCH   8  11
ATOM      9  C   UNL     1       5.062   3.441  18.748  0.00  0.00    +0.000 C 
ATOM     10  O   UNL     1       5.174   2.971  19.876  0.00  0.00    +0.000 OA
ATOM     11  N   UNL     1       4.247   2.899  17.779  0.00  0.00    +0.000 N 
ATOM     12  H   UNL     1       4.281   3.262  16.836  0.00  0.00    +0.000 HD
BRANCH   9  16
ATOM     13  C   UNL     1       7.201   6.940  17.525  0.00  0.00    +0.000 A 
ATOM     14  C   UNL     1       6.165   6.423  16.745  0.00  0.00    +0.000 A 
ATOM     15  C   UNL     1       5.474   5.284  17.157  0.00  0.00    +0.000 A 
ATOM     16  C   UNL     1       5.820   4.652  18.351  0.00  0.00    +0.000 A 
ATOM     17  C   UNL     1       6.878   5.152  19.120  0.00  0.00    +0.000 A 
ATOM     18  C   UNL     1       7.567   6.295  18.707  0.00  0.00    +0.000 A 
BRANCH  13  20
ATOM     19  C   UNL     1       8.268   8.994  17.992  0.00  0.00    +0.000 C 
ATOM     20  O   UNL     1       7.818   8.051  17.026  0.00  0.00    +0.000 OA
ENDBRANCH  13  20
ENDBRANCH   9  16
ENDBRANCH   8  11
ENDBRANCH   7   8
ENDBRANCH   1   7
BRANCH   4  21
ATOM     21  C   UNL     1       1.862   7.742  20.403  0.00  0.00    +0.000 C 
BRANCH  21  22
ATOM     22  N   UNL     1       0.900   7.897  21.484  0.00  0.00    +0.000 N 
ATOM     23  H   UNL     1       0.147   7.217  21.418  0.00  0.00    +0.000 HD
BRANCH  22  24
ATOM     24  C   UNL     1       0.401   9.168  21.767  0.00  0.00    +0.000 A 
ATOM     25  C   UNL     1      -0.603   9.429  22.699  0.00  0.00    +0.000 A 
ATOM     26  C   UNL     1      -1.026  10.741  22.949  0.00  0.00    +0.000 A 
ATOM     27  C   UNL     1      -0.490  11.814  22.260  0.00  0.00    +0.000 A 
ATOM     28  N   UNL     1      -0.762  13.059  22.650  0.00  0.00    +0.000 NA
ATOM     29  C   UNL     1      -0.185  14.047  21.967  0.00  0.00    +0.000 A 
ATOM     30  N   UNL     1       0.080  15.231  22.641  0.00  0.00    +0.000 N 
ATOM     31  N   UNL     1       0.528  13.913  20.856  0.00  0.00    +0.000 NA
ATOM     32  C   UNL     1       0.835  12.665  20.506  0.00  0.00    +0.000 A 
ATOM     33  N   UNL     1       1.766  12.582  19.464  0.00  0.00    +0.000 N 
ATOM     34  C   UNL     1       0.395  11.548  21.221  0.00  0.00    +0.000 A 
ATOM     35  C   UNL     1       0.841  10.234  20.984  0.00  0.00    +0.000 A 
ATOM     36  H   UNL     1       0.709  14.922  23.379  0.00  0.00    +0.000 HD
ATOM     37  H   UNL     1       0.612  15.774  21.968  0.00  0.00    +0.000 HD
ATOM     38  H   UNL     1       1.871  13.519  19.080  0.00  0.00    +0.000 HD
ATOM     39  H   UNL     1       1.503  11.907  18.760  0.00  0.00    +0.000 HD
ENDBRANCH  22  24
ENDBRANCH  21  22
ENDBRANCH   4  21
TORSDOF 8
ENDMDL
MODEL 4
REMARK VINA RESULT:      -8.9      2.555      3.257
REMARK  Name = 
REMARK  9 active torsions:
REMARK  status: ('A' for Active; 'I' for Inactive)
REMARK    1  A    between atoms: C_1  and  O_2
REMARK    2  A    between atoms: O_2  and  C_3
REMARK    3  A    between atoms: C_6  and  C_7
REMARK    4  A    between atoms: N_9  and  C_10
REMARK    5  A    between atoms: C_10  and  C_11
REMARK    6  A    between atoms: C_11  and  C_12
REMARK    7  A    between atoms: C_15  and  C_16
REMARK    8  A    between atoms: C_16  and  N_17
REMARK    9  A    between atoms: N_17  and  C_18
REMARK                            x       y       z     vdW  Elec       q    Type
REMARK                         _______ _______ _______ _____ _____    ______ ____
ROOT
ATOM      1  C   UNL     1       1.941   6.732  20.189  0.00  0.00    +0.000 A 
ATOM      2  C   UNL     1       2.008   5.458  20.770  0.00  0.00    +0.000 A 
ATOM      3  C   UNL     1       2.251   4.323  20.002  0.00  0.00    +0.000 A 
ATOM      4  C   UNL     1       2.412   4.433  18.616  0.00  0.00    +0.000 A 
ATOM      5  C   UNL     1       2.276   5.692  18.014  0.00  0.00    +0.000 A 
ATOM      6  C   UNL     1       2.051   6.828  18.797  0.00  0.00    +0.000 A 
ENDROOT
BRANCH   1   7
ATOM      7  C   UNL     1       1.725   7.987  21.010  0.00  0.00    +0.000 C 
BRANCH   7   8
ATOM      8  C   UNL     1       0.517   8.820  20.569  0.00  0.00    +0.000 C 
BRANCH   8  11
ATOM      9  C   UNL     1       0.703  11.257  20.879  0.00  0.00    +0.000 C 
ATOM     10  O   UNL     1       0.318  11.208  22.043  0.00  0.00    +0.000 OA
ATOM     11  N   UNL     1       0.875  10.142  20.090  0.00  0.00    +0.000 N 
ATOM     12  H   UNL     1       1.301  10.235  19.178  0.00  0.00    +0.000 HD
BRANCH   9  16
ATOM     13  C   UNL     1       1.531  15.007  18.990  0.00  0.00    +0.000 A 
ATOM     14  C   UNL     1       0.287  14.390  18.846  0.00  0.00    +0.000 A 
ATOM     15  C   UNL     1       0.029  13.170  19.471  0.00  0.00    +0.000 A 
ATOM     16  C   UNL     1       1.019  12.557  20.238  0.00  0.00    +0.000 A 
ATOM     17  C   UNL     1       2.277  13.159  20.358  0.00  0.00    +0.000 A 
ATOM     18  C   UNL     1       2.532  14.383  19.734  0.00  0.00    +0.000 A 
BRANCH  13  20
ATOM     19  C   UNL     1       2.979  16.444  17.802  0.00  0.00    +0.000 C 
ATOM     20  O   UNL     1       1.682  16.193  18.329  0.00  0.00    +0.000 OA
ENDBRANCH  13  20
ENDBRANCH   9  16
ENDBRANCH   8  11
ENDBRANCH   7   8
ENDBRANCH   1   7
BRANCH   4  21
ATOM     21  C   UNL     1       2.702   3.215  17.782  0.00  0.00    +0.000 C 
BRANCH  21  22
ATOM     22  N   UNL     1       4.142   3.029  17.683  0.00  0.00    +0.000 N 
ATOM     23  H   UNL     1       4.510   2.506  18.475  0.00  0.00    +0.000 HD
BRANCH  22  24
ATOM     24  C   UNL     1       4.947   4.130  17.394  0.00  0.00    +0.000 A 
ATOM     25  C   UNL     1       4.924   4.826  16.186  0.00  0.00    +0.000 A 
ATOM     26  C   UNL     1       5.743   5.945  15.987  0.00  0.00    +0.000 A 
ATOM     27  C   UNL     1       6.624   6.375  16.963  0.00  0.00    +0.000 A 
ATOM     28  N   UNL     1       7.244   7.548  16.830  0.00  0.00    +0.000 NA
ATOM     29  C   UNL     1       8.050   7.921  17.823  0.00  0.00    +0.000 A 
ATOM     30  N   UNL     1       8.213   9.282  18.048  0.00  0.00    +0.000 N 
ATOM     31  N   UNL     1       8.397   7.179  18.866  0.00  0.00    +0.000 NA
ATOM     32  C   UNL     1       7.733   6.034  19.015  0.00  0.00    +0.000 A 
ATOM     33  N   UNL     1       7.970   5.395  20.238  0.00  0.00    +0.000 N 
ATOM     34  C   UNL     1       6.766   5.596  18.105  0.00  0.00    +0.000 A 
ATOM     35  C   UNL     1       5.928   4.485  18.320  0.00  0.00    +0.000 A 
ATOM     36  H   UNL     1       7.263   9.579  18.258  0.00  0.00    +0.000 HD
ATOM     37  H   UNL     1       8.761   9.318  18.902  0.00  0.00    +0.000 HD
ATOM     38  H   UNL     1       8.751   5.875  20.680  0.00  0.00    +0.000 HD
ATOM     39  H   UNL     1       8.138   4.404  20.133  0.00  0.00    +0.000 HD
ENDBRANCH  22  24
ENDBRANCH  21  22
ENDBRANCH   4  21
TORSDOF 8
ENDMDL
MODEL 5
REMARK VINA RESULT:      -8.8      1.869      2.548
REMARK  Name = 
REMARK  9 active torsions:
REMARK  status: ('A' for Active; 'I' for Inactive)
REMARK    1  A    between atoms: C_1  and  O_2
REMARK    2  A    between atoms: O_2  and  C_3
REMARK    3  A    between atoms: C_6  and  C_7
REMARK    4  A    between atoms: N_9  and  C_10
REMARK    5  A    between atoms: C_10  and  C_11
REMARK    6  A    between atoms: C_11  and  C_12
REMARK    7  A    between atoms: C_15  and  C_16
REMARK    8  A    between atoms: C_16  and  N_17
REMARK    9  A    between atoms: N_17  and  C_18
REMARK                            x       y       z     vdW  Elec       q    Type
REMARK                         _______ _______ _______ _____ _____    ______ ____
ROOT
ATOM      1  C   UNL     1       1.512   5.906  20.256  0.00  0.00    +0.000 A 
ATOM      2  C   UNL     1       1.219   4.553  20.481  0.00  0.00    +0.000 A 
ATOM      3  C   UNL     1       1.656   3.562  19.607  0.00  0.00    +0.000 A 
ATOM      4  C   UNL     1       2.385   3.905  18.463  0.00  0.00    +0.000 A 
ATOM      5  C   UNL     1       2.623   5.259  18.189  0.00  0.00    +0.000 A 
ATOM      6  C   UNL     1       2.196   6.245  19.083  0.00  0.00    +0.000 A 
ENDROOT
BRANCH   1   7
ATOM      7  C   UNL     1       1.089   6.997  21.218  0.00  0.00    +0.000 C 
BRANCH   7   8
ATOM      8  C   UNL     1       1.478   8.409  20.767  0.00  0.00    +0.000 C 
BRANCH   8  11
ATOM      9  C   UNL     1       0.344  10.575  21.080  0.00  0.00    +0.000 C 
ATOM     10  O   UNL     1       1.317  11.083  21.628  0.00  0.00    +0.000 OA
ATOM     11  N   UNL     1       0.339   9.289  20.586  0.00  0.00    +0.000 N 
ATOM     12  H   UNL     1      -0.452   8.964  20.046  0.00  0.00    +0.000 HD
BRANCH   9  16
ATOM     13  C   UNL     1      -3.300  12.783  20.681  0.00  0.00    +0.000 A 
ATOM     14  C   UNL     1      -2.721  12.574  21.934  0.00  0.00    +0.000 A 
ATOM     15  C   UNL     1      -1.531  11.856  22.050  0.00  0.00    +0.000 A 
ATOM     16  C   UNL     1      -0.917  11.337  20.911  0.00  0.00    +0.000 A 
ATOM     17  C   UNL     1      -1.512  11.520  19.656  0.00  0.00    +0.000 A 
ATOM     18  C   UNL     1      -2.702  12.242  19.543  0.00  0.00    +0.000 A 
BRANCH  13  20
ATOM     19  C   UNL     1      -4.748  14.219  21.869  0.00  0.00    +0.000 C 
ATOM     20  O   UNL     1      -4.468  13.490  20.681  0.00  0.00    +0.000 OA
ENDBRANCH  13  20
ENDBRANCH   9  16
ENDBRANCH   8  11
ENDBRANCH   7   8
ENDBRANCH   1   7
BRANCH   4  21
ATOM     21  C   UNL     1       2.884   2.838  17.527  0.00  0.00    +0.000 C 
BRANCH  21  22
ATOM     22  N   UNL     1       4.336   2.765  17.607  0.00  0.00    +0.000 N 
ATOM     23  H   UNL     1       4.644   2.349  18.483  0.00  0.00    +0.000 HD
BRANCH  22  24
ATOM     24  C   UNL     1       5.087   3.901  17.303  0.00  0.00    +0.000 A 
ATOM     25  C   UNL     1       5.055   4.558  16.074  0.00  0.00    +0.000 A 
ATOM     26  C   UNL     1       5.817   5.714  15.859  0.00  0.00    +0.000 A 
ATOM     27  C   UNL     1       6.648   6.221  16.842  0.00  0.00    +0.000 A 
ATOM     28  N   UNL     1       7.207   7.422  16.687  0.00  0.00    +0.000 NA
ATOM     29  C   UNL     1       7.967   7.869  17.685  0.00  0.00    +0.000 A 
ATOM     30  N   UNL     1       8.050   9.242  17.871  0.00  0.00    +0.000 N 
ATOM     31  N   UNL     1       8.327   7.178  18.759  0.00  0.00    +0.000 NA
ATOM     32  C   UNL     1       7.723   6.002  18.928  0.00  0.00    +0.000 A 
ATOM     33  N   UNL     1       7.964   5.415  20.175  0.00  0.00    +0.000 N 
ATOM     34  C   UNL     1       6.805   5.485  18.010  0.00  0.00    +0.000 A 
ATOM     35  C   UNL     1       6.023   4.337  18.240  0.00  0.00    +0.000 A 
ATOM     36  H   UNL     1       7.080   9.492  18.050  0.00  0.00    +0.000 HD
ATOM     37  H   UNL     1       8.573   9.334  18.736  0.00  0.00    +0.000 HD
ATOM     38  H   UNL     1       8.708   5.950  20.620  0.00  0.00    +0.000 HD
ATOM     39  H   UNL     1       8.189   4.432  20.105  0.00  0.00    +0.000 HD
ENDBRANCH  22  24
ENDBRANCH  21  22
ENDBRANCH   4  21
TORSDOF 8
ENDMDL
MODEL 6
REMARK VINA RESULT:      -8.8      4.179      9.304
REMARK  Name = 
REMARK  9 active torsions:
REMARK  status: ('A' for Active; 'I' for Inactive)
REMARK    1  A    between atoms: C_1  and  O_2
REMARK    2  A    between atoms: O_2  and  C_3
REMARK    3  A    between atoms: C_6  and  C_7
REMARK    4  A    between atoms: N_9  and  C_10
REMARK    5  A    between atoms: C_10  and  C_11
REMARK    6  A    between atoms: C_11  and  C_12
REMARK    7  A    between atoms: C_15  and  C_16
REMARK    8  A    between atoms: C_16  and  N_17
REMARK    9  A    between atoms: N_17  and  C_18
REMARK                            x       y       z     vdW  Elec       q    Type
REMARK                         _______ _______ _______ _____ _____    ______ ____
ROOT
ATOM      1  C   UNL     1       1.718   3.836  19.150  0.00  0.00    +0.000 A 
ATOM      2  C   UNL     1       1.871   4.771  18.117  0.00  0.00    +0.000 A 
ATOM      3  C   UNL     1       1.948   6.136  18.381  0.00  0.00    +0.000 A 
ATOM      4  C   UNL     1       1.851   6.604  19.696  0.00  0.00    +0.000 A 
ATOM      5  C   UNL     1       1.626   5.685  20.731  0.00  0.00    +0.000 A 
ATOM      6  C   UNL     1       1.569   4.315  20.457  0.00  0.00    +0.000 A 
ENDROOT
BRANCH   1   7
ATOM      7  C   UNL     1       1.680   2.344  18.892  0.00  0.00    +0.000 C 
BRANCH   7   8
ATOM      8  C   UNL     1       3.063   1.690  18.809  0.00  0.00    +0.000 C 
BRANCH   8  11
ATOM      9  C   UNL     1       4.887   3.212  18.155  0.00  0.00    +0.000 C 
ATOM     10  O   UNL     1       5.135   3.525  19.315  0.00  0.00    +0.000 OA
ATOM     11  N   UNL     1       3.923   2.292  17.808  0.00  0.00    +0.000 N 
ATOM     12  H   UNL     1       3.841   1.992  16.845  0.00  0.00    +0.000 HD
BRANCH   9  16
ATOM     13  C   UNL     1       7.103   5.002  14.960  0.00  0.00    +0.000 A 
ATOM     14  C   UNL     1       7.569   5.056  16.275  0.00  0.00    +0.000 A 
ATOM     15  C   UNL     1       6.839   4.465  17.306  0.00  0.00    +0.000 A 
ATOM     16  C   UNL     1       5.634   3.822  17.027  0.00  0.00    +0.000 A 
ATOM     17  C   UNL     1       5.150   3.794  15.713  0.00  0.00    +0.000 A 
ATOM     18  C   UNL     1       5.885   4.383  14.682  0.00  0.00    +0.000 A 
BRANCH  13  20
ATOM     19  C   UNL     1       7.734   5.163  12.691  0.00  0.00    +0.000 C 
ATOM     20  O   UNL     1       7.888   5.620  14.030  0.00  0.00    +0.000 OA
ENDBRANCH  13  20
ENDBRANCH   9  16
ENDBRANCH   8  11
ENDBRANCH   7   8
ENDBRANCH   1   7
BRANCH   4  21
ATOM     21  C   UNL     1       1.960   8.076  19.994  0.00  0.00    +0.000 C 
BRANCH  21  22
ATOM     22  N   UNL     1       1.660   8.308  21.399  0.00  0.00    +0.000 N 
ATOM     23  H   UNL     1       1.462   7.439  21.890  0.00  0.00    +0.000 HD
BRANCH  22  24
ATOM     24  C   UNL     1       0.734   9.295  21.737  0.00  0.00    +0.000 A 
ATOM     25  C   UNL     1      -0.008   9.305  22.918  0.00  0.00    +0.000 A 
ATOM     26  C   UNL     1      -0.895  10.352  23.198  0.00  0.00    +0.000 A 
ATOM     27  C   UNL     1      -1.091  11.389  22.304  0.00  0.00    +0.000 A 
ATOM     28  N   UNL     1      -1.783  12.466  22.674  0.00  0.00    +0.000 NA
ATOM     29  C   UNL     1      -1.904  13.445  21.778  0.00  0.00    +0.000 A 
ATOM     30  N   UNL     1      -2.037  14.743  22.252  0.00  0.00    +0.000 N 
ATOM     31  N   UNL     1      -1.514  13.394  20.511  0.00  0.00    +0.000 NA
ATOM     32  C   UNL     1      -0.780  12.337  20.168  0.00  0.00    +0.000 A 
ATOM     33  N   UNL     1      -0.208  12.433  18.894  0.00  0.00    +0.000 N 
ATOM     34  C   UNL     1      -0.475  11.305  21.060  0.00  0.00    +0.000 A 
ATOM     35  C   UNL     1       0.436  10.267  20.784  0.00  0.00    +0.000 A 
ATOM     36  H   UNL     1      -1.172  14.870  22.773  0.00  0.00    +0.000 HD
ATOM     37  H   UNL     1      -1.994  15.310  21.411  0.00  0.00    +0.000 HD
ATOM     38  H   UNL     1      -0.635  13.234  18.434  0.00  0.00    +0.000 HD
ATOM     39  H   UNL     1      -0.310  11.583  18.357  0.00  0.00    +0.000 HD
ENDBRANCH  22  24
ENDBRANCH  21  22
ENDBRANCH   4  21
TORSDOF 8
ENDMDL
MODEL 7
REMARK VINA RESULT:      -8.7      3.598      9.368
REMARK  Name = 
REMARK  9 active torsions:
REMARK  status: ('A' for Active; 'I' for Inactive)
REMARK    1  A    between atoms: C_1  and  O_2
REMARK    2  A    between atoms: O_2  and  C_3
REMARK    3  A    between atoms: C_6  and  C_7
REMARK    4  A    between atoms: N_9  and  C_10
REMARK    5  A    between atoms: C_10  and  C_11
REMARK    6  A    between atoms: C_11  and  C_12
REMARK    7  A    between atoms: C_15  and  C_16
REMARK    8  A    between atoms: C_16  and  N_17
REMARK    9  A    between atoms: N_17  and  C_18
REMARK                            x       y       z     vdW  Elec       q    Type
REMARK                         _______ _______ _______ _____ _____    ______ ____
ROOT
ATOM      1  C   UNL     1       2.150   4.991  19.525  0.00  0.00    +0.000 A 
ATOM      2  C   UNL     1       2.323   6.133  20.320  0.00  0.00    +0.000 A 
ATOM      3  C   UNL     1       2.226   7.413  19.780  0.00  0.00    +0.000 A 
ATOM      4  C   UNL     1       1.973   7.582  18.414  0.00  0.00    +0.000 A 
ATOM      5  C   UNL     1       1.869   6.448  17.596  0.00  0.00    +0.000 A 
ATOM      6  C   UNL     1       1.949   5.168  18.151  0.00  0.00    +0.000 A 
ENDROOT
BRANCH   1   7
ATOM      7  C   UNL     1       2.204   3.590  20.099  0.00  0.00    +0.000 C 
BRANCH   7   8
ATOM      8  C   UNL     1       3.559   2.896  19.923  0.00  0.00    +0.000 C 
BRANCH   8  11
ATOM      9  C   UNL     1       5.271   4.034  18.563  0.00  0.00    +0.000 C 
ATOM     10  O   UNL     1       5.813   4.536  19.542  0.00  0.00    +0.000 OA
ATOM     11  N   UNL     1       4.190   3.184  18.649  0.00  0.00    +0.000 N 
ATOM     12  H   UNL     1       3.856   2.713  17.818  0.00  0.00    +0.000 HD
BRANCH   9  16
ATOM     13  C   UNL     1       6.770   4.868  14.642  0.00  0.00    +0.000 A 
ATOM     14  C   UNL     1       7.619   4.870  15.751  0.00  0.00    +0.000 A 
ATOM     15  C   UNL     1       7.118   4.592  17.023  0.00  0.00    +0.000 A 
ATOM     16  C   UNL     1       5.762   4.318  17.193  0.00  0.00    +0.000 A 
ATOM     17  C   UNL     1       4.904   4.345  16.086  0.00  0.00    +0.000 A 
ATOM     18  C   UNL     1       5.409   4.619  14.813  0.00  0.00    +0.000 A 
BRANCH  13  20
ATOM     19  C   UNL     1       7.105   4.243  12.391  0.00  0.00    +0.000 C 
ATOM     20  O   UNL     1       7.360   5.161  13.447  0.00  0.00    +0.000 OA
ENDBRANCH  13  20
ENDBRANCH   9  16
ENDBRANCH   8  11
ENDBRANCH   7   8
ENDBRANCH   1   7
BRANCH   4  21
ATOM     21  C   UNL     1       1.839   8.961  17.827  0.00  0.00    +0.000 C 
BRANCH  21  22
ATOM     22  N   UNL     1       1.414   9.889  18.865  0.00  0.00    +0.000 N 
ATOM     23  H   UNL     1       1.682   9.566  19.791  0.00  0.00    +0.000 HD
BRANCH  22  24
ATOM     24  C   UNL     1       0.099  10.352  18.859  0.00  0.00    +0.000 A 
ATOM     25  C   UNL     1      -0.507  11.012  19.927  0.00  0.00    +0.000 A 
ATOM     26  C   UNL     1      -1.825  11.476  19.829  0.00  0.00    +0.000 A 
ATOM     27  C   UNL     1      -2.579  11.266  18.688  0.00  0.00    +0.000 A 
ATOM     28  N   UNL     1      -3.752  11.883  18.543  0.00  0.00    +0.000 NA
ATOM     29  C   UNL     1      -4.411  11.668  17.405  0.00  0.00    +0.000 A 
ATOM     30  N   UNL     1      -5.244  12.677  16.939  0.00  0.00    +0.000 N 
ATOM     31  N   UNL     1      -4.075  10.797  16.463  0.00  0.00    +0.000 NA
ATOM     32  C   UNL     1      -2.879  10.226  16.595  0.00  0.00    +0.000 A 
ATOM     33  N   UNL     1      -2.475   9.491  15.474  0.00  0.00    +0.000 N 
ATOM     34  C   UNL     1      -2.037  10.474  17.683  0.00  0.00    +0.000 A 
ATOM     35  C   UNL     1      -0.705  10.027  17.767  0.00  0.00    +0.000 A 
ATOM     36  H   UNL     1      -4.592  13.448  16.809  0.00  0.00    +0.000 HD
ATOM     37  H   UNL     1      -5.536  12.342  16.026  0.00  0.00    +0.000 HD
ATOM     38  H   UNL     1      -3.283   9.412  14.860  0.00  0.00    +0.000 HD
ATOM     39  H   UNL     1      -2.089   8.590  15.718  0.00  0.00    +0.000 HD
ENDBRANCH  22  24
ENDBRANCH  21  22
ENDBRANCH   4  21
TORSDOF 8
ENDMDL
MODEL 8
REMARK VINA RESULT:      -8.7      3.938      7.047
REMARK  Name = 
REMARK  9 active torsions:
REMARK  status: ('A' for Active; 'I' for Inactive)
REMARK    1  A    between atoms: C_1  and  O_2
REMARK    2  A    between atoms: O_2  and  C_3
REMARK    3  A    between atoms: C_6  and  C_7
REMARK    4  A    between atoms: N_9  and  C_10
REMARK    5  A    between atoms: C_10  and  C_11
REMARK    6  A    between atoms: C_11  and  C_12
REMARK    7  A    between atoms: C_15  and  C_16
REMARK    8  A    between atoms: C_16  and  N_17
REMARK    9  A    between atoms: N_17  and  C_18
REMARK                            x       y       z     vdW  Elec       q    Type
REMARK                         _______ _______ _______ _____ _____    ______ ____
ROOT
ATOM      1  C   UNL     1       6.234   5.396  17.309  0.00  0.00    +0.000 A 
ATOM      2  C   UNL     1       6.294   6.636  16.657  0.00  0.00    +0.000 A 
ATOM      3  C   UNL     1       7.129   7.653  17.110  0.00  0.00    +0.000 A 
ATOM      4  C   UNL     1       7.916   7.461  18.251  0.00  0.00    +0.000 A 
ATOM      5  C   UNL     1       7.812   6.252  18.953  0.00  0.00    +0.000 A 
ATOM      6  C   UNL     1       6.985   5.230  18.479  0.00  0.00    +0.000 A 
ENDROOT
BRANCH   1   7
ATOM      7  C   UNL     1       5.369   4.258  16.807  0.00  0.00    +0.000 C 
BRANCH   7   8
ATOM      8  C   UNL     1       3.981   4.199  17.454  0.00  0.00    +0.000 C 
BRANCH   8  11
ATOM      9  C   UNL     1       3.069   5.954  18.923  0.00  0.00    +0.000 C 
ATOM     10  O   UNL     1       3.328   5.328  19.946  0.00  0.00    +0.000 OA
ATOM     11  N   UNL     1       3.388   5.507  17.661  0.00  0.00    +0.000 N 
ATOM     12  H   UNL     1       3.251   6.115  16.865  0.00  0.00    +0.000 HD
BRANCH   9  16
ATOM     13  C   UNL     1       1.066   9.726  19.199  0.00  0.00    +0.000 A 
ATOM     14  C   UNL     1       1.199   8.900  20.318  0.00  0.00    +0.000 A 
ATOM     15  C   UNL     1       1.858   7.676  20.215  0.00  0.00    +0.000 A 
ATOM     16  C   UNL     1       2.382   7.267  18.989  0.00  0.00    +0.000 A 
ATOM     17  C   UNL     1       2.223   8.080  17.860  0.00  0.00    +0.000 A 
ATOM     18  C   UNL     1       1.566   9.308  17.966  0.00  0.00    +0.000 A 
BRANCH  13  20
ATOM     19  C   UNL     1      -0.862  11.013  18.753  0.00  0.00    +0.000 C 
ATOM     20  O   UNL     1       0.396  10.898  19.407  0.00  0.00    +0.000 OA
ENDBRANCH  13  20
ENDBRANCH   9  16
ENDBRANCH   8  11
ENDBRANCH   7   8
ENDBRANCH   1   7
BRANCH   4  21
ATOM     21  C   UNL     1       8.842   8.545  18.732  0.00  0.00    +0.000 C 
BRANCH  21  22
ATOM     22  N   UNL     1       8.455   9.813  18.130  0.00  0.00    +0.000 N 
ATOM     23  H   UNL     1       8.328   9.729  17.125  0.00  0.00    +0.000 HD
BRANCH  22  24
ATOM     24  C   UNL     1       9.181  10.961  18.448  0.00  0.00    +0.000 A 
ATOM     25  C   UNL     1      10.344  10.968  19.218  0.00  0.00    +0.000 A 
ATOM     26  C   UNL     1      11.033  12.162  19.464  0.00  0.00    +0.000 A 
ATOM     27  C   UNL     1      10.569  13.374  18.984  0.00  0.00    +0.000 A 
ATOM     28  N   UNL     1      11.339  14.459  19.062  0.00  0.00    +0.000 NA
ATOM     29  C   UNL     1      10.849  15.586  18.547  0.00  0.00    +0.000 A 
ATOM     30  N   UNL     1      11.751  16.517  18.049  0.00  0.00    +0.000 N 
ATOM     31  N   UNL     1       9.617  15.761  18.086  0.00  0.00    +0.000 NA
ATOM     32  C   UNL     1       8.876  14.660  17.967  0.00  0.00    +0.000 A 
ATOM     33  N   UNL     1       7.676  14.857  17.274  0.00  0.00    +0.000 N 
ATOM     34  C   UNL     1       9.332  13.396  18.352  0.00  0.00    +0.000 A 
ATOM     35  C   UNL     1       8.648  12.195  18.081  0.00  0.00    +0.000 A 
ATOM     36  H   UNL     1      12.218  15.989  17.315  0.00  0.00    +0.000 HD
ATOM     37  H   UNL     1      11.156  17.217  17.616  0.00  0.00    +0.000 HD
ATOM     38  H   UNL     1       7.554  15.861  17.165  0.00  0.00    +0.000 HD
ATOM     39  H   UNL     1       6.887  14.422  17.732  0.00  0.00    +0.000 HD
ENDBRANCH  22  24
ENDBRANCH  21  22
ENDBRANCH   4  21
TORSDOF 8
ENDMDL
MODEL 9
REMARK VINA RESULT:      -8.7      3.691      9.929
REMARK  Name = 
REMARK  9 active torsions:
REMARK  status: ('A' for Active; 'I' for Inactive)
REMARK    1  A    between atoms: C_1  and  O_2
REMARK    2  A    between atoms: O_2  and  C_3
REMARK    3  A    between atoms: C_6  and  C_7
REMARK    4  A    between atoms: N_9  and  C_10
REMARK    5  A    between atoms: C_10  and  C_11
REMARK    6  A    between atoms: C_11  and  C_12
REMARK    7  A    between atoms: C_15  and  C_16
REMARK    8  A    between atoms: C_16  and  N_17
REMARK    9  A    between atoms: N_17  and  C_18
REMARK                            x       y       z     vdW  Elec       q    Type
REMARK                         _______ _______ _______ _____ _____    ______ ____
ROOT
ATOM      1  C   UNL     1       1.989   6.333  20.143  0.00  0.00    +0.000 A 
ATOM      2  C   UNL     1       1.513   7.392  20.928  0.00  0.00    +0.000 A 
ATOM      3  C   UNL     1       1.307   8.659  20.388  0.00  0.00    +0.000 A 
ATOM      4  C   UNL     1       1.595   8.905  19.041  0.00  0.00    +0.000 A 
ATOM      5  C   UNL     1       2.139   7.872  18.263  0.00  0.00    +0.000 A 
ATOM      6  C   UNL     1       2.324   6.600  18.810  0.00  0.00    +0.000 A 
ENDROOT
BRANCH   1   7
ATOM      7  C   UNL     1       2.176   4.935  20.696  0.00  0.00    +0.000 C 
BRANCH   7   8
ATOM      8  C   UNL     1       2.203   3.840  19.624  0.00  0.00    +0.000 C 
BRANCH   8  11
ATOM      9  C   UNL     1       4.481   3.743  18.691  0.00  0.00    +0.000 C 
ATOM     10  O   UNL     1       4.924   3.128  19.655  0.00  0.00    +0.000 OA
ATOM     11  N   UNL     1       3.157   4.099  18.562  0.00  0.00    +0.000 N 
ATOM     12  H   UNL     1       2.830   4.506  17.696  0.00  0.00    +0.000 HD
BRANCH   9  16
ATOM     13  C   UNL     1       6.981   4.891  15.412  0.00  0.00    +0.000 A 
ATOM     14  C   UNL     1       5.684   4.422  15.195  0.00  0.00    +0.000 A 
ATOM     15  C   UNL     1       4.878   4.055  16.273  0.00  0.00    +0.000 A 
ATOM     16  C   UNL     1       5.370   4.149  17.575  0.00  0.00    +0.000 A 
ATOM     17  C   UNL     1       6.681   4.591  17.791  0.00  0.00    +0.000 A 
ATOM     18  C   UNL     1       7.485   4.961  16.711  0.00  0.00    +0.000 A 
BRANCH  13  20
ATOM     19  C   UNL     1       7.173   4.697  13.067  0.00  0.00    +0.000 C 
ATOM     20  O   UNL     1       7.688   5.213  14.289  0.00  0.00    +0.000 OA
ENDBRANCH  13  20
ENDBRANCH   9  16
ENDBRANCH   8  11
ENDBRANCH   7   8
ENDBRANCH   1   7
BRANCH   4  21
ATOM     21  C   UNL     1       1.350  10.263  18.442  0.00  0.00    +0.000 C 
BRANCH  21  22
ATOM     22  N   UNL     1       0.290  10.932  19.181  0.00  0.00    +0.000 N 
ATOM     23  H   UNL     1       0.320  10.705  20.172  0.00  0.00    +0.000 HD
BRANCH  22  24
ATOM     24  C   UNL     1      -1.016  10.870  18.695  0.00  0.00    +0.000 A 
ATOM     25  C   UNL     1      -1.418  10.073  17.623  0.00  0.00    +0.000 A 
ATOM     26  C   UNL     1      -2.758  10.042  17.217  0.00  0.00    +0.000 A 
ATOM     27  C   UNL     1      -3.718  10.822  17.837  0.00  0.00    +0.000 A 
ATOM     28  N   UNL     1      -5.009  10.631  17.567  0.00  0.00    +0.000 NA
ATOM     29  C   UNL     1      -5.884  11.389  18.226  0.00  0.00    +0.000 A 
ATOM     30  N   UNL     1      -7.146  10.862  18.465  0.00  0.00    +0.000 N 
ATOM     31  N   UNL     1      -5.587  12.406  19.025  0.00  0.00    +0.000 NA
ATOM     32  C   UNL     1      -4.298  12.554  19.327  0.00  0.00    +0.000 A 
ATOM     33  N   UNL     1      -4.057  13.490  20.339  0.00  0.00    +0.000 N 
ATOM     34  C   UNL     1      -3.297  11.734  18.799  0.00  0.00    +0.000 A 
ATOM     35  C   UNL     1      -1.956  11.750  19.227  0.00  0.00    +0.000 A 
ATOM     36  H   UNL     1      -6.932  10.038  19.021  0.00  0.00    +0.000 HD
ATOM     37  H   UNL     1      -7.582  11.555  19.066  0.00  0.00    +0.000 HD
ATOM     38  H   UNL     1      -4.930  13.988  20.502  0.00  0.00    +0.000 HD
ATOM     39  H   UNL     1      -3.295  14.116  20.118  0.00  0.00    +0.000 HD
ENDBRANCH  22  24
ENDBRANCH  21  22
ENDBRANCH   4  21
TORSDOF 8
ENDMDL
