MODEL 1
REMARK VINA RESULT:      -7.6      0.000      0.000
REMARK  Name = 
REMARK  3 active torsions:
REMARK  status: ('A' for Active; 'I' for Inactive)
REMARK    1  A    between atoms: C_2  and  C_3
REMARK    2  A    between atoms: C_6  and  C_7
REMARK    3  A    between atoms: C_7  and  N_8
REMARK                            x       y       z     vdW  Elec       q    Type
REMARK                         _______ _______ _______ _____ _____    ______ ____
ROOT
ATOM      1  N   UNL     1       5.631   4.786  16.398  0.00  0.00    +0.000 N 
ATOM      2  C   UNL     1       5.349   5.844  15.575  0.00  0.00    +0.000 A 
ATOM      3  N   UNL     1       5.997   6.933  15.933  0.00  0.00    +0.000 NA
ATOM      4  C   UNL     1       6.723   6.567  17.050  0.00  0.00    +0.000 A 
ATOM      5  C   UNL     1       7.577   7.225  17.921  0.00  0.00    +0.000 A 
ATOM      6 CL   UNL     1       7.880   8.877  17.691  0.00  0.00    +0.000 Cl
ATOM      7  N   UNL     1       8.151   6.601  18.969  0.00  0.00    +0.000 NA
ATOM      8  C   UNL     1       7.851   5.300  19.127  0.00  0.00    +0.000 A 
ATOM      9  N   UNL     1       7.037   4.532  18.374  0.00  0.00    +0.000 NA
ATOM     10  C   UNL     1       6.512   5.228  17.348  0.00  0.00    +0.000 A 
ENDROOT
BRANCH   1  11
ATOM     11  C   UNL     1       4.965   3.500  16.382  0.00  0.00    +0.000 C 
BRANCH  11  15
ATOM     12  C   UNL     1       1.789   3.345  19.320  0.00  0.00    +0.000 A 
ATOM     13  C   UNL     1       2.680   2.274  19.173  0.00  0.00    +0.000 A 
ATOM     14  C   UNL     1       3.678   2.307  18.195  0.00  0.00    +0.000 A 
ATOM     15  C   UNL     1       3.814   3.420  17.353  0.00  0.00    +0.000 A 
ATOM     16  C   UNL     1       2.900   4.474  17.475  0.00  0.00    +0.000 A 
ATOM     17  C   UNL     1       1.901   4.439  18.453  0.00  0.00    +0.000 A 
BRANCH  12  19
ATOM     18 CL   UNL     1       1.443   2.563  21.877  0.00  0.00    +0.000 Cl
ATOM     19  C   UNL     1       0.773   3.346  20.428  0.00  0.00    +0.000 C 
ENDBRANCH  12  19
ENDBRANCH  11  15
ENDBRANCH   1  11
TORSDOF 3
ENDMDL
MODEL 2
REMARK VINA RESULT:      -7.4      0.150      1.116
REMARK  Name = 
REMARK  3 active torsions:
REMARK  status: ('A' for Active; 'I' for Inactive)
REMARK    1  A    between atoms: C_2  and  C_3
REMARK    2  A    between atoms: C_6  and  C_7
REMARK    3  A    between atoms: C_7  and  N_8
REMARK                            x       y       z     vdW  Elec       q    Type
REMARK                         _______ _______ _______ _____ _____    ______ ____
ROOT
ATOM      1  N   UNL     1       5.589   4.885  16.404  0.00  0.00    +0.000 N 
ATOM      2  C   UNL     1       5.331   5.964  15.600  0.00  0.00    +0.000 A 
ATOM      3  N   UNL     1       6.018   7.026  15.966  0.00  0.00    +0.000 NA
ATOM      4  C   UNL     1       6.746   6.620  17.067  0.00  0.00    +0.000 A 
ATOM      5  C   UNL     1       7.632   7.237  17.937  0.00  0.00    +0.000 A 
ATOM      6 CL   UNL     1       7.984   8.882  17.727  0.00  0.00    +0.000 Cl
ATOM      7  N   UNL     1       8.199   6.580  18.968  0.00  0.00    +0.000 NA
ATOM      8  C   UNL     1       7.860   5.287  19.111  0.00  0.00    +0.000 A 
ATOM      9  N   UNL     1       7.012   4.557  18.357  0.00  0.00    +0.000 NA
ATOM     10  C   UNL     1       6.496   5.284  17.349  0.00  0.00    +0.000 A 
ENDROOT
BRANCH   1  11
ATOM     11  C   UNL     1       4.882   3.622  16.378  0.00  0.00    +0.000 C 
BRANCH  11  15
ATOM     12  C   UNL     1       1.777   3.204  19.366  0.00  0.00    +0.000 A 
ATOM     13  C   UNL     1       1.870   4.366  18.589  0.00  0.00    +0.000 A 
ATOM     14  C   UNL     1       2.899   4.518  17.655  0.00  0.00    +0.000 A 
ATOM     15  C   UNL     1       3.848   3.502  17.468  0.00  0.00    +0.000 A 
ATOM     16  C   UNL     1       3.778   2.357  18.272  0.00  0.00    +0.000 A 
ATOM     17  C   UNL     1       2.749   2.207  19.207  0.00  0.00    +0.000 A 
BRANCH  12  19
ATOM     18 CL   UNL     1       1.215   2.563  21.924  0.00  0.00    +0.000 Cl
ATOM     19  C   UNL     1       0.622   3.005  20.307  0.00  0.00    +0.000 C 
ENDBRANCH  12  19
ENDBRANCH  11  15
ENDBRANCH   1  11
TORSDOF 3
ENDMDL
MODEL 3
REMARK VINA RESULT:      -7.2      2.203      6.149
REMARK  Name = 
REMARK  3 active torsions:
REMARK  status: ('A' for Active; 'I' for Inactive)
REMARK    1  A    between atoms: C_2  and  C_3
REMARK    2  A    between atoms: C_6  and  C_7
REMARK    3  A    between atoms: C_7  and  N_8
REMARK                            x       y       z     vdW  Elec       q    Type
REMARK                         _______ _______ _______ _____ _____    ______ ____
ROOT
ATOM      1  N   UNL     1       3.626   3.479  17.586  0.00  0.00    +0.000 N 
ATOM      2  C   UNL     1       3.584   2.149  17.913  0.00  0.00    +0.000 A 
ATOM      3  N   UNL     1       2.962   1.943  19.055  0.00  0.00    +0.000 NA
ATOM      4  C   UNL     1       2.597   3.200  19.496  0.00  0.00    +0.000 A 
ATOM      5  C   UNL     1       1.953   3.694  20.620  0.00  0.00    +0.000 A 
ATOM      6 CL   UNL     1       1.456   2.615  21.829  0.00  0.00    +0.000 Cl
ATOM      7  N   UNL     1       1.738   5.012  20.801  0.00  0.00    +0.000 NA
ATOM      8  C   UNL     1       2.182   5.829  19.829  0.00  0.00    +0.000 A 
ATOM      9  N   UNL     1       2.829   5.500  18.691  0.00  0.00    +0.000 NA
ATOM     10  C   UNL     1       2.997   4.169  18.586  0.00  0.00    +0.000 A 
ENDROOT
BRANCH   1  11
ATOM     11  C   UNL     1       4.374   4.056  16.488  0.00  0.00    +0.000 C 
BRANCH  11  15
ATOM     12  C   UNL     1       7.435   6.737  17.968  0.00  0.00    +0.000 A 
ATOM     13  C   UNL     1       6.408   7.211  17.141  0.00  0.00    +0.000 A 
ATOM     14  C   UNL     1       5.446   6.337  16.628  0.00  0.00    +0.000 A 
ATOM     15  C   UNL     1       5.482   4.971  16.946  0.00  0.00    +0.000 A 
ATOM     16  C   UNL     1       6.530   4.491  17.741  0.00  0.00    +0.000 A 
ATOM     17  C   UNL     1       7.493   5.366  18.252  0.00  0.00    +0.000 A 
BRANCH  12  19
ATOM     18 CL   UNL     1       8.173   9.330  17.943  0.00  0.00    +0.000 Cl
ATOM     19  C   UNL     1       8.417   7.691  18.587  0.00  0.00    +0.000 C 
ENDBRANCH  12  19
ENDBRANCH  11  15
ENDBRANCH   1  11
TORSDOF 3
ENDMDL
MODEL 4
REMARK VINA RESULT:      -7.2      3.183      5.905
REMARK  Name = 
REMARK  3 active torsions:
REMARK  status: ('A' for Active; 'I' for Inactive)
REMARK    1  A    between atoms: C_2  and  C_3
REMARK    2  A    between atoms: C_6  and  C_7
REMARK    3  A    between atoms: C_7  and  N_8
REMARK                            x       y       z     vdW  Elec       q    Type
REMARK                         _______ _______ _______ _____ _____    ______ ____
ROOT
ATOM      1  N   UNL     1       4.864   5.460  18.382  0.00  0.00    +0.000 N 
ATOM      2  C   UNL     1       3.830   6.347  18.242  0.00  0.00    +0.000 A 
ATOM      3  N   UNL     1       2.732   5.919  18.828  0.00  0.00    +0.000 NA
ATOM      4  C   UNL     1       3.066   4.690  19.363  0.00  0.00    +0.000 A 
ATOM      5  C   UNL     1       2.384   3.710  20.068  0.00  0.00    +0.000 A 
ATOM      6 CL   UNL     1       0.740   3.934  20.412  0.00  0.00    +0.000 Cl
ATOM      7  N   UNL     1       2.978   2.567  20.462  0.00  0.00    +0.000 NA
ATOM      8  C   UNL     1       4.275   2.423  20.134  0.00  0.00    +0.000 A 
ATOM      9  N   UNL     1       5.063   3.277  19.449  0.00  0.00    +0.000 NA
ATOM     10  C   UNL     1       4.396   4.392  19.099  0.00  0.00    +0.000 A 
ENDROOT
BRANCH   1  11
ATOM     11  C   UNL     1       6.150   5.549  17.721  0.00  0.00    +0.000 C 
BRANCH  11  15
ATOM     12  C   UNL     1       6.173   4.003  13.676  0.00  0.00    +0.000 A 
ATOM     13  C   UNL     1       7.166   4.892  14.107  0.00  0.00    +0.000 A 
ATOM     14  C   UNL     1       7.132   5.425  15.399  0.00  0.00    +0.000 A 
ATOM     15  C   UNL     1       6.113   5.065  16.293  0.00  0.00    +0.000 A 
ATOM     16  C   UNL     1       5.100   4.205  15.850  0.00  0.00    +0.000 A 
ATOM     17  C   UNL     1       5.133   3.675  14.556  0.00  0.00    +0.000 A 
BRANCH  12  19
ATOM     18 CL   UNL     1       4.644   3.280  11.577  0.00  0.00    +0.000 Cl
ATOM     19  C   UNL     1       6.258   3.365  12.318  0.00  0.00    +0.000 C 
ENDBRANCH  12  19
ENDBRANCH  11  15
ENDBRANCH   1  11
TORSDOF 3
ENDMDL
MODEL 5
REMARK VINA RESULT:      -7.2      3.162      5.871
REMARK  Name = 
REMARK  3 active torsions:
REMARK  status: ('A' for Active; 'I' for Inactive)
REMARK    1  A    between atoms: C_2  and  C_3
REMARK    2  A    between atoms: C_6  and  C_7
REMARK    3  A    between atoms: C_7  and  N_8
REMARK                            x       y       z     vdW  Elec       q    Type
REMARK                         _______ _______ _______ _____ _____    ______ ____
ROOT
ATOM      1  N   UNL     1       4.785   5.556  18.301  0.00  0.00    +0.000 N 
ATOM      2  C   UNL     1       3.694   6.365  18.131  0.00  0.00    +0.000 A 
ATOM      3  N   UNL     1       2.616   5.863  18.696  0.00  0.00    +0.000 NA
ATOM      4  C   UNL     1       3.026   4.664  19.247  0.00  0.00    +0.000 A 
ATOM      5  C   UNL     1       2.400   3.642  19.943  0.00  0.00    +0.000 A 
ATOM      6 CL   UNL     1       0.736   3.749  20.248  0.00  0.00    +0.000 Cl
ATOM      7  N   UNL     1       3.065   2.546  20.359  0.00  0.00    +0.000 NA
ATOM      8  C   UNL     1       4.376   2.494  20.062  0.00  0.00    +0.000 A 
ATOM      9  N   UNL     1       5.116   3.399  19.388  0.00  0.00    +0.000 NA
ATOM     10  C   UNL     1       4.379   4.462  19.015  0.00  0.00    +0.000 A 
ENDROOT
BRANCH   1  11
ATOM     11  C   UNL     1       6.076   5.733  17.668  0.00  0.00    +0.000 C 
BRANCH  11  15
ATOM     12  C   UNL     1       6.233   3.996  13.705  0.00  0.00    +0.000 A 
ATOM     13  C   UNL     1       5.119   3.794  14.531  0.00  0.00    +0.000 A 
ATOM     14  C   UNL     1       5.088   4.319  15.826  0.00  0.00    +0.000 A 
ATOM     15  C   UNL     1       6.166   5.070  16.317  0.00  0.00    +0.000 A 
ATOM     16  C   UNL     1       7.296   5.240  15.505  0.00  0.00    +0.000 A 
ATOM     17  C   UNL     1       7.326   4.712  14.211  0.00  0.00    +0.000 A 
BRANCH  12  19
ATOM     18 CL   UNL     1       4.559   3.306  11.708  0.00  0.00    +0.000 Cl
ATOM     19  C   UNL     1       6.229   3.505  12.285  0.00  0.00    +0.000 C 
ENDBRANCH  12  19
ENDBRANCH  11  15
ENDBRANCH   1  11
TORSDOF 3
ENDMDL
MODEL 6
REMARK VINA RESULT:      -7.1      3.267      6.210
REMARK  Name = 
REMARK  3 active torsions:
REMARK  status: ('A' for Active; 'I' for Inactive)
REMARK    1  A    between atoms: C_2  and  C_3
REMARK    2  A    between atoms: C_6  and  C_7
REMARK    3  A    between atoms: C_7  and  N_8
REMARK                            x       y       z     vdW  Elec       q    Type
REMARK                         _______ _______ _______ _____ _____    ______ ____
ROOT
ATOM      1  N   UNL     1       4.814   4.358  18.835  0.00  0.00    +0.000 N 
ATOM      2  C   UNL     1       4.919   3.025  19.132  0.00  0.00    +0.000 A 
ATOM      3  N   UNL     1       3.920   2.608  19.882  0.00  0.00    +0.000 NA
ATOM      4  C   UNL     1       3.137   3.727  20.091  0.00  0.00    +0.000 A 
ATOM      5  C   UNL     1       1.977   3.990  20.802  0.00  0.00    +0.000 A 
ATOM      6 CL   UNL     1       1.245   2.740  21.681  0.00  0.00    +0.000 Cl
ATOM      7  N   UNL     1       1.426   5.219  20.844  0.00  0.00    +0.000 NA
ATOM      8  C   UNL     1       2.064   6.184  20.157  0.00  0.00    +0.000 A 
ATOM      9  N   UNL     1       3.198   6.084  19.433  0.00  0.00    +0.000 NA
ATOM     10  C   UNL     1       3.677   4.826  19.438  0.00  0.00    +0.000 A 
ENDROOT
BRANCH   1  11
ATOM     11  C   UNL     1       5.823   5.160  18.175  0.00  0.00    +0.000 C 
BRANCH  11  15
ATOM     12  C   UNL     1       6.224   4.150  13.984  0.00  0.00    +0.000 A 
ATOM     13  C   UNL     1       7.274   4.771  14.673  0.00  0.00    +0.000 A 
ATOM     14  C   UNL     1       7.127   5.136  16.015  0.00  0.00    +0.000 A 
ATOM     15  C   UNL     1       5.932   4.873  16.699  0.00  0.00    +0.000 A 
ATOM     16  C   UNL     1       4.869   4.287  16.000  0.00  0.00    +0.000 A 
ATOM     17  C   UNL     1       5.016   3.924  14.657  0.00  0.00    +0.000 A 
BRANCH  12  19
ATOM     18 CL   UNL     1       4.840   3.288  11.837  0.00  0.00    +0.000 Cl
ATOM     19  C   UNL     1       6.412   3.681  12.569  0.00  0.00    +0.000 C 
ENDBRANCH  12  19
ENDBRANCH  11  15
ENDBRANCH   1  11
TORSDOF 3
ENDMDL
MODEL 7
REMARK VINA RESULT:      -6.9      3.795      4.679
REMARK  Name = 
REMARK  3 active torsions:
REMARK  status: ('A' for Active; 'I' for Inactive)
REMARK    1  A    between atoms: C_2  and  C_3
REMARK    2  A    between atoms: C_6  and  C_7
REMARK    3  A    between atoms: C_7  and  N_8
REMARK                            x       y       z     vdW  Elec       q    Type
REMARK                         _______ _______ _______ _____ _____    ______ ____
ROOT
ATOM      1  N   UNL     1       3.788   4.850  18.627  0.00  0.00    +0.000 N 
ATOM      2  C   UNL     1       3.097   4.251  17.607  0.00  0.00    +0.000 A 
ATOM      3  N   UNL     1       3.881   3.951  16.592  0.00  0.00    +0.000 NA
ATOM      4  C   UNL     1       5.136   4.389  16.967  0.00  0.00    +0.000 A 
ATOM      5  C   UNL     1       6.385   4.410  16.366  0.00  0.00    +0.000 A 
ATOM      6 CL   UNL     1       6.556   3.801  14.793  0.00  0.00    +0.000 Cl
ATOM      7  N   UNL     1       7.466   4.930  16.980  0.00  0.00    +0.000 NA
ATOM      8  C   UNL     1       7.271   5.430  18.213  0.00  0.00    +0.000 A 
ATOM      9  N   UNL     1       6.122   5.489  18.918  0.00  0.00    +0.000 NA
ATOM     10  C   UNL     1       5.096   4.945  18.237  0.00  0.00    +0.000 A 
ENDROOT
BRANCH   1  11
ATOM     11  C   UNL     1       3.201   5.449  19.808  0.00  0.00    +0.000 C 
BRANCH  11  15
ATOM     12  C   UNL     1       1.256   9.223  18.960  0.00  0.00    +0.000 A 
ATOM     13  C   UNL     1       2.008   8.570  17.975  0.00  0.00    +0.000 A 
ATOM     14  C   UNL     1       2.671   7.373  18.263  0.00  0.00    +0.000 A 
ATOM     15  C   UNL     1       2.583   6.798  19.539  0.00  0.00    +0.000 A 
ATOM     16  C   UNL     1       1.862   7.471  20.534  0.00  0.00    +0.000 A 
ATOM     17  C   UNL     1       1.201   8.668  20.245  0.00  0.00    +0.000 A 
BRANCH  12  19
ATOM     18 CL   UNL     1      -0.989  10.038  17.709  0.00  0.00    +0.000 Cl
ATOM     19  C   UNL     1       0.474  10.462  18.625  0.00  0.00    +0.000 C 
ENDBRANCH  12  19
ENDBRANCH  11  15
ENDBRANCH   1  11
TORSDOF 3
ENDMDL
MODEL 8
REMARK VINA RESULT:      -6.9      2.235      6.141
REMARK  Name = 
REMARK  3 active torsions:
REMARK  status: ('A' for Active; 'I' for Inactive)
REMARK    1  A    between atoms: C_2  and  C_3
REMARK    2  A    between atoms: C_6  and  C_7
REMARK    3  A    between atoms: C_7  and  N_8
REMARK                            x       y       z     vdW  Elec       q    Type
REMARK                         _______ _______ _______ _____ _____    ______ ____
ROOT
ATOM      1  N   UNL     1       3.690   3.408  17.708  0.00  0.00    +0.000 N 
ATOM      2  C   UNL     1       3.634   2.075  18.019  0.00  0.00    +0.000 A 
ATOM      3  N   UNL     1       2.943   1.856  19.118  0.00  0.00    +0.000 NA
ATOM      4  C   UNL     1       2.543   3.107  19.547  0.00  0.00    +0.000 A 
ATOM      5  C   UNL     1       1.828   3.588  20.632  0.00  0.00    +0.000 A 
ATOM      6 CL   UNL     1       1.261   2.495  21.797  0.00  0.00    +0.000 Cl
ATOM      7  N   UNL     1       1.595   4.903  20.810  0.00  0.00    +0.000 NA
ATOM      8  C   UNL     1       2.095   5.731  19.876  0.00  0.00    +0.000 A 
ATOM      9  N   UNL     1       2.814   5.415  18.778  0.00  0.00    +0.000 NA
ATOM     10  C   UNL     1       2.995   4.086  18.673  0.00  0.00    +0.000 A 
ENDROOT
BRANCH   1  11
ATOM     11  C   UNL     1       4.502   3.999  16.664  0.00  0.00    +0.000 C 
BRANCH  11  15
ATOM     12  C   UNL     1       7.409   6.912  18.010  0.00  0.00    +0.000 A 
ATOM     13  C   UNL     1       7.424   5.603  18.509  0.00  0.00    +0.000 A 
ATOM     14  C   UNL     1       6.459   4.676  18.107  0.00  0.00    +0.000 A 
ATOM     15  C   UNL     1       5.466   5.035  17.183  0.00  0.00    +0.000 A 
ATOM     16  C   UNL     1       5.428   6.354  16.713  0.00  0.00    +0.000 A 
ATOM     17  C   UNL     1       6.393   7.281  17.118  0.00  0.00    +0.000 A 
BRANCH  12  19
ATOM     18 CL   UNL     1       8.058   9.524  17.856  0.00  0.00    +0.000 Cl
ATOM     19  C   UNL     1       8.497   7.882  18.376  0.00  0.00    +0.000 C 
ENDBRANCH  12  19
ENDBRANCH  11  15
ENDBRANCH   1  11
TORSDOF 3
ENDMDL
MODEL 9
REMARK VINA RESULT:      -6.9      3.251      6.234
REMARK  Name = 
REMARK  3 active torsions:
REMARK  status: ('A' for Active; 'I' for Inactive)
REMARK    1  A    between atoms: C_2  and  C_3
REMARK    2  A    between atoms: C_6  and  C_7
REMARK    3  A    between atoms: C_7  and  N_8
REMARK                            x       y       z     vdW  Elec       q    Type
REMARK                         _______ _______ _______ _____ _____    ______ ____
ROOT
ATOM      1  N   UNL     1       4.785   4.379  18.930  0.00  0.00    +0.000 N 
ATOM      2  C   UNL     1       4.930   3.065  19.288  0.00  0.00    +0.000 A 
ATOM      3  N   UNL     1       3.933   2.648  20.040  0.00  0.00    +0.000 NA
ATOM      4  C   UNL     1       3.110   3.747  20.187  0.00  0.00    +0.000 A 
ATOM      5  C   UNL     1       1.929   4.003  20.867  0.00  0.00    +0.000 A 
ATOM      6 CL   UNL     1       1.224   2.768  21.791  0.00  0.00    +0.000 Cl
ATOM      7  N   UNL     1       1.337   5.213  20.846  0.00  0.00    +0.000 NA
ATOM      8  C   UNL     1       1.954   6.167  20.126  0.00  0.00    +0.000 A 
ATOM      9  N   UNL     1       3.103   6.073  19.425  0.00  0.00    +0.000 NA
ATOM     10  C   UNL     1       3.624   4.834  19.494  0.00  0.00    +0.000 A 
ENDROOT
BRANCH   1  11
ATOM     11  C   UNL     1       5.779   5.185  18.250  0.00  0.00    +0.000 C 
BRANCH  11  15
ATOM     12  C   UNL     1       6.316   4.161  14.078  0.00  0.00    +0.000 A 
ATOM     13  C   UNL     1       5.122   3.851  14.742  0.00  0.00    +0.000 A 
ATOM     14  C   UNL     1       4.967   4.143  16.100  0.00  0.00    +0.000 A 
ATOM     15  C   UNL     1       5.998   4.766  16.819  0.00  0.00    +0.000 A 
ATOM     16  C   UNL     1       7.205   5.041  16.164  0.00  0.00    +0.000 A 
ATOM     17  C   UNL     1       7.360   4.747  14.806  0.00  0.00    +0.000 A 
BRANCH  12  19
ATOM     18 CL   UNL     1       4.921   3.312  11.933  0.00  0.00    +0.000 Cl
ATOM     19  C   UNL     1       6.450   3.927  12.599  0.00  0.00    +0.000 C 
ENDBRANCH  12  19
ENDBRANCH  11  15
ENDBRANCH   1  11
TORSDOF 3
ENDMDL
