MODEL 1
REMARK VINA RESULT:      -7.9      0.000      0.000
REMARK  Name = 
REMARK  16 active torsions:
REMARK  status: ('A' for Active; 'I' for Inactive)
REMARK    1  A    between atoms: C_1  and  C_2
REMARK    2  A    between atoms: C_2  and  C_3
REMARK    3  A    between atoms: C_2  and  C_4
REMARK    4  A    between atoms: C_2  and  C_5
REMARK    5  A    between atoms: C_8  and  O_9
REMARK    6  A    between atoms: O_9  and  C_10
REMARK    7  A    between atoms: C_10  and  C_11
REMARK    8  A    between atoms: C_10  and  C_12
REMARK    9  A    between atoms: C_10  and  C_13
REMARK   10  A    between atoms: C_16  and  C_17
REMARK   11  A    between atoms: C_17  and  C_18
REMARK   12  A    between atoms: C_19  and  C_20
REMARK   13  A    between atoms: C_20  and  C_21
REMARK   14  A    between atoms: C_21  and  C_22
REMARK   15  A    between atoms: C_22  and  O_24
REMARK   16  A    between atoms: C_25  and  C_26
REMARK                            x       y       z     vdW  Elec       q    Type
REMARK                         _______ _______ _______ _____ _____    ______ ____
ROOT
ATOM      1  C   UNL     1       4.691   5.826  17.698  0.00  0.00    +0.000 C 
ATOM      2  O   UNL     1       4.133   4.557  18.053  0.00  0.00    +0.000 OA
ATOM      3  C   UNL     1       2.746   4.479  17.780  0.00  0.00    +0.000 C 
ATOM      4  C   UNL     1       1.974   5.607  18.462  0.00  0.00    +0.000 C 
ATOM      5  C   UNL     1       2.632   6.942  18.056  0.00  0.00    +0.000 C 
ATOM      6  O   UNL     1       4.026   6.896  18.361  0.00  0.00    +0.000 OA
ENDROOT
BRANCH   5   7
ATOM      7  C   UNL     1       2.048   8.209  18.649  0.00  0.00    +0.000 A 
ATOM      8  C   UNL     1       1.651   8.262  19.992  0.00  0.00    +0.000 A 
ATOM      9  C   UNL     1       1.077   9.416  20.514  0.00  0.00    +0.000 A 
ATOM     10  C   UNL     1       0.940  10.510  19.680  0.00  0.00    +0.000 A 
ATOM     11  N   UNL     1       1.370  10.532  18.402  0.00  0.00    +0.000 NA
ATOM     12  C   UNL     1       1.918   9.390  17.924  0.00  0.00    +0.000 A 
ENDBRANCH   5   7
BRANCH   1  13
ATOM     13  C   UNL     1       6.228   5.841  18.057  0.00  0.00    +0.000 C 
ATOM     14  C   UNL     1       6.356   5.647  19.578  0.00  0.00    +0.000 C 
ATOM     15  C   UNL     1       6.735   7.212  17.568  0.00  0.00    +0.000 C 
BRANCH  13  16
ATOM     16  O   UNL     1       6.839   4.733  17.348  0.00  0.00    +0.000 OA
BRANCH  16  20
ATOM     17  C   UNL     1       6.242   3.773  13.296  0.00  0.00    +0.000 A 
ATOM     18  C   UNL     1       7.127   4.780  13.715  0.00  0.00    +0.000 A 
ATOM     19  C   UNL     1       7.277   5.085  15.079  0.00  0.00    +0.000 A 
ATOM     20  C   UNL     1       6.547   4.419  16.056  0.00  0.00    +0.000 A 
ATOM     21  C   UNL     1       5.640   3.450  15.644  0.00  0.00    +0.000 A 
ATOM     22  C   UNL     1       5.493   3.132  14.289  0.00  0.00    +0.000 A 
BRANCH  17  24
ATOM     23  C   UNL     1       6.559   1.886  11.578  0.00  0.00    +0.000 C 
ATOM     24  C   UNL     1       6.081   3.328  11.835  0.00  0.00    +0.000 C 
ATOM     25  C   UNL     1       6.886   4.264  10.907  0.00  0.00    +0.000 C 
ATOM     26  C   UNL     1       4.588   3.400  11.440  0.00  0.00    +0.000 C 
ENDBRANCH  17  24
ENDBRANCH  16  20
ENDBRANCH  13  16
ENDBRANCH   1  13
BRANCH   4  27
ATOM     27  C   UNL     1       1.843   5.357  19.988  0.00  0.00    +0.000 C 
BRANCH  27  28
ATOM     28  C   UNL     1       0.885   4.308  20.484  0.00  0.00    +0.000 C 
ATOM     29  C   UNL     1       1.228   3.160  21.091  0.00  0.00    +0.000 C 
BRANCH  29  30
ATOM     30  C   UNL     1       2.633   2.748  21.423  0.00  0.00    +0.000 C 
BRANCH  30  31
ATOM     31  C   UNL     1       3.264   1.899  20.324  0.00  0.00    +0.000 C 
BRANCH  31  32
ATOM     32  C   UNL     1       4.770   1.909  20.445  0.00  0.00    +0.000 C 
ATOM     33  O   UNL     1       5.416   1.364  21.329  0.00  0.00    +0.000 OA
BRANCH  32  34
ATOM     34  O   UNL     1       5.361   2.607  19.450  0.00  0.00    +0.000 OA
ATOM     35  H   UNL     1       4.765   2.805  18.703  0.00  0.00    +0.000 HD
ENDBRANCH  32  34
ENDBRANCH  31  32
ENDBRANCH  30  31
ENDBRANCH  29  30
ENDBRANCH  27  28
ENDBRANCH   4  27
TORSDOF 11
ENDMDL
MODEL 2
REMARK VINA RESULT:      -7.8      4.507      8.714
REMARK  Name = 
REMARK  16 active torsions:
REMARK  status: ('A' for Active; 'I' for Inactive)
REMARK    1  A    between atoms: C_1  and  C_2
REMARK    2  A    between atoms: C_2  and  C_3
REMARK    3  A    between atoms: C_2  and  C_4
REMARK    4  A    between atoms: C_2  and  C_5
REMARK    5  A    between atoms: C_8  and  O_9
REMARK    6  A    between atoms: O_9  and  C_10
REMARK    7  A    between atoms: C_10  and  C_11
REMARK    8  A    between atoms: C_10  and  C_12
REMARK    9  A    between atoms: C_10  and  C_13
REMARK   10  A    between atoms: C_16  and  C_17
REMARK   11  A    between atoms: C_17  and  C_18
REMARK   12  A    between atoms: C_19  and  C_20
REMARK   13  A    between atoms: C_20  and  C_21
REMARK   14  A    between atoms: C_21  and  C_22
REMARK   15  A    between atoms: C_22  and  O_24
REMARK   16  A    between atoms: C_25  and  C_26
REMARK                            x       y       z     vdW  Elec       q    Type
REMARK                         _______ _______ _______ _____ _____    ______ ____
ROOT
ATOM      1  C   UNL     1       1.023  10.904  20.764  0.00  0.00    +0.000 C 
ATOM      2  O   UNL     1       1.475  11.813  19.755  0.00  0.00    +0.000 OA
ATOM      3  C   UNL     1       1.696  13.117  20.259  0.00  0.00    +0.000 C 
ATOM      4  C   UNL     1       0.453  13.670  20.953  0.00  0.00    +0.000 C 
ATOM      5  C   UNL     1       0.006  12.641  22.013  0.00  0.00    +0.000 C 
ATOM      6  O   UNL     1      -0.166  11.367  21.394  0.00  0.00    +0.000 OA
ENDROOT
BRANCH   5   7
ATOM      7  C   UNL     1      -1.242  12.966  22.809  0.00  0.00    +0.000 A 
ATOM      8  C   UNL     1      -2.352  12.111  22.793  0.00  0.00    +0.000 A 
ATOM      9  C   UNL     1      -3.508  12.441  23.493  0.00  0.00    +0.000 A 
ATOM     10  C   UNL     1      -3.514  13.614  24.224  0.00  0.00    +0.000 A 
ATOM     11  N   UNL     1      -2.447  14.434  24.329  0.00  0.00    +0.000 NA
ATOM     12  C   UNL     1      -1.342  14.087  23.629  0.00  0.00    +0.000 A 
ENDBRANCH   5   7
BRANCH   1  13
ATOM     13  C   UNL     1       0.776   9.485  20.119  0.00  0.00    +0.000 C 
ATOM     14  C   UNL     1       0.744   9.664  18.591  0.00  0.00    +0.000 C 
ATOM     15  C   UNL     1      -0.567   9.010  20.709  0.00  0.00    +0.000 C 
BRANCH  13  16
ATOM     16  O   UNL     1       1.889   8.641  20.511  0.00  0.00    +0.000 OA
BRANCH  16  20
ATOM     17  C   UNL     1       2.144   4.651  19.201  0.00  0.00    +0.000 A 
ATOM     18  C   UNL     1       1.650   5.005  20.468  0.00  0.00    +0.000 A 
ATOM     19  C   UNL     1       1.605   6.350  20.874  0.00  0.00    +0.000 A 
ATOM     20  C   UNL     1       2.063   7.372  20.052  0.00  0.00    +0.000 A 
ATOM     21  C   UNL     1       2.591   7.025  18.814  0.00  0.00    +0.000 A 
ATOM     22  C   UNL     1       2.629   5.689  18.397  0.00  0.00    +0.000 A 
BRANCH  17  24
ATOM     23  C   UNL     1       2.536   3.132  17.164  0.00  0.00    +0.000 C 
ATOM     24  C   UNL     1       2.153   3.217  18.655  0.00  0.00    +0.000 C 
ATOM     25  C   UNL     1       0.755   2.582  18.819  0.00  0.00    +0.000 C 
ATOM     26  C   UNL     1       3.178   2.373  19.447  0.00  0.00    +0.000 C 
ENDBRANCH  17  24
ENDBRANCH  16  20
ENDBRANCH  13  16
ENDBRANCH   1  13
BRANCH   4  27
ATOM     27  C   UNL     1      -0.629  14.086  19.922  0.00  0.00    +0.000 C 
BRANCH  27  28
ATOM     28  C   UNL     1      -0.565  13.536  18.523  0.00  0.00    +0.000 C 
ATOM     29  C   UNL     1      -1.295  12.511  18.052  0.00  0.00    +0.000 C 
BRANCH  29  30
ATOM     30  C   UNL     1      -2.340  11.768  18.832  0.00  0.00    +0.000 C 
BRANCH  30  31
ATOM     31  C   UNL     1      -3.078  10.739  17.981  0.00  0.00    +0.000 C 
BRANCH  31  32
ATOM     32  C   UNL     1      -4.474  11.221  17.658  0.00  0.00    +0.000 C 
ATOM     33  O   UNL     1      -5.495  10.882  18.239  0.00  0.00    +0.000 OA
BRANCH  32  34
ATOM     34  O   UNL     1      -4.490  12.091  16.624  0.00  0.00    +0.000 OA
ATOM     35  H   UNL     1      -3.693  12.650  16.570  0.00  0.00    +0.000 HD
ENDBRANCH  32  34
ENDBRANCH  31  32
ENDBRANCH  30  31
ENDBRANCH  29  30
ENDBRANCH  27  28
ENDBRANCH   4  27
TORSDOF 11
ENDMDL
MODEL 3
REMARK VINA RESULT:      -7.8      4.666      8.823
REMARK  Name = 
REMARK  16 active torsions:
REMARK  status: ('A' for Active; 'I' for Inactive)
REMARK    1  A    between atoms: C_1  and  C_2
REMARK    2  A    between atoms: C_2  and  C_3
REMARK    3  A    between atoms: C_2  and  C_4
REMARK    4  A    between atoms: C_2  and  C_5
REMARK    5  A    between atoms: C_8  and  O_9
REMARK    6  A    between atoms: O_9  and  C_10
REMARK    7  A    between atoms: C_10  and  C_11
REMARK    8  A    between atoms: C_10  and  C_12
REMARK    9  A    between atoms: C_10  and  C_13
REMARK   10  A    between atoms: C_16  and  C_17
REMARK   11  A    between atoms: C_17  and  C_18
REMARK   12  A    between atoms: C_19  and  C_20
REMARK   13  A    between atoms: C_20  and  C_21
REMARK   14  A    between atoms: C_21  and  C_22
REMARK   15  A    between atoms: C_22  and  O_24
REMARK   16  A    between atoms: C_25  and  C_26
REMARK                            x       y       z     vdW  Elec       q    Type
REMARK                         _______ _______ _______ _____ _____    ______ ____
ROOT
ATOM      1  C   UNL     1       0.812  10.733  21.135  0.00  0.00    +0.000 C 
ATOM      2  O   UNL     1       1.314  11.631  20.140  0.00  0.00    +0.000 OA
ATOM      3  C   UNL     1       1.516  12.939  20.642  0.00  0.00    +0.000 C 
ATOM      4  C   UNL     1       0.244  13.503  21.271  0.00  0.00    +0.000 C 
ATOM      5  C   UNL     1      -0.255  12.486  22.319  0.00  0.00    +0.000 C 
ATOM      6  O   UNL     1      -0.403  11.206  21.704  0.00  0.00    +0.000 OA
ENDROOT
BRANCH   5   7
ATOM      7  C   UNL     1      -1.538  12.822  23.053  0.00  0.00    +0.000 A 
ATOM      8  C   UNL     1      -1.719  14.076  23.653  0.00  0.00    +0.000 A 
ATOM      9  C   UNL     1      -2.882  14.359  24.361  0.00  0.00    +0.000 A 
ATOM     10  C   UNL     1      -3.858  13.383  24.427  0.00  0.00    +0.000 A 
ATOM     11  N   UNL     1      -3.762  12.188  23.807  0.00  0.00    +0.000 NA
ATOM     12  C   UNL     1      -2.614  11.943  23.133  0.00  0.00    +0.000 A 
ENDBRANCH   5   7
BRANCH   1  13
ATOM     13  C   UNL     1       0.590   9.309  20.493  0.00  0.00    +0.000 C 
ATOM     14  C   UNL     1       0.148   9.517  19.033  0.00  0.00    +0.000 C 
ATOM     15  C   UNL     1      -0.487   8.642  21.370  0.00  0.00    +0.000 C 
BRANCH  13  16
ATOM     16  O   UNL     1       1.863   8.616  20.547  0.00  0.00    +0.000 OA
BRANCH  16  20
ATOM     17  C   UNL     1       2.153   4.636  19.215  0.00  0.00    +0.000 A 
ATOM     18  C   UNL     1       1.682   4.976  20.494  0.00  0.00    +0.000 A 
ATOM     19  C   UNL     1       1.625   6.319  20.906  0.00  0.00    +0.000 A 
ATOM     20  C   UNL     1       2.047   7.352  20.079  0.00  0.00    +0.000 A 
ATOM     21  C   UNL     1       2.553   7.018  18.827  0.00  0.00    +0.000 A 
ATOM     22  C   UNL     1       2.602   5.685  18.404  0.00  0.00    +0.000 A 
BRANCH  17  24
ATOM     23  C   UNL     1       0.811   2.488  18.770  0.00  0.00    +0.000 C 
ATOM     24  C   UNL     1       2.172   3.204  18.662  0.00  0.00    +0.000 C 
ATOM     25  C   UNL     1       3.212   2.358  19.428  0.00  0.00    +0.000 C 
ATOM     26  C   UNL     1       2.563   3.237  17.166  0.00  0.00    +0.000 C 
ENDBRANCH  17  24
ENDBRANCH  16  20
ENDBRANCH  13  16
ENDBRANCH   1  13
BRANCH   4  27
ATOM     27  C   UNL     1      -0.787  13.913  20.187  0.00  0.00    +0.000 C 
BRANCH  27  28
ATOM     28  C   UNL     1      -0.651  13.361  18.794  0.00  0.00    +0.000 C 
ATOM     29  C   UNL     1      -1.450  12.435  18.238  0.00  0.00    +0.000 C 
BRANCH  29  30
ATOM     30  C   UNL     1      -2.651  11.824  18.900  0.00  0.00    +0.000 C 
BRANCH  30  31
ATOM     31  C   UNL     1      -3.449  10.936  17.950  0.00  0.00    +0.000 C 
BRANCH  31  32
ATOM     32  C   UNL     1      -4.915  11.296  17.993  0.00  0.00    +0.000 C 
ATOM     33  O   UNL     1      -5.824  10.542  18.313  0.00  0.00    +0.000 OA
BRANCH  32  34
ATOM     34  O   UNL     1      -5.141  12.577  17.625  0.00  0.00    +0.000 OA
ATOM     35  H   UNL     1      -5.387  13.160  18.367  0.00  0.00    +0.000 HD
ENDBRANCH  32  34
ENDBRANCH  31  32
ENDBRANCH  30  31
ENDBRANCH  29  30
ENDBRANCH  27  28
ENDBRANCH   4  27
TORSDOF 11
ENDMDL
MODEL 4
REMARK VINA RESULT:      -7.8      2.421      7.975
REMARK  Name = 
REMARK  16 active torsions:
REMARK  status: ('A' for Active; 'I' for Inactive)
REMARK    1  A    between atoms: C_1  and  C_2
REMARK    2  A    between atoms: C_2  and  C_3
REMARK    3  A    between atoms: C_2  and  C_4
REMARK    4  A    between atoms: C_2  and  C_5
REMARK    5  A    between atoms: C_8  and  O_9
REMARK    6  A    between atoms: O_9  and  C_10
REMARK    7  A    between atoms: C_10  and  C_11
REMARK    8  A    between atoms: C_10  and  C_12
REMARK    9  A    between atoms: C_10  and  C_13
REMARK   10  A    between atoms: C_16  and  C_17
REMARK   11  A    between atoms: C_17  and  C_18
REMARK   12  A    between atoms: C_19  and  C_20
REMARK   13  A    between atoms: C_20  and  C_21
REMARK   14  A    between atoms: C_21  and  C_22
REMARK   15  A    between atoms: C_22  and  O_24
REMARK   16  A    between atoms: C_25  and  C_26
REMARK                            x       y       z     vdW  Elec       q    Type
REMARK                         _______ _______ _______ _____ _____    ______ ____
ROOT
ATOM      1  C   UNL     1       3.598   4.226  19.038  0.00  0.00    +0.000 C 
ATOM      2  O   UNL     1       3.439   3.326  17.936  0.00  0.00    +0.000 OA
ATOM      3  C   UNL     1       4.676   2.829  17.459  0.00  0.00    +0.000 C 
ATOM      4  C   UNL     1       5.631   3.962  17.086  0.00  0.00    +0.000 C 
ATOM      5  C   UNL     1       5.746   4.903  18.303  0.00  0.00    +0.000 C 
ATOM      6  O   UNL     1       4.441   5.322  18.704  0.00  0.00    +0.000 OA
ENDROOT
BRANCH   5   7
ATOM      7  C   UNL     1       6.623   6.129  18.149  0.00  0.00    +0.000 A 
ATOM      8  C   UNL     1       7.796   6.278  18.902  0.00  0.00    +0.000 A 
ATOM      9  C   UNL     1       8.570   7.427  18.783  0.00  0.00    +0.000 A 
ATOM     10  C   UNL     1       8.166   8.395  17.883  0.00  0.00    +0.000 A 
ATOM     11  N   UNL     1       7.086   8.267  17.085  0.00  0.00    +0.000 NA
ATOM     12  C   UNL     1       6.351   7.140  17.231  0.00  0.00    +0.000 A 
ENDBRANCH   5   7
BRANCH   1  13
ATOM     13  C   UNL     1       2.181   4.753  19.492  0.00  0.00    +0.000 C 
ATOM     14  C   UNL     1       1.514   3.645  20.325  0.00  0.00    +0.000 C 
ATOM     15  C   UNL     1       1.436   5.067  18.179  0.00  0.00    +0.000 C 
BRANCH  13  16
ATOM     16  O   UNL     1       2.409   5.934  20.302  0.00  0.00    +0.000 OA
BRANCH  16  20
ATOM     17  C   UNL     1       0.851   9.794  19.688  0.00  0.00    +0.000 A 
ATOM     18  C   UNL     1       0.574   9.038  20.839  0.00  0.00    +0.000 A 
ATOM     19  C   UNL     1       1.097   7.742  20.992  0.00  0.00    +0.000 A 
ATOM     20  C   UNL     1       1.884   7.156  20.009  0.00  0.00    +0.000 A 
ATOM     21  C   UNL     1       2.127   7.883  18.849  0.00  0.00    +0.000 A 
ATOM     22  C   UNL     1       1.621   9.179  18.695  0.00  0.00    +0.000 A 
BRANCH  17  24
ATOM     23  C   UNL     1       0.061  11.974  20.799  0.00  0.00    +0.000 C 
ATOM     24  C   UNL     1       0.385  11.242  19.482  0.00  0.00    +0.000 C 
ATOM     25  C   UNL     1      -0.886  11.266  18.605  0.00  0.00    +0.000 C 
ATOM     26  C   UNL     1       1.498  12.042  18.766  0.00  0.00    +0.000 C 
ENDBRANCH  17  24
ENDBRANCH  16  20
ENDBRANCH  13  16
ENDBRANCH   1  13
BRANCH   4  27
ATOM     27  C   UNL     1       5.212   4.635  15.752  0.00  0.00    +0.000 C 
BRANCH  27  28
ATOM     28  C   UNL     1       6.240   4.829  14.670  0.00  0.00    +0.000 C 
ATOM     29  C   UNL     1       6.280   4.166  13.502  0.00  0.00    +0.000 C 
BRANCH  29  30
ATOM     30  C   UNL     1       5.272   3.147  13.055  0.00  0.00    +0.000 C 
BRANCH  30  31
ATOM     31  C   UNL     1       5.385   2.833  11.566  0.00  0.00    +0.000 C 
BRANCH  31  32
ATOM     32  C   UNL     1       6.442   1.781  11.325  0.00  0.00    +0.000 C 
ATOM     33  O   UNL     1       7.620   2.000  11.077  0.00  0.00    +0.000 OA
BRANCH  32  34
ATOM     34  O   UNL     1       5.947   0.526  11.407  0.00  0.00    +0.000 OA
ATOM     35  H   UNL     1       6.272   0.027  12.179  0.00  0.00    +0.000 HD
ENDBRANCH  32  34
ENDBRANCH  31  32
ENDBRANCH  30  31
ENDBRANCH  29  30
ENDBRANCH  27  28
ENDBRANCH   4  27
TORSDOF 11
ENDMDL
MODEL 5
REMARK VINA RESULT:      -7.7      2.625      8.241
REMARK  Name = 
REMARK  16 active torsions:
REMARK  status: ('A' for Active; 'I' for Inactive)
REMARK    1  A    between atoms: C_1  and  C_2
REMARK    2  A    between atoms: C_2  and  C_3
REMARK    3  A    between atoms: C_2  and  C_4
REMARK    4  A    between atoms: C_2  and  C_5
REMARK    5  A    between atoms: C_8  and  O_9
REMARK    6  A    between atoms: O_9  and  C_10
REMARK    7  A    between atoms: C_10  and  C_11
REMARK    8  A    between atoms: C_10  and  C_12
REMARK    9  A    between atoms: C_10  and  C_13
REMARK   10  A    between atoms: C_16  and  C_17
REMARK   11  A    between atoms: C_17  and  C_18
REMARK   12  A    between atoms: C_19  and  C_20
REMARK   13  A    between atoms: C_20  and  C_21
REMARK   14  A    between atoms: C_21  and  C_22
REMARK   15  A    between atoms: C_22  and  O_24
REMARK   16  A    between atoms: C_25  and  C_26
REMARK                            x       y       z     vdW  Elec       q    Type
REMARK                         _______ _______ _______ _____ _____    ______ ____
ROOT
ATOM      1  C   UNL     1       3.794   6.375  18.802  0.00  0.00    +0.000 C 
ATOM      2  O   UNL     1       3.537   5.239  19.633  0.00  0.00    +0.000 OA
ATOM      3  C   UNL     1       4.668   4.399  19.768  0.00  0.00    +0.000 C 
ATOM      4  C   UNL     1       5.202   3.952  18.409  0.00  0.00    +0.000 C 
ATOM      5  C   UNL     1       5.442   5.216  17.556  0.00  0.00    +0.000 C 
ATOM      6  O   UNL     1       4.243   5.990  17.508  0.00  0.00    +0.000 OA
ENDROOT
BRANCH   5   7
ATOM      7  C   UNL     1       5.944   5.011  16.141  0.00  0.00    +0.000 A 
ATOM      8  C   UNL     1       5.120   4.451  15.156  0.00  0.00    +0.000 A 
ATOM      9  C   UNL     1       5.605   4.228  13.872  0.00  0.00    +0.000 A 
ATOM     10  C   UNL     1       6.906   4.603  13.594  0.00  0.00    +0.000 A 
ATOM     11  N   UNL     1       7.715   5.210  14.486  0.00  0.00    +0.000 NA
ATOM     12  C   UNL     1       7.214   5.406  15.728  0.00  0.00    +0.000 A 
ENDBRANCH   5   7
BRANCH   1  13
ATOM     13  C   UNL     1       2.481   7.244  18.682  0.00  0.00    +0.000 C 
ATOM     14  C   UNL     1       1.399   6.369  18.024  0.00  0.00    +0.000 C 
ATOM     15  C   UNL     1       2.888   8.461  17.829  0.00  0.00    +0.000 C 
BRANCH  13  16
ATOM     16  O   UNL     1       2.091   7.611  20.029  0.00  0.00    +0.000 OA
BRANCH  16  20
ATOM     17  C   UNL     1      -0.423  10.777  21.193  0.00  0.00    +0.000 A 
ATOM     18  C   UNL     1      -0.312   9.586  21.929  0.00  0.00    +0.000 A 
ATOM     19  C   UNL     1       0.523   8.543  21.490  0.00  0.00    +0.000 A 
ATOM     20  C   UNL     1       1.248   8.642  20.310  0.00  0.00    +0.000 A 
ATOM     21  C   UNL     1       1.111   9.802  19.556  0.00  0.00    +0.000 A 
ATOM     22  C   UNL     1       0.292  10.850  19.992  0.00  0.00    +0.000 A 
BRANCH  17  24
ATOM     23  C   UNL     1      -2.358  12.380  20.648  0.00  0.00    +0.000 C 
ATOM     24  C   UNL     1      -1.249  11.990  21.645  0.00  0.00    +0.000 C 
ATOM     25  C   UNL     1      -0.328  13.216  21.829  0.00  0.00    +0.000 C 
ATOM     26  C   UNL     1      -1.929  11.672  22.996  0.00  0.00    +0.000 C 
ENDBRANCH  17  24
ENDBRANCH  16  20
ENDBRANCH  13  16
ENDBRANCH   1  13
BRANCH   4  27
ATOM     27  C   UNL     1       4.287   2.874  17.770  0.00  0.00    +0.000 C 
BRANCH  27  28
ATOM     28  C   UNL     1       2.897   3.252  17.333  0.00  0.00    +0.000 C 
ATOM     29  C   UNL     1       1.760   2.916  17.965  0.00  0.00    +0.000 C 
BRANCH  29  30
ATOM     30  C   UNL     1       1.685   2.142  19.249  0.00  0.00    +0.000 C 
BRANCH  30  31
ATOM     31  C   UNL     1       1.053   2.950  20.378  0.00  0.00    +0.000 C 
BRANCH  31  32
ATOM     32  C   UNL     1       1.679   2.587  21.704  0.00  0.00    +0.000 C 
ATOM     33  O   UNL     1       2.880   2.498  21.923  0.00  0.00    +0.000 OA
BRANCH  32  34
ATOM     34  O   UNL     1       0.755   2.357  22.663  0.00  0.00    +0.000 OA
ATOM     35  H   UNL     1       0.193   3.130  22.858  0.00  0.00    +0.000 HD
ENDBRANCH  32  34
ENDBRANCH  31  32
ENDBRANCH  30  31
ENDBRANCH  29  30
ENDBRANCH  27  28
ENDBRANCH   4  27
TORSDOF 11
ENDMDL
MODEL 6
REMARK VINA RESULT:      -7.7      2.602      8.183
REMARK  Name = 
REMARK  16 active torsions:
REMARK  status: ('A' for Active; 'I' for Inactive)
REMARK    1  A    between atoms: C_1  and  C_2
REMARK    2  A    between atoms: C_2  and  C_3
REMARK    3  A    between atoms: C_2  and  C_4
REMARK    4  A    between atoms: C_2  and  C_5
REMARK    5  A    between atoms: C_8  and  O_9
REMARK    6  A    between atoms: O_9  and  C_10
REMARK    7  A    between atoms: C_10  and  C_11
REMARK    8  A    between atoms: C_10  and  C_12
REMARK    9  A    between atoms: C_10  and  C_13
REMARK   10  A    between atoms: C_16  and  C_17
REMARK   11  A    between atoms: C_17  and  C_18
REMARK   12  A    between atoms: C_19  and  C_20
REMARK   13  A    between atoms: C_20  and  C_21
REMARK   14  A    between atoms: C_21  and  C_22
REMARK   15  A    between atoms: C_22  and  O_24
REMARK   16  A    between atoms: C_25  and  C_26
REMARK                            x       y       z     vdW  Elec       q    Type
REMARK                         _______ _______ _______ _____ _____    ______ ____
ROOT
ATOM      1  C   UNL     1       3.843   6.354  18.702  0.00  0.00    +0.000 C 
ATOM      2  O   UNL     1       3.662   5.226  19.564  0.00  0.00    +0.000 OA
ATOM      3  C   UNL     1       4.833   4.439  19.680  0.00  0.00    +0.000 C 
ATOM      4  C   UNL     1       5.344   3.986  18.314  0.00  0.00    +0.000 C 
ATOM      5  C   UNL     1       5.502   5.241  17.429  0.00  0.00    +0.000 C 
ATOM      6  O   UNL     1       4.269   5.960  17.403  0.00  0.00    +0.000 OA
ENDROOT
BRANCH   5   7
ATOM      7  C   UNL     1       5.969   5.027  16.003  0.00  0.00    +0.000 A 
ATOM      8  C   UNL     1       5.143   4.404  15.058  0.00  0.00    +0.000 A 
ATOM      9  C   UNL     1       5.599   4.174  13.764  0.00  0.00    +0.000 A 
ATOM     10  C   UNL     1       6.870   4.604  13.436  0.00  0.00    +0.000 A 
ATOM     11  N   UNL     1       7.676   5.270  14.288  0.00  0.00    +0.000 NA
ATOM     12  C   UNL     1       7.205   5.471  15.541  0.00  0.00    +0.000 A 
ENDBRANCH   5   7
BRANCH   1  13
ATOM     13  C   UNL     1       2.490   7.162  18.604  0.00  0.00    +0.000 C 
ATOM     14  C   UNL     1       1.510   6.334  17.754  0.00  0.00    +0.000 C 
ATOM     15  C   UNL     1       2.877   8.507  17.959  0.00  0.00    +0.000 C 
BRANCH  13  16
ATOM     16  O   UNL     1       1.990   7.314  19.957  0.00  0.00    +0.000 OA
BRANCH  16  20
ATOM     17  C   UNL     1      -0.113  10.759  21.145  0.00  0.00    +0.000 A 
ATOM     18  C   UNL     1       0.063  10.404  19.798  0.00  0.00    +0.000 A 
ATOM     19  C   UNL     1       0.794   9.256  19.445  0.00  0.00    +0.000 A 
ATOM     20  C   UNL     1       1.383   8.446  20.408  0.00  0.00    +0.000 A 
ATOM     21  C   UNL     1       1.247   8.815  21.741  0.00  0.00    +0.000 A 
ATOM     22  C   UNL     1       0.510   9.949  22.101  0.00  0.00    +0.000 A 
BRANCH  17  24
ATOM     23  C   UNL     1      -1.658  11.709  22.968  0.00  0.00    +0.000 C 
ATOM     24  C   UNL     1      -0.962  11.949  21.614  0.00  0.00    +0.000 C 
ATOM     25  C   UNL     1      -2.058  12.258  20.569  0.00  0.00    +0.000 C 
ATOM     26  C   UNL     1      -0.058  13.194  21.769  0.00  0.00    +0.000 C 
ENDBRANCH  17  24
ENDBRANCH  16  20
ENDBRANCH  13  16
ENDBRANCH   1  13
BRANCH   4  27
ATOM     27  C   UNL     1       4.458   2.856  17.727  0.00  0.00    +0.000 C 
BRANCH  27  28
ATOM     28  C   UNL     1       3.892   1.809  18.649  0.00  0.00    +0.000 C 
ATOM     29  C   UNL     1       2.613   1.731  19.052  0.00  0.00    +0.000 C 
BRANCH  29  30
ATOM     30  C   UNL     1       1.514   2.654  18.611  0.00  0.00    +0.000 C 
BRANCH  30  31
ATOM     31  C   UNL     1       0.489   2.903  19.713  0.00  0.00    +0.000 C 
BRANCH  31  32
ATOM     32  C   UNL     1       1.176   3.328  20.990  0.00  0.00    +0.000 C 
ATOM     33  O   UNL     1       1.458   2.591  21.924  0.00  0.00    +0.000 OA
BRANCH  32  34
ATOM     34  O   UNL     1       1.456   4.650  21.007  0.00  0.00    +0.000 OA
ATOM     35  H   UNL     1       0.667   5.218  20.928  0.00  0.00    +0.000 HD
ENDBRANCH  32  34
ENDBRANCH  31  32
ENDBRANCH  30  31
ENDBRANCH  29  30
ENDBRANCH  27  28
ENDBRANCH   4  27
TORSDOF 11
ENDMDL
MODEL 7
REMARK VINA RESULT:      -7.7      5.089      9.117
REMARK  Name = 
REMARK  16 active torsions:
REMARK  status: ('A' for Active; 'I' for Inactive)
REMARK    1  A    between atoms: C_1  and  C_2
REMARK    2  A    between atoms: C_2  and  C_3
REMARK    3  A    between atoms: C_2  and  C_4
REMARK    4  A    between atoms: C_2  and  C_5
REMARK    5  A    between atoms: C_8  and  O_9
REMARK    6  A    between atoms: O_9  and  C_10
REMARK    7  A    between atoms: C_10  and  C_11
REMARK    8  A    between atoms: C_10  and  C_12
REMARK    9  A    between atoms: C_10  and  C_13
REMARK   10  A    between atoms: C_16  and  C_17
REMARK   11  A    between atoms: C_17  and  C_18
REMARK   12  A    between atoms: C_19  and  C_20
REMARK   13  A    between atoms: C_20  and  C_21
REMARK   14  A    between atoms: C_21  and  C_22
REMARK   15  A    between atoms: C_22  and  O_24
REMARK   16  A    between atoms: C_25  and  C_26
REMARK                            x       y       z     vdW  Elec       q    Type
REMARK                         _______ _______ _______ _____ _____    ______ ____
ROOT
ATOM      1  C   UNL     1       0.716  10.846  20.974  0.00  0.00    +0.000 C 
ATOM      2  O   UNL     1       1.008  11.671  19.841  0.00  0.00    +0.000 OA
ATOM      3  C   UNL     1       1.193  13.030  20.193  0.00  0.00    +0.000 C 
ATOM      4  C   UNL     1      -0.010  13.582  20.955  0.00  0.00    +0.000 C 
ATOM      5  C   UNL     1      -0.285  12.643  22.149  0.00  0.00    +0.000 C 
ATOM      6  O   UNL     1      -0.434  11.305  21.675  0.00  0.00    +0.000 OA
ENDROOT
BRANCH   5   7
ATOM      7  C   UNL     1      -1.467  12.979  23.035  0.00  0.00    +0.000 A 
ATOM      8  C   UNL     1      -2.503  12.057  23.239  0.00  0.00    +0.000 A 
ATOM      9  C   UNL     1      -3.604  12.392  24.019  0.00  0.00    +0.000 A 
ATOM     10  C   UNL     1      -3.629  13.642  24.607  0.00  0.00    +0.000 A 
ATOM     11  N   UNL     1      -2.626  14.538  24.499  0.00  0.00    +0.000 NA
ATOM     12  C   UNL     1      -1.573  14.183  23.727  0.00  0.00    +0.000 A 
ENDBRANCH   5   7
BRANCH   1  13
ATOM     13  C   UNL     1       0.498   9.358  20.495  0.00  0.00    +0.000 C 
ATOM     14  C   UNL     1      -0.094   9.404  19.076  0.00  0.00    +0.000 C 
ATOM     15  C   UNL     1      -0.455   8.742  21.538  0.00  0.00    +0.000 C 
BRANCH  13  16
ATOM     16  O   UNL     1       1.801   8.722  20.485  0.00  0.00    +0.000 OA
BRANCH  16  20
ATOM     17  C   UNL     1       2.192   4.748  19.160  0.00  0.00    +0.000 A 
ATOM     18  C   UNL     1       1.762   5.077  20.456  0.00  0.00    +0.000 A 
ATOM     19  C   UNL     1       1.669   6.419  20.865  0.00  0.00    +0.000 A 
ATOM     20  C   UNL     1       2.016   7.462  20.015  0.00  0.00    +0.000 A 
ATOM     21  C   UNL     1       2.481   7.141  18.745  0.00  0.00    +0.000 A 
ATOM     22  C   UNL     1       2.564   5.808  18.326  0.00  0.00    +0.000 A 
BRANCH  17  24
ATOM     23  C   UNL     1       2.619   3.242  17.120  0.00  0.00    +0.000 C 
ATOM     24  C   UNL     1       2.244   3.314  18.613  0.00  0.00    +0.000 C 
ATOM     25  C   UNL     1       0.869   2.633  18.787  0.00  0.00    +0.000 C 
ATOM     26  C   UNL     1       3.302   2.505  19.398  0.00  0.00    +0.000 C 
ENDBRANCH  17  24
ENDBRANCH  16  20
ENDBRANCH  13  16
ENDBRANCH   1  13
BRANCH   4  27
ATOM     27  C   UNL     1      -1.211  13.833  20.006  0.00  0.00    +0.000 C 
BRANCH  27  28
ATOM     28  C   UNL     1      -1.838  12.669  19.286  0.00  0.00    +0.000 C 
ATOM     29  C   UNL     1      -3.105  12.249  19.433  0.00  0.00    +0.000 C 
BRANCH  29  30
ATOM     30  C   UNL     1      -4.133  12.903  20.310  0.00  0.00    +0.000 C 
BRANCH  30  31
ATOM     31  C   UNL     1      -5.559  12.593  19.864  0.00  0.00    +0.000 C 
BRANCH  31  32
ATOM     32  C   UNL     1      -6.322  11.902  20.970  0.00  0.00    +0.000 C 
ATOM     33  O   UNL     1      -6.441  12.313  22.116  0.00  0.00    +0.000 OA
BRANCH  32  34
ATOM     34  O   UNL     1      -6.879  10.740  20.561  0.00  0.00    +0.000 OA
ATOM     35  H   UNL     1      -7.820  10.652  20.800  0.00  0.00    +0.000 HD
ENDBRANCH  32  34
ENDBRANCH  31  32
ENDBRANCH  30  31
ENDBRANCH  29  30
ENDBRANCH  27  28
ENDBRANCH   4  27
TORSDOF 11
ENDMDL
MODEL 8
REMARK VINA RESULT:      -7.5      5.290      9.069
REMARK  Name = 
REMARK  16 active torsions:
REMARK  status: ('A' for Active; 'I' for Inactive)
REMARK    1  A    between atoms: C_1  and  C_2
REMARK    2  A    between atoms: C_2  and  C_3
REMARK    3  A    between atoms: C_2  and  C_4
REMARK    4  A    between atoms: C_2  and  C_5
REMARK    5  A    between atoms: C_8  and  O_9
REMARK    6  A    between atoms: O_9  and  C_10
REMARK    7  A    between atoms: C_10  and  C_11
REMARK    8  A    between atoms: C_10  and  C_12
REMARK    9  A    between atoms: C_10  and  C_13
REMARK   10  A    between atoms: C_16  and  C_17
REMARK   11  A    between atoms: C_17  and  C_18
REMARK   12  A    between atoms: C_19  and  C_20
REMARK   13  A    between atoms: C_20  and  C_21
REMARK   14  A    between atoms: C_21  and  C_22
REMARK   15  A    between atoms: C_22  and  O_24
REMARK   16  A    between atoms: C_25  and  C_26
REMARK                            x       y       z     vdW  Elec       q    Type
REMARK                         _______ _______ _______ _____ _____    ______ ____
ROOT
ATOM      1  C   UNL     1       0.161  10.712  20.621  0.00  0.00    +0.000 C 
ATOM      2  O   UNL     1      -0.093  10.700  19.212  0.00  0.00    +0.000 OA
ATOM      3  C   UNL     1      -0.634  11.922  18.748  0.00  0.00    +0.000 C 
ATOM      4  C   UNL     1      -1.901  12.303  19.512  0.00  0.00    +0.000 C 
ATOM      5  C   UNL     1      -1.569  12.281  21.019  0.00  0.00    +0.000 C 
ATOM      6  O   UNL     1      -1.015  11.012  21.364  0.00  0.00    +0.000 OA
ENDROOT
BRANCH   5   7
ATOM      7  C   UNL     1      -2.696  12.597  21.980  0.00  0.00    +0.000 A 
ATOM      8  C   UNL     1      -3.671  13.552  21.662  0.00  0.00    +0.000 A 
ATOM      9  C   UNL     1      -4.677  13.864  22.571  0.00  0.00    +0.000 A 
ATOM     10  C   UNL     1      -4.702  13.185  23.774  0.00  0.00    +0.000 A 
ATOM     11  N   UNL     1      -3.830  12.208  24.097  0.00  0.00    +0.000 NA
ATOM     12  C   UNL     1      -2.860  11.934  23.194  0.00  0.00    +0.000 A 
ENDBRANCH   5   7
BRANCH   1  13
ATOM     13  C   UNL     1       0.736   9.310  21.062  0.00  0.00    +0.000 C 
ATOM     14  C   UNL     1      -0.435   8.311  21.090  0.00  0.00    +0.000 C 
ATOM     15  C   UNL     1       1.365   9.558  22.447  0.00  0.00    +0.000 C 
BRANCH  13  16
ATOM     16  O   UNL     1       1.715   8.921  20.065  0.00  0.00    +0.000 OA
BRANCH  16  20
ATOM     17  C   UNL     1       2.243   4.840  19.190  0.00  0.00    +0.000 A 
ATOM     18  C   UNL     1       1.894   5.303  20.469  0.00  0.00    +0.000 A 
ATOM     19  C   UNL     1       1.751   6.678  20.723  0.00  0.00    +0.000 A 
ATOM     20  C   UNL     1       1.969   7.626  19.731  0.00  0.00    +0.000 A 
ATOM     21  C   UNL     1       2.355   7.176  18.474  0.00  0.00    +0.000 A 
ATOM     22  C   UNL     1       2.487   5.808  18.209  0.00  0.00    +0.000 A 
BRANCH  17  24
ATOM     23  C   UNL     1       1.142   2.519  19.306  0.00  0.00    +0.000 C 
ATOM     24  C   UNL     1       2.341   3.355  18.813  0.00  0.00    +0.000 C 
ATOM     25  C   UNL     1       3.623   2.741  19.418  0.00  0.00    +0.000 C 
ATOM     26  C   UNL     1       2.402   3.219  17.274  0.00  0.00    +0.000 C 
ENDBRANCH  17  24
ENDBRANCH  16  20
ENDBRANCH  13  16
ENDBRANCH   1  13
BRANCH   4  27
ATOM     27  C   UNL     1      -3.106  11.428  19.077  0.00  0.00    +0.000 C 
BRANCH  27  28
ATOM     28  C   UNL     1      -3.559  11.458  17.642  0.00  0.00    +0.000 C 
ATOM     29  C   UNL     1      -4.791  11.785  17.218  0.00  0.00    +0.000 C 
BRANCH  29  30
ATOM     30  C   UNL     1      -5.919  12.225  18.105  0.00  0.00    +0.000 C 
BRANCH  30  31
ATOM     31  C   UNL     1      -6.924  11.106  18.365  0.00  0.00    +0.000 C 
BRANCH  31  32
ATOM     32  C   UNL     1      -6.994  10.789  19.841  0.00  0.00    +0.000 C 
ATOM     33  O   UNL     1      -6.396  11.385  20.726  0.00  0.00    +0.000 OA
BRANCH  32  34
ATOM     34  O   UNL     1      -7.807   9.742  20.103  0.00  0.00    +0.000 OA
ATOM     35  H   UNL     1      -7.571   9.257  20.915  0.00  0.00    +0.000 HD
ENDBRANCH  32  34
ENDBRANCH  31  32
ENDBRANCH  30  31
ENDBRANCH  29  30
ENDBRANCH  27  28
ENDBRANCH   4  27
TORSDOF 11
ENDMDL
MODEL 9
REMARK VINA RESULT:      -7.5      4.761      8.704
REMARK  Name = 
REMARK  16 active torsions:
REMARK  status: ('A' for Active; 'I' for Inactive)
REMARK    1  A    between atoms: C_1  and  C_2
REMARK    2  A    between atoms: C_2  and  C_3
REMARK    3  A    between atoms: C_2  and  C_4
REMARK    4  A    between atoms: C_2  and  C_5
REMARK    5  A    between atoms: C_8  and  O_9
REMARK    6  A    between atoms: O_9  and  C_10
REMARK    7  A    between atoms: C_10  and  C_11
REMARK    8  A    between atoms: C_10  and  C_12
REMARK    9  A    between atoms: C_10  and  C_13
REMARK   10  A    between atoms: C_16  and  C_17
REMARK   11  A    between atoms: C_17  and  C_18
REMARK   12  A    between atoms: C_19  and  C_20
REMARK   13  A    between atoms: C_20  and  C_21
REMARK   14  A    between atoms: C_21  and  C_22
REMARK   15  A    between atoms: C_22  and  O_24
REMARK   16  A    between atoms: C_25  and  C_26
REMARK                            x       y       z     vdW  Elec       q    Type
REMARK                         _______ _______ _______ _____ _____    ______ ____
ROOT
ATOM      1  C   UNL     1       0.089  10.565  20.720  0.00  0.00    +0.000 C 
ATOM      2  O   UNL     1      -0.332  10.414  19.360  0.00  0.00    +0.000 OA
ATOM      3  C   UNL     1      -0.794  11.629  18.798  0.00  0.00    +0.000 C 
ATOM      4  C   UNL     1      -1.912  12.247  19.635  0.00  0.00    +0.000 C 
ATOM      5  C   UNL     1      -1.405  12.366  21.087  0.00  0.00    +0.000 C 
ATOM      6  O   UNL     1      -0.951  11.089  21.537  0.00  0.00    +0.000 OA
ENDROOT
BRANCH   5   7
ATOM      7  C   UNL     1      -2.370  12.926  22.113  0.00  0.00    +0.000 A 
ATOM      8  C   UNL     1      -2.922  14.205  21.962  0.00  0.00    +0.000 A 
ATOM      9  C   UNL     1      -3.773  14.726  22.931  0.00  0.00    +0.000 A 
ATOM     10  C   UNL     1      -4.077  13.936  24.023  0.00  0.00    +0.000 A 
ATOM     11  N   UNL     1      -3.629  12.674  24.179  0.00  0.00    +0.000 NA
ATOM     12  C   UNL     1      -2.798  12.200  23.221  0.00  0.00    +0.000 A 
ENDBRANCH   5   7
BRANCH   1  13
ATOM     13  C   UNL     1       0.563   9.167  21.279  0.00  0.00    +0.000 C 
ATOM     14  C   UNL     1      -0.576   8.158  21.044  0.00  0.00    +0.000 C 
ATOM     15  C   UNL     1       0.862   9.417  22.770  0.00  0.00    +0.000 C 
BRANCH  13  16
ATOM     16  O   UNL     1       1.743   8.787  20.527  0.00  0.00    +0.000 OA
BRANCH  16  20
ATOM     17  C   UNL     1       2.152   4.810  19.219  0.00  0.00    +0.000 A 
ATOM     18  C   UNL     1       1.897   5.146  20.559  0.00  0.00    +0.000 A 
ATOM     19  C   UNL     1       1.792   6.490  20.957  0.00  0.00    +0.000 A 
ATOM     20  C   UNL     1       1.955   7.530  20.050  0.00  0.00    +0.000 A 
ATOM     21  C   UNL     1       2.248   7.204  18.731  0.00  0.00    +0.000 A 
ATOM     22  C   UNL     1       2.342   5.868  18.325  0.00  0.00    +0.000 A 
BRANCH  17  24
ATOM     23  C   UNL     1       0.881   2.598  18.890  0.00  0.00    +0.000 C 
ATOM     24  C   UNL     1       2.202   3.369  18.693  0.00  0.00    +0.000 C 
ATOM     25  C   UNL     1       3.319   2.582  19.414  0.00  0.00    +0.000 C 
ATOM     26  C   UNL     1       2.507   3.387  17.177  0.00  0.00    +0.000 C 
ENDBRANCH  17  24
ENDBRANCH  16  20
ENDBRANCH  13  16
ENDBRANCH   1  13
BRANCH   4  27
ATOM     27  C   UNL     1      -3.246  11.476  19.449  0.00  0.00    +0.000 C 
BRANCH  27  28
ATOM     28  C   UNL     1      -4.253  11.974  18.448  0.00  0.00    +0.000 C 
ATOM     29  C   UNL     1      -4.421  11.496  17.204  0.00  0.00    +0.000 C 
BRANCH  29  30
ATOM     30  C   UNL     1      -3.662  10.343  16.614  0.00  0.00    +0.000 C 
BRANCH  30  31
ATOM     31  C   UNL     1      -2.767  10.770  15.455  0.00  0.00    +0.000 C 
BRANCH  31  32
ATOM     32  C   UNL     1      -3.192  10.084  14.177  0.00  0.00    +0.000 C 
ATOM     33  O   UNL     1      -2.446   9.755  13.265  0.00  0.00    +0.000 OA
BRANCH  32  34
ATOM     34  O   UNL     1      -4.524   9.863  14.131  0.00  0.00    +0.000 OA
ATOM     35  H   UNL     1      -5.019  10.305  14.845  0.00  0.00    +0.000 HD
ENDBRANCH  32  34
ENDBRANCH  31  32
ENDBRANCH  30  31
ENDBRANCH  29  30
ENDBRANCH  27  28
ENDBRANCH   4  27
TORSDOF 11
ENDMDL
