MODEL 1
REMARK VINA RESULT:      -6.7      0.000      0.000
REMARK  Name = 
REMARK  7 active torsions:
REMARK  status: ('A' for Active; 'I' for Inactive)
REMARK    1  A    between atoms: C_1  and  C_2
REMARK    2  A    between atoms: C_2  and  O_3
REMARK    3  A    between atoms: O_3  and  C_4
REMARK    4  A    between atoms: C_9  and  C_10
REMARK    5  A    between atoms: N_11  and  N_12
REMARK    6  A    between atoms: C_13  and  C_15
REMARK    7  A    between atoms: C_15  and  N_16
REMARK                            x       y       z     vdW  Elec       q    Type
REMARK                         _______ _______ _______ _____ _____    ______ ____
ROOT
ATOM      1  C   UNL     1       1.345   8.946  19.634  0.00  0.00    +0.000 C 
ATOM      2  N   UNL     1       1.966   7.814  19.778  0.00  0.00    +0.000 NA
ENDROOT
BRANCH   1   8
ATOM      3  C   UNL     1      -0.287  10.612  20.615  0.00  0.00    +0.000 A 
ATOM      4  C   UNL     1      -0.999  11.075  21.733  0.00  0.00    +0.000 A 
ATOM      5  C   UNL     1      -0.771  10.540  23.002  0.00  0.00    +0.000 A 
ATOM      6  C   UNL     1       0.144   9.503  23.164  0.00  0.00    +0.000 A 
ATOM      7  C   UNL     1       0.804   8.986  22.052  0.00  0.00    +0.000 A 
ATOM      8  C   UNL     1       0.589   9.527  20.775  0.00  0.00    +0.000 A 
BRANCH   3   9
ATOM      9  O   UNL     1      -0.399  11.183  19.371  0.00  0.00    +0.000 OA
BRANCH   9  11
ATOM     10  C   UNL     1      -1.725  10.156  17.650  0.00  0.00    +0.000 C 
ATOM     11  C   UNL     1      -1.718  11.137  18.804  0.00  0.00    +0.000 C 
ENDBRANCH   9  11
ENDBRANCH   3   9
ENDBRANCH   1   8
BRANCH   2  12
ATOM     12  N   UNL     1       2.708   7.333  18.746  0.00  0.00    +0.000 N 
ATOM     13  C   UNL     1       2.934   5.958  18.711  0.00  0.00    +0.000 C 
ATOM     14  O   UNL     1       2.424   5.133  19.471  0.00  0.00    +0.000 OA
ATOM     15  H   UNL     1       3.167   8.005  18.140  0.00  0.00    +0.000 HD
BRANCH  13  16
ATOM     16  C   UNL     1       3.867   5.486  17.624  0.00  0.00    +0.000 C 
BRANCH  16  17
ATOM     17  N   UNL     1       5.260   5.861  17.960  0.00  0.00    +0.000 N 
ATOM     18  C   UNL     1       5.919   6.776  17.203  0.00  0.00    +0.000 A 
ATOM     19  C   UNL     1       7.244   7.104  17.483  0.00  0.00    +0.000 A 
ATOM     20  C   UNL     1       7.885   6.502  18.560  0.00  0.00    +0.000 A 
ATOM     21  C   UNL     1       7.188   5.592  19.343  0.00  0.00    +0.000 A 
ATOM     22  C   UNL     1       5.870   5.289  19.024  0.00  0.00    +0.000 A 
ENDBRANCH  16  17
ENDBRANCH  13  16
ENDBRANCH   2  12
TORSDOF 6
ENDMDL
MODEL 2
REMARK VINA RESULT:      -6.6      0.147      1.046
REMARK  Name = 
REMARK  7 active torsions:
REMARK  status: ('A' for Active; 'I' for Inactive)
REMARK    1  A    between atoms: C_1  and  C_2
REMARK    2  A    between atoms: C_2  and  O_3
REMARK    3  A    between atoms: O_3  and  C_4
REMARK    4  A    between atoms: C_9  and  C_10
REMARK    5  A    between atoms: N_11  and  N_12
REMARK    6  A    between atoms: C_13  and  C_15
REMARK    7  A    between atoms: C_15  and  N_16
REMARK                            x       y       z     vdW  Elec       q    Type
REMARK                         _______ _______ _______ _____ _____    ______ ____
ROOT
ATOM      1  C   UNL     1       1.312   8.976  19.633  0.00  0.00    +0.000 C 
ATOM      2  N   UNL     1       1.988   7.877  19.787  0.00  0.00    +0.000 NA
ENDROOT
BRANCH   1   8
ATOM      3  C   UNL     1      -0.231  10.703  20.652  0.00  0.00    +0.000 A 
ATOM      4  C   UNL     1      -0.937  11.163  21.775  0.00  0.00    +0.000 A 
ATOM      5  C   UNL     1      -0.775  10.560  23.022  0.00  0.00    +0.000 A 
ATOM      6  C   UNL     1       0.066   9.459  23.158  0.00  0.00    +0.000 A 
ATOM      7  C   UNL     1       0.717   8.947  22.038  0.00  0.00    +0.000 A 
ATOM      8  C   UNL     1       0.568   9.555  20.781  0.00  0.00    +0.000 A 
BRANCH   3   9
ATOM      9  O   UNL     1      -0.276  11.333  19.433  0.00  0.00    +0.000 OA
BRANCH   9  11
ATOM     10  C   UNL     1      -1.751  10.268  17.863  0.00  0.00    +0.000 C 
ATOM     11  C   UNL     1      -1.583  11.410  18.842  0.00  0.00    +0.000 C 
ENDBRANCH   9  11
ENDBRANCH   3   9
ENDBRANCH   1   8
BRANCH   2  12
ATOM     12  N   UNL     1       2.717   7.399  18.744  0.00  0.00    +0.000 N 
ATOM     13  C   UNL     1       2.832   6.016  18.629  0.00  0.00    +0.000 C 
ATOM     14  O   UNL     1       2.239   5.191  19.325  0.00  0.00    +0.000 OA
ATOM     15  H   UNL     1       3.244   8.067  18.190  0.00  0.00    +0.000 HD
BRANCH  13  16
ATOM     16  C   UNL     1       3.754   5.534  17.536  0.00  0.00    +0.000 C 
BRANCH  16  17
ATOM     17  N   UNL     1       5.158   5.839  17.893  0.00  0.00    +0.000 N 
ATOM     18  C   UNL     1       5.729   5.247  18.974  0.00  0.00    +0.000 A 
ATOM     19  C   UNL     1       7.035   5.560  19.346  0.00  0.00    +0.000 A 
ATOM     20  C   UNL     1       7.762   6.472  18.588  0.00  0.00    +0.000 A 
ATOM     21  C   UNL     1       7.175   7.045  17.468  0.00  0.00    +0.000 A 
ATOM     22  C   UNL     1       5.868   6.710  17.138  0.00  0.00    +0.000 A 
ENDBRANCH  16  17
ENDBRANCH  13  16
ENDBRANCH   2  12
TORSDOF 6
ENDMDL
MODEL 3
REMARK VINA RESULT:      -6.6      4.789      8.131
REMARK  Name = 
REMARK  7 active torsions:
REMARK  status: ('A' for Active; 'I' for Inactive)
REMARK    1  A    between atoms: C_1  and  C_2
REMARK    2  A    between atoms: C_2  and  O_3
REMARK    3  A    between atoms: O_3  and  C_4
REMARK    4  A    between atoms: C_9  and  C_10
REMARK    5  A    between atoms: N_11  and  N_12
REMARK    6  A    between atoms: C_13  and  C_15
REMARK    7  A    between atoms: C_15  and  N_16
REMARK                            x       y       z     vdW  Elec       q    Type
REMARK                         _______ _______ _______ _____ _____    ______ ____
ROOT
ATOM      1  C   UNL     1       8.543  10.291  18.136  0.00  0.00    +0.000 C 
ATOM      2  N   UNL     1       8.547   8.994  18.057  0.00  0.00    +0.000 NA
ENDROOT
BRANCH   1   8
ATOM      3  C   UNL     1       9.833  11.288  20.071  0.00  0.00    +0.000 A 
ATOM      4  C   UNL     1      10.996  11.925  20.533  0.00  0.00    +0.000 A 
ATOM      5  C   UNL     1      11.978  12.361  19.644  0.00  0.00    +0.000 A 
ATOM      6  C   UNL     1      11.831  12.129  18.278  0.00  0.00    +0.000 A 
ATOM      7  C   UNL     1      10.717  11.435  17.813  0.00  0.00    +0.000 A 
ATOM      8  C   UNL     1       9.719  11.003  18.701  0.00  0.00    +0.000 A 
BRANCH   3   9
ATOM      9  O   UNL     1       8.793  10.941  20.899  0.00  0.00    +0.000 OA
BRANCH   9  11
ATOM     10  C   UNL     1       8.059  13.084  21.703  0.00  0.00    +0.000 C 
ATOM     11  C   UNL     1       8.668  11.749  22.080  0.00  0.00    +0.000 C 
ENDBRANCH   9  11
ENDBRANCH   3   9
ENDBRANCH   1   8
BRANCH   2  12
ATOM     12  N   UNL     1       7.492   8.365  17.476  0.00  0.00    +0.000 N 
ATOM     13  C   UNL     1       7.333   7.008  17.746  0.00  0.00    +0.000 C 
ATOM     14  O   UNL     1       7.999   6.359  18.554  0.00  0.00    +0.000 OA
ATOM     15  H   UNL     1       6.963   8.877  16.777  0.00  0.00    +0.000 HD
BRANCH  13  16
ATOM     16  C   UNL     1       6.228   6.323  16.980  0.00  0.00    +0.000 C 
BRANCH  16  17
ATOM     17  N   UNL     1       4.984   6.326  17.784  0.00  0.00    +0.000 N 
ATOM     18  C   UNL     1       3.981   7.191  17.481  0.00  0.00    +0.000 A 
ATOM     19  C   UNL     1       2.824   7.234  18.257  0.00  0.00    +0.000 A 
ATOM     20  C   UNL     1       2.693   6.368  19.337  0.00  0.00    +0.000 A 
ATOM     21  C   UNL     1       3.713   5.468  19.614  0.00  0.00    +0.000 A 
ATOM     22  C   UNL     1       4.852   5.464  18.819  0.00  0.00    +0.000 A 
ENDBRANCH  16  17
ENDBRANCH  13  16
ENDBRANCH   2  12
TORSDOF 6
ENDMDL
MODEL 4
REMARK VINA RESULT:      -6.6      4.017      6.000
REMARK  Name = 
REMARK  7 active torsions:
REMARK  status: ('A' for Active; 'I' for Inactive)
REMARK    1  A    between atoms: C_1  and  C_2
REMARK    2  A    between atoms: C_2  and  O_3
REMARK    3  A    between atoms: O_3  and  C_4
REMARK    4  A    between atoms: C_9  and  C_10
REMARK    5  A    between atoms: N_11  and  N_12
REMARK    6  A    between atoms: C_13  and  C_15
REMARK    7  A    between atoms: C_15  and  N_16
REMARK                            x       y       z     vdW  Elec       q    Type
REMARK                         _______ _______ _______ _____ _____    ______ ____
ROOT
ATOM      1  C   UNL     1       4.452   3.664  18.374  0.00  0.00    +0.000 C 
ATOM      2  N   UNL     1       5.590   4.190  18.711  0.00  0.00    +0.000 NA
ENDROOT
BRANCH   1   8
ATOM      3  C   UNL     1       2.284   4.506  19.373  0.00  0.00    +0.000 A 
ATOM      4  C   UNL     1       1.256   4.342  20.315  0.00  0.00    +0.000 A 
ATOM      5  C   UNL     1       1.332   3.351  21.294  0.00  0.00    +0.000 A 
ATOM      6  C   UNL     1       2.418   2.481  21.320  0.00  0.00    +0.000 A 
ATOM      7  C   UNL     1       3.410   2.587  20.348  0.00  0.00    +0.000 A 
ATOM      8  C   UNL     1       3.348   3.589  19.366  0.00  0.00    +0.000 A 
BRANCH   3   9
ATOM      9  O   UNL     1       2.304   5.535  18.462  0.00  0.00    +0.000 OA
BRANCH   9  11
ATOM     10  C   UNL     1       2.463   7.873  17.932  0.00  0.00    +0.000 C 
ATOM     11  C   UNL     1       2.591   6.827  19.020  0.00  0.00    +0.000 C 
ENDBRANCH   9  11
ENDBRANCH   3   9
ENDBRANCH   1   8
BRANCH   2  12
ATOM     12  N   UNL     1       6.564   4.312  17.771  0.00  0.00    +0.000 N 
ATOM     13  C   UNL     1       6.436   5.351  16.852  0.00  0.00    +0.000 C 
ATOM     14  O   UNL     1       5.577   6.233  16.889  0.00  0.00    +0.000 OA
ATOM     15  H   UNL     1       7.253   3.569  17.704  0.00  0.00    +0.000 HD
BRANCH  13  16
ATOM     16  C   UNL     1       7.468   5.370  15.751  0.00  0.00    +0.000 C 
BRANCH  16  17
ATOM     17  N   UNL     1       6.902   4.765  14.523  0.00  0.00    +0.000 N 
ATOM     18  C   UNL     1       5.697   4.140  14.566  0.00  0.00    +0.000 A 
ATOM     19  C   UNL     1       5.175   3.530  13.427  0.00  0.00    +0.000 A 
ATOM     20  C   UNL     1       5.890   3.580  12.236  0.00  0.00    +0.000 A 
ATOM     21  C   UNL     1       7.106   4.249  12.201  0.00  0.00    +0.000 A 
ATOM     22  C   UNL     1       7.592   4.839  13.361  0.00  0.00    +0.000 A 
ENDBRANCH  16  17
ENDBRANCH  13  16
ENDBRANCH   2  12
TORSDOF 6
ENDMDL
MODEL 5
REMARK VINA RESULT:      -6.4      1.029      1.251
REMARK  Name = 
REMARK  7 active torsions:
REMARK  status: ('A' for Active; 'I' for Inactive)
REMARK    1  A    between atoms: C_1  and  C_2
REMARK    2  A    between atoms: C_2  and  O_3
REMARK    3  A    between atoms: O_3  and  C_4
REMARK    4  A    between atoms: C_9  and  C_10
REMARK    5  A    between atoms: N_11  and  N_12
REMARK    6  A    between atoms: C_13  and  C_15
REMARK    7  A    between atoms: C_15  and  N_16
REMARK                            x       y       z     vdW  Elec       q    Type
REMARK                         _______ _______ _______ _____ _____    ______ ____
ROOT
ATOM      1  C   UNL     1       1.296   9.034  19.573  0.00  0.00    +0.000 C 
ATOM      2  N   UNL     1       1.945   7.924  19.752  0.00  0.00    +0.000 NA
ENDROOT
BRANCH   1   8
ATOM      3  C   UNL     1      -0.056  10.910  20.601  0.00  0.00    +0.000 A 
ATOM      4  C   UNL     1      -0.774  11.405  21.702  0.00  0.00    +0.000 A 
ATOM      5  C   UNL     1      -0.800  10.713  22.913  0.00  0.00    +0.000 A 
ATOM      6  C   UNL     1      -0.141   9.492  23.029  0.00  0.00    +0.000 A 
ATOM      7  C   UNL     1       0.516   8.955  21.924  0.00  0.00    +0.000 A 
ATOM      8  C   UNL     1       0.556   9.651  20.706  0.00  0.00    +0.000 A 
BRANCH   3   9
ATOM      9  O   UNL     1       0.087  11.611  19.428  0.00  0.00    +0.000 OA
BRANCH   9  11
ATOM     10  C   UNL     1       2.109  12.606  18.595  0.00  0.00    +0.000 C 
ATOM     11  C   UNL     1       0.922  12.776  19.520  0.00  0.00    +0.000 C 
ENDBRANCH   9  11
ENDBRANCH   3   9
ENDBRANCH   1   8
BRANCH   2  12
ATOM     12  N   UNL     1       2.671   7.411  18.724  0.00  0.00    +0.000 N 
ATOM     13  C   UNL     1       2.969   6.051  18.771  0.00  0.00    +0.000 C 
ATOM     14  O   UNL     1       2.534   5.255  19.605  0.00  0.00    +0.000 OA
ATOM     15  H   UNL     1       3.070   8.063  18.055  0.00  0.00    +0.000 HD
BRANCH  13  16
ATOM     16  C   UNL     1       3.883   5.553  17.679  0.00  0.00    +0.000 C 
BRANCH  16  17
ATOM     17  N   UNL     1       5.284   5.915  17.994  0.00  0.00    +0.000 N 
ATOM     18  C   UNL     1       5.936   6.834  17.234  0.00  0.00    +0.000 A 
ATOM     19  C   UNL     1       7.268   7.151  17.494  0.00  0.00    +0.000 A 
ATOM     20  C   UNL     1       7.925   6.532  18.552  0.00  0.00    +0.000 A 
ATOM     21  C   UNL     1       7.235   5.618  19.338  0.00  0.00    +0.000 A 
ATOM     22  C   UNL     1       5.910   5.327  19.040  0.00  0.00    +0.000 A 
ENDBRANCH  16  17
ENDBRANCH  13  16
ENDBRANCH   2  12
TORSDOF 6
ENDMDL
MODEL 6
REMARK VINA RESULT:      -6.4      1.622      1.916
REMARK  Name = 
REMARK  7 active torsions:
REMARK  status: ('A' for Active; 'I' for Inactive)
REMARK    1  A    between atoms: C_1  and  C_2
REMARK    2  A    between atoms: C_2  and  O_3
REMARK    3  A    between atoms: O_3  and  C_4
REMARK    4  A    between atoms: C_9  and  C_10
REMARK    5  A    between atoms: N_11  and  N_12
REMARK    6  A    between atoms: C_13  and  C_15
REMARK    7  A    between atoms: C_15  and  N_16
REMARK                            x       y       z     vdW  Elec       q    Type
REMARK                         _______ _______ _______ _____ _____    ______ ____
ROOT
ATOM      1  C   UNL     1       1.227   9.306  17.893  0.00  0.00    +0.000 C 
ATOM      2  N   UNL     1       2.051   8.507  18.501  0.00  0.00    +0.000 NA
ENDROOT
BRANCH   1   8
ATOM      3  C   UNL     1      -0.977  10.455  18.369  0.00  0.00    +0.000 A 
ATOM      4  C   UNL     1      -1.729  11.311  19.190  0.00  0.00    +0.000 A 
ATOM      5  C   UNL     1      -1.129  12.009  20.239  0.00  0.00    +0.000 A 
ATOM      6  C   UNL     1       0.225  11.829  20.508  0.00  0.00    +0.000 A 
ATOM      7  C   UNL     1       0.966  10.929  19.747  0.00  0.00    +0.000 A 
ATOM      8  C   UNL     1       0.373  10.232  18.682  0.00  0.00    +0.000 A 
BRANCH   3   9
ATOM      9  O   UNL     1      -1.501   9.834  17.261  0.00  0.00    +0.000 OA
BRANCH   9  11
ATOM     10  C   UNL     1      -2.780  10.069  15.240  0.00  0.00    +0.000 C 
ATOM     11  C   UNL     1      -2.646  10.487  16.689  0.00  0.00    +0.000 C 
ENDBRANCH   9  11
ENDBRANCH   3   9
ENDBRANCH   1   8
BRANCH   2  12
ATOM     12  N   UNL     1       2.871   7.717  17.760  0.00  0.00    +0.000 N 
ATOM     13  C   UNL     1       3.048   6.403  18.189  0.00  0.00    +0.000 C 
ATOM     14  O   UNL     1       2.438   5.868  19.115  0.00  0.00    +0.000 OA
ATOM     15  H   UNL     1       3.412   8.156  17.021  0.00  0.00    +0.000 HD
BRANCH  13  16
ATOM     16  C   UNL     1       4.065   5.602  17.413  0.00  0.00    +0.000 C 
BRANCH  16  17
ATOM     17  N   UNL     1       5.431   5.951  17.867  0.00  0.00    +0.000 N 
ATOM     18  C   UNL     1       6.161   6.869  17.181  0.00  0.00    +0.000 A 
ATOM     19  C   UNL     1       7.464   7.173  17.573  0.00  0.00    +0.000 A 
ATOM     20  C   UNL     1       8.008   6.543  18.687  0.00  0.00    +0.000 A 
ATOM     21  C   UNL     1       7.237   5.631  19.395  0.00  0.00    +0.000 A 
ATOM     22  C   UNL     1       5.946   5.353  18.966  0.00  0.00    +0.000 A 
ENDBRANCH  16  17
ENDBRANCH  13  16
ENDBRANCH   2  12
TORSDOF 6
ENDMDL
MODEL 7
REMARK VINA RESULT:      -6.4      2.275      7.770
REMARK  Name = 
REMARK  7 active torsions:
REMARK  status: ('A' for Active; 'I' for Inactive)
REMARK    1  A    between atoms: C_1  and  C_2
REMARK    2  A    between atoms: C_2  and  O_3
REMARK    3  A    between atoms: O_3  and  C_4
REMARK    4  A    between atoms: C_9  and  C_10
REMARK    5  A    between atoms: N_11  and  N_12
REMARK    6  A    between atoms: C_13  and  C_15
REMARK    7  A    between atoms: C_15  and  N_16
REMARK                            x       y       z     vdW  Elec       q    Type
REMARK                         _______ _______ _______ _____ _____    ______ ____
ROOT
ATOM      1  C   UNL     1       2.209   6.268  19.721  0.00  0.00    +0.000 C 
ATOM      2  N   UNL     1       1.676   6.809  20.775  0.00  0.00    +0.000 NA
ENDROOT
BRANCH   1   8
ATOM      3  C   UNL     1       2.947   4.119  18.606  0.00  0.00    +0.000 A 
ATOM      4  C   UNL     1       2.836   2.723  18.505  0.00  0.00    +0.000 A 
ATOM      5  C   UNL     1       1.861   2.027  19.219  0.00  0.00    +0.000 A 
ATOM      6  C   UNL     1       1.006   2.713  20.079  0.00  0.00    +0.000 A 
ATOM      7  C   UNL     1       1.152   4.088  20.243  0.00  0.00    +0.000 A 
ATOM      8  C   UNL     1       2.124   4.798  19.519  0.00  0.00    +0.000 A 
BRANCH   3   9
ATOM      9  O   UNL     1       3.818   4.856  17.840  0.00  0.00    +0.000 OA
BRANCH   9  11
ATOM     10  C   UNL     1       5.798   5.176  19.163  0.00  0.00    +0.000 C 
ATOM     11  C   UNL     1       5.197   4.475  17.962  0.00  0.00    +0.000 C 
ENDBRANCH   9  11
ENDBRANCH   3   9
ENDBRANCH   1   8
BRANCH   2  12
ATOM     12  N   UNL     1       1.705   8.161  20.908  0.00  0.00    +0.000 N 
ATOM     13  C   UNL     1       0.530   8.785  21.321  0.00  0.00    +0.000 C 
ATOM     14  O   UNL     1      -0.495   8.206  21.683  0.00  0.00    +0.000 OA
ATOM     15  H   UNL     1       2.528   8.652  20.574  0.00  0.00    +0.000 HD
BRANCH  13  16
ATOM     16  C   UNL     1       0.570  10.294  21.331  0.00  0.00    +0.000 C 
BRANCH  16  17
ATOM     17  N   UNL     1      -0.413  10.827  20.360  0.00  0.00    +0.000 N 
ATOM     18  C   UNL     1      -0.417  10.375  19.079  0.00  0.00    +0.000 A 
ATOM     19  C   UNL     1      -1.308  10.902  18.145  0.00  0.00    +0.000 A 
ATOM     20  C   UNL     1      -2.209  11.884  18.539  0.00  0.00    +0.000 A 
ATOM     21  C   UNL     1      -2.213  12.314  19.859  0.00  0.00    +0.000 A 
ATOM     22  C   UNL     1      -1.303  11.767  20.755  0.00  0.00    +0.000 A 
ENDBRANCH  16  17
ENDBRANCH  13  16
ENDBRANCH   2  12
TORSDOF 6
ENDMDL
MODEL 8
REMARK VINA RESULT:      -6.3      5.049      7.749
REMARK  Name = 
REMARK  7 active torsions:
REMARK  status: ('A' for Active; 'I' for Inactive)
REMARK    1  A    between atoms: C_1  and  C_2
REMARK    2  A    between atoms: C_2  and  O_3
REMARK    3  A    between atoms: O_3  and  C_4
REMARK    4  A    between atoms: C_9  and  C_10
REMARK    5  A    between atoms: N_11  and  N_12
REMARK    6  A    between atoms: C_13  and  C_15
REMARK    7  A    between atoms: C_15  and  N_16
REMARK                            x       y       z     vdW  Elec       q    Type
REMARK                         _______ _______ _______ _____ _____    ______ ____
ROOT
ATOM      1  C   UNL     1       8.282  10.564  17.958  0.00  0.00    +0.000 C 
ATOM      2  N   UNL     1       8.488   9.289  18.094  0.00  0.00    +0.000 NA
ENDROOT
BRANCH   1   8
ATOM      3  C   UNL     1       9.112  12.922  18.355  0.00  0.00    +0.000 A 
ATOM      4  C   UNL     1      10.032  13.778  18.980  0.00  0.00    +0.000 A 
ATOM      5  C   UNL     1      11.115  13.268  19.696  0.00  0.00    +0.000 A 
ATOM      6  C   UNL     1      11.272  11.891  19.833  0.00  0.00    +0.000 A 
ATOM      7  C   UNL     1      10.326  11.032  19.278  0.00  0.00    +0.000 A 
ATOM      8  C   UNL     1       9.240  11.537  18.546  0.00  0.00    +0.000 A 
BRANCH   3   9
ATOM      9  O   UNL     1       8.096  13.378  17.551  0.00  0.00    +0.000 OA
BRANCH   9  11
ATOM     10  C   UNL     1       6.139  14.736  17.872  0.00  0.00    +0.000 C 
ATOM     11  C   UNL     1       7.653  14.714  17.839  0.00  0.00    +0.000 C 
ENDBRANCH   9  11
ENDBRANCH   3   9
ENDBRANCH   1   8
BRANCH   2  12
ATOM     12  N   UNL     1       7.638   8.416  17.492  0.00  0.00    +0.000 N 
ATOM     13  C   UNL     1       7.653   7.098  17.945  0.00  0.00    +0.000 C 
ATOM     14  O   UNL     1       8.287   6.687  18.917  0.00  0.00    +0.000 OA
ATOM     15  H   UNL     1       7.144   8.732  16.664  0.00  0.00    +0.000 HD
BRANCH  13  16
ATOM     16  C   UNL     1       6.791   6.138  17.163  0.00  0.00    +0.000 C 
BRANCH  16  17
ATOM     17  N   UNL     1       5.460   6.023  17.804  0.00  0.00    +0.000 N 
ATOM     18  C   UNL     1       5.258   5.111  18.790  0.00  0.00    +0.000 A 
ATOM     19  C   UNL     1       3.999   4.964  19.371  0.00  0.00    +0.000 A 
ATOM     20  C   UNL     1       2.951   5.772  18.946  0.00  0.00    +0.000 A 
ATOM     21  C   UNL     1       3.182   6.721  17.959  0.00  0.00    +0.000 A 
ATOM     22  C   UNL     1       4.450   6.830  17.403  0.00  0.00    +0.000 A 
ENDBRANCH  16  17
ENDBRANCH  13  16
ENDBRANCH   2  12
TORSDOF 6
ENDMDL
MODEL 9
REMARK VINA RESULT:      -6.3      4.971      7.589
REMARK  Name = 
REMARK  7 active torsions:
REMARK  status: ('A' for Active; 'I' for Inactive)
REMARK    1  A    between atoms: C_1  and  C_2
REMARK    2  A    between atoms: C_2  and  O_3
REMARK    3  A    between atoms: O_3  and  C_4
REMARK    4  A    between atoms: C_9  and  C_10
REMARK    5  A    between atoms: N_11  and  N_12
REMARK    6  A    between atoms: C_13  and  C_15
REMARK    7  A    between atoms: C_15  and  N_16
REMARK                            x       y       z     vdW  Elec       q    Type
REMARK                         _______ _______ _______ _____ _____    ______ ____
ROOT
ATOM      1  C   UNL     1       8.239  10.466  18.029  0.00  0.00    +0.000 C 
ATOM      2  N   UNL     1       8.522   9.198  18.035  0.00  0.00    +0.000 NA
ENDROOT
BRANCH   1   8
ATOM      3  C   UNL     1       9.081  12.814  18.452  0.00  0.00    +0.000 A 
ATOM      4  C   UNL     1       9.954  13.667  19.147  0.00  0.00    +0.000 A 
ATOM      5  C   UNL     1      10.946  13.152  19.982  0.00  0.00    +0.000 A 
ATOM      6  C   UNL     1      11.055  11.777  20.167  0.00  0.00    +0.000 A 
ATOM      7  C   UNL     1      10.150  10.923  19.539  0.00  0.00    +0.000 A 
ATOM      8  C   UNL     1       9.156  11.432  18.689  0.00  0.00    +0.000 A 
BRANCH   3   9
ATOM      9  O   UNL     1       8.163  13.271  17.538  0.00  0.00    +0.000 OA
BRANCH   9  11
ATOM     10  C   UNL     1       6.104  14.474  17.835  0.00  0.00    +0.000 C 
ATOM     11  C   UNL     1       7.615  14.566  17.830  0.00  0.00    +0.000 C 
ENDBRANCH   9  11
ENDBRANCH   3   9
ENDBRANCH   1   8
BRANCH   2  12
ATOM     12  N   UNL     1       7.708   8.337  17.369  0.00  0.00    +0.000 N 
ATOM     13  C   UNL     1       7.618   7.037  17.861  0.00  0.00    +0.000 C 
ATOM     14  O   UNL     1       8.123   6.635  18.909  0.00  0.00    +0.000 OA
ATOM     15  H   UNL     1       7.321   8.643  16.481  0.00  0.00    +0.000 HD
BRANCH  13  16
ATOM     16  C   UNL     1       6.806   6.084  17.018  0.00  0.00    +0.000 C 
BRANCH  16  17
ATOM     17  N   UNL     1       5.461   5.910  17.612  0.00  0.00    +0.000 N 
ATOM     18  C   UNL     1       4.490   6.832  17.379  0.00  0.00    +0.000 A 
ATOM     19  C   UNL     1       3.234   6.702  17.968  0.00  0.00    +0.000 A 
ATOM     20  C   UNL     1       2.971   5.608  18.785  0.00  0.00    +0.000 A 
ATOM     21  C   UNL     1       3.964   4.659  18.988  0.00  0.00    +0.000 A 
ATOM     22  C   UNL     1       5.204   4.831  18.387  0.00  0.00    +0.000 A 
ENDBRANCH  16  17
ENDBRANCH  13  16
ENDBRANCH   2  12
TORSDOF 6
ENDMDL
