MODEL 1
REMARK VINA RESULT:      -6.8      0.000      0.000
REMARK  Name = 
REMARK  10 active torsions:
REMARK  status: ('A' for Active; 'I' for Inactive)
REMARK    1  A    between atoms: C_1  and  C_2
REMARK    2  A    between atoms: C_2  and  O_3
REMARK    3  A    between atoms: O_3  and  C_4
REMARK    4  A    between atoms: C_6  and  C_7
REMARK    5  A    between atoms: C_7  and  C_8
REMARK    6  A    between atoms: C_8  and  C_9
REMARK    7  A    between atoms: C_9  and  N_10
REMARK    8  A    between atoms: C_11  and  C_13
REMARK    9  A    between atoms: C_20  and  O_21
REMARK   10  A    between atoms: O_21  and  C_22
REMARK                            x       y       z     vdW  Elec       q    Type
REMARK                         _______ _______ _______ _____ _____    ______ ____
ROOT
ATOM      1  C   UNL     1       2.115   3.868  17.664  0.00  0.00    +0.000 C 
ENDROOT
BRANCH   1   4
ATOM      2  C   UNL     1       2.340   7.512  18.803  0.00  0.00    +0.000 A 
ATOM      3  C   UNL     1       2.506   6.330  18.054  0.00  0.00    +0.000 A 
ATOM      4  C   UNL     1       2.142   5.077  18.564  0.00  0.00    +0.000 A 
ATOM      5  C   UNL     1       1.733   4.991  19.893  0.00  0.00    +0.000 A 
ATOM      6  C   UNL     1       1.647   6.146  20.673  0.00  0.00    +0.000 A 
ATOM      7  C   UNL     1       1.924   7.414  20.140  0.00  0.00    +0.000 A 
BRANCH   7   8
ATOM      8  O   UNL     1       1.715   8.406  21.061  0.00  0.00    +0.000 OA
ATOM      9  C   UNL     1       0.432   8.549  21.648  0.00  0.00    +0.000 C 
ENDBRANCH   7   8
BRANCH   2  10
ATOM     10  O   UNL     1       2.565   8.750  18.250  0.00  0.00    +0.000 OA
BRANCH  10  12
ATOM     11  C   UNL     1       1.434  10.868  18.442  0.00  0.00    +0.000 C 
ATOM     12  C   UNL     1       1.392   9.470  17.854  0.00  0.00    +0.000 C 
ENDBRANCH  10  12
ENDBRANCH   2  10
ENDBRANCH   1   4
BRANCH   1  13
ATOM     13  C   UNL     1       2.261   2.540  18.401  0.00  0.00    +0.000 C 
BRANCH  13  14
ATOM     14  C   UNL     1       3.702   2.039  18.300  0.00  0.00    +0.000 C 
BRANCH  14  15
ATOM     15  N   UNL     1       4.459   2.780  17.323  0.00  0.00    +0.000 N 
ATOM     16  C   UNL     1       5.406   3.719  17.667  0.00  0.00    +0.000 C 
ATOM     17  O   UNL     1       5.646   4.050  18.825  0.00  0.00    +0.000 OA
ATOM     18  H   UNL     1       4.400   2.561  16.332  0.00  0.00    +0.000 HD
BRANCH  16  19
ATOM     19  C   UNL     1       6.115   4.288  16.511  0.00  0.00    +0.000 A 
ATOM     20  C   UNL     1       5.656   4.318  15.166  0.00  0.00    +0.000 A 
ATOM     21  C   UNL     1       6.651   4.946  14.459  0.00  0.00    +0.000 A 
ATOM     22  N   UNL     1       7.624   5.246  15.363  0.00  0.00    +0.000 N 
ATOM     23  N   UNL     1       7.334   4.863  16.620  0.00  0.00    +0.000 NA
ATOM     24  H   UNL     1       8.509   5.716  15.195  0.00  0.00    +0.000 HD
ENDBRANCH  16  19
ENDBRANCH  14  15
ENDBRANCH  13  14
ENDBRANCH   1  13
TORSDOF 8
ENDMDL
MODEL 2
REMARK VINA RESULT:      -6.8      2.593      4.264
REMARK  Name = 
REMARK  10 active torsions:
REMARK  status: ('A' for Active; 'I' for Inactive)
REMARK    1  A    between atoms: C_1  and  C_2
REMARK    2  A    between atoms: C_2  and  O_3
REMARK    3  A    between atoms: O_3  and  C_4
REMARK    4  A    between atoms: C_6  and  C_7
REMARK    5  A    between atoms: C_7  and  C_8
REMARK    6  A    between atoms: C_8  and  C_9
REMARK    7  A    between atoms: C_9  and  N_10
REMARK    8  A    between atoms: C_11  and  C_13
REMARK    9  A    between atoms: C_20  and  O_21
REMARK   10  A    between atoms: O_21  and  C_22
REMARK                            x       y       z     vdW  Elec       q    Type
REMARK                         _______ _______ _______ _____ _____    ______ ____
ROOT
ATOM      1  C   UNL     1       3.418   7.134  17.425  0.00  0.00    +0.000 C 
ENDROOT
BRANCH   1   4
ATOM      2  C   UNL     1       1.615   3.986  18.634  0.00  0.00    +0.000 A 
ATOM      3  C   UNL     1       2.158   4.980  17.796  0.00  0.00    +0.000 A 
ATOM      4  C   UNL     1       2.639   6.193  18.307  0.00  0.00    +0.000 A 
ATOM      5  C   UNL     1       2.448   6.470  19.659  0.00  0.00    +0.000 A 
ATOM      6  C   UNL     1       1.833   5.527  20.484  0.00  0.00    +0.000 A 
ATOM      7  C   UNL     1       1.431   4.274  19.995  0.00  0.00    +0.000 A 
BRANCH   7   8
ATOM      8  O   UNL     1       0.910   3.487  20.987  0.00  0.00    +0.000 OA
ATOM      9  C   UNL     1       1.783   2.695  21.774  0.00  0.00    +0.000 C 
ENDBRANCH   7   8
BRANCH   2  10
ATOM     10  O   UNL     1       1.276   2.746  18.148  0.00  0.00    +0.000 OA
BRANCH  10  12
ATOM     11  C   UNL     1       3.478   1.785  17.978  0.00  0.00    +0.000 C 
ATOM     12  C   UNL     1       2.098   1.663  18.598  0.00  0.00    +0.000 C 
ENDBRANCH  10  12
ENDBRANCH   2  10
ENDBRANCH   1   4
BRANCH   1  13
ATOM     13  C   UNL     1       4.857   7.365  17.877  0.00  0.00    +0.000 C 
BRANCH  13  14
ATOM     14  C   UNL     1       5.669   6.080  17.721  0.00  0.00    +0.000 C 
BRANCH  14  15
ATOM     15  N   UNL     1       5.930   5.776  16.337  0.00  0.00    +0.000 N 
ATOM     16  C   UNL     1       6.971   4.969  15.933  0.00  0.00    +0.000 C 
ATOM     17  O   UNL     1       7.798   4.489  16.703  0.00  0.00    +0.000 OA
ATOM     18  H   UNL     1       5.287   6.060  15.603  0.00  0.00    +0.000 HD
BRANCH  16  19
ATOM     19  C   UNL     1       6.996   4.726  14.482  0.00  0.00    +0.000 A 
ATOM     20  C   UNL     1       6.209   3.783  13.768  0.00  0.00    +0.000 A 
ATOM     21  C   UNL     1       6.579   3.926  12.454  0.00  0.00    +0.000 A 
ATOM     22  N   UNL     1       7.534   4.897  12.435  0.00  0.00    +0.000 N 
ATOM     23  N   UNL     1       7.813   5.408  13.648  0.00  0.00    +0.000 NA
ATOM     24  H   UNL     1       8.033   5.266  11.631  0.00  0.00    +0.000 HD
ENDBRANCH  16  19
ENDBRANCH  14  15
ENDBRANCH  13  14
ENDBRANCH   1  13
TORSDOF 8
ENDMDL
MODEL 3
REMARK VINA RESULT:      -6.6      1.632      2.913
REMARK  Name = 
REMARK  10 active torsions:
REMARK  status: ('A' for Active; 'I' for Inactive)
REMARK    1  A    between atoms: C_1  and  C_2
REMARK    2  A    between atoms: C_2  and  O_3
REMARK    3  A    between atoms: O_3  and  C_4
REMARK    4  A    between atoms: C_6  and  C_7
REMARK    5  A    between atoms: C_7  and  C_8
REMARK    6  A    between atoms: C_8  and  C_9
REMARK    7  A    between atoms: C_9  and  N_10
REMARK    8  A    between atoms: C_11  and  C_13
REMARK    9  A    between atoms: C_20  and  O_21
REMARK   10  A    between atoms: O_21  and  C_22
REMARK                            x       y       z     vdW  Elec       q    Type
REMARK                         _______ _______ _______ _____ _____    ______ ____
ROOT
ATOM      1  C   UNL     1       3.097   5.563  19.969  0.00  0.00    +0.000 C 
ENDROOT
BRANCH   1   4
ATOM      2  C   UNL     1       1.020   8.773  20.059  0.00  0.00    +0.000 A 
ATOM      3  C   UNL     1       1.503   7.482  20.350  0.00  0.00    +0.000 A 
ATOM      4  C   UNL     1       2.428   6.836  19.518  0.00  0.00    +0.000 A 
ATOM      5  C   UNL     1       2.769   7.436  18.308  0.00  0.00    +0.000 A 
ATOM      6  C   UNL     1       2.230   8.678  17.968  0.00  0.00    +0.000 A 
ATOM      7  C   UNL     1       1.374   9.370  18.839  0.00  0.00    +0.000 A 
BRANCH   7   8
ATOM      8  O   UNL     1       1.016  10.591  18.332  0.00  0.00    +0.000 OA
ATOM      9  C   UNL     1       1.786  11.733  18.667  0.00  0.00    +0.000 C 
ENDBRANCH   7   8
BRANCH   2  10
ATOM     10  O   UNL     1       0.225   9.458  20.946  0.00  0.00    +0.000 OA
BRANCH  10  12
ATOM     11  C   UNL     1       0.019   9.542  23.344  0.00  0.00    +0.000 C 
ATOM     12  C   UNL     1       0.875   9.897  22.144  0.00  0.00    +0.000 C 
ENDBRANCH  10  12
ENDBRANCH   2  10
ENDBRANCH   1   4
BRANCH   1  13
ATOM     13  C   UNL     1       4.535   5.408  19.484  0.00  0.00    +0.000 C 
BRANCH  13  14
ATOM     14  C   UNL     1       4.685   4.111  18.691  0.00  0.00    +0.000 C 
BRANCH  14  15
ATOM     15  N   UNL     1       5.177   4.352  17.357  0.00  0.00    +0.000 N 
ATOM     16  C   UNL     1       6.517   4.482  17.068  0.00  0.00    +0.000 C 
ATOM     17  O   UNL     1       7.402   4.464  17.920  0.00  0.00    +0.000 OA
ATOM     18  H   UNL     1       4.556   4.329  16.553  0.00  0.00    +0.000 HD
BRANCH  16  19
ATOM     19  C   UNL     1       6.795   4.637  15.632  0.00  0.00    +0.000 A 
ATOM     20  C   UNL     1       6.257   3.853  14.576  0.00  0.00    +0.000 A 
ATOM     21  C   UNL     1       6.802   4.372  13.428  0.00  0.00    +0.000 A 
ATOM     22  N   UNL     1       7.613   5.392  13.824  0.00  0.00    +0.000 N 
ATOM     23  N   UNL     1       7.633   5.584  15.155  0.00  0.00    +0.000 NA
ATOM     24  H   UNL     1       8.176   6.004  13.240  0.00  0.00    +0.000 HD
ENDBRANCH  16  19
ENDBRANCH  14  15
ENDBRANCH  13  14
ENDBRANCH   1  13
TORSDOF 8
ENDMDL
MODEL 4
REMARK VINA RESULT:      -6.5      4.765      8.302
REMARK  Name = 
REMARK  10 active torsions:
REMARK  status: ('A' for Active; 'I' for Inactive)
REMARK    1  A    between atoms: C_1  and  C_2
REMARK    2  A    between atoms: C_2  and  O_3
REMARK    3  A    between atoms: O_3  and  C_4
REMARK    4  A    between atoms: C_6  and  C_7
REMARK    5  A    between atoms: C_7  and  C_8
REMARK    6  A    between atoms: C_8  and  C_9
REMARK    7  A    between atoms: C_9  and  N_10
REMARK    8  A    between atoms: C_11  and  C_13
REMARK    9  A    between atoms: C_20  and  O_21
REMARK   10  A    between atoms: O_21  and  C_22
REMARK                            x       y       z     vdW  Elec       q    Type
REMARK                         _______ _______ _______ _____ _____    ______ ____
ROOT
ATOM      1  C   UNL     1       2.285   7.620  18.678  0.00  0.00    +0.000 C 
ENDROOT
BRANCH   1   4
ATOM      2  C   UNL     1       3.404   4.262  17.228  0.00  0.00    +0.000 A 
ATOM      3  C   UNL     1       2.724   5.231  17.991  0.00  0.00    +0.000 A 
ATOM      4  C   UNL     1       3.155   6.563  18.045  0.00  0.00    +0.000 A 
ATOM      5  C   UNL     1       4.361   6.899  17.435  0.00  0.00    +0.000 A 
ATOM      6  C   UNL     1       5.090   5.927  16.747  0.00  0.00    +0.000 A 
ATOM      7  C   UNL     1       4.617   4.612  16.614  0.00  0.00    +0.000 A 
BRANCH   7   8
ATOM      8  O   UNL     1       5.457   3.848  15.849  0.00  0.00    +0.000 OA
ATOM      9  C   UNL     1       6.634   4.431  15.316  0.00  0.00    +0.000 C 
ENDBRANCH   7   8
BRANCH   2  10
ATOM     10  O   UNL     1       2.900   2.994  17.064  0.00  0.00    +0.000 OA
BRANCH  10  12
ATOM     11  C   UNL     1       3.725   1.788  18.980  0.00  0.00    +0.000 C 
ATOM     12  C   UNL     1       2.499   2.331  18.269  0.00  0.00    +0.000 C 
ENDBRANCH  10  12
ENDBRANCH   2  10
ENDBRANCH   1   4
BRANCH   1  13
ATOM     13  C   UNL     1       1.951   8.788  17.755  0.00  0.00    +0.000 C 
BRANCH  13  14
ATOM     14  C   UNL     1       1.036   9.779  18.473  0.00  0.00    +0.000 C 
BRANCH  14  15
ATOM     15  N   UNL     1      -0.199   9.982  17.758  0.00  0.00    +0.000 N 
ATOM     16  C   UNL     1      -1.190  10.828  18.205  0.00  0.00    +0.000 C 
ATOM     17  O   UNL     1      -1.139  11.433  19.272  0.00  0.00    +0.000 OA
ATOM     18  H   UNL     1      -0.344   9.589  16.832  0.00  0.00    +0.000 HD
BRANCH  16  19
ATOM     19  C   UNL     1      -2.323  10.947  17.274  0.00  0.00    +0.000 A 
ATOM     20  C   UNL     1      -2.450  10.311  16.009  0.00  0.00    +0.000 A 
ATOM     21  C   UNL     1      -3.666  10.720  15.521  0.00  0.00    +0.000 A 
ATOM     22  N   UNL     1      -4.190  11.553  16.463  0.00  0.00    +0.000 N 
ATOM     23  N   UNL     1      -3.403  11.714  17.542  0.00  0.00    +0.000 NA
ATOM     24  H   UNL     1      -5.081  12.040  16.439  0.00  0.00    +0.000 HD
ENDBRANCH  16  19
ENDBRANCH  14  15
ENDBRANCH  13  14
ENDBRANCH   1  13
TORSDOF 8
ENDMDL
MODEL 5
REMARK VINA RESULT:      -6.5      4.559      7.803
REMARK  Name = 
REMARK  10 active torsions:
REMARK  status: ('A' for Active; 'I' for Inactive)
REMARK    1  A    between atoms: C_1  and  C_2
REMARK    2  A    between atoms: C_2  and  O_3
REMARK    3  A    between atoms: O_3  and  C_4
REMARK    4  A    between atoms: C_6  and  C_7
REMARK    5  A    between atoms: C_7  and  C_8
REMARK    6  A    between atoms: C_8  and  C_9
REMARK    7  A    between atoms: C_9  and  N_10
REMARK    8  A    between atoms: C_11  and  C_13
REMARK    9  A    between atoms: C_20  and  O_21
REMARK   10  A    between atoms: O_21  and  C_22
REMARK                            x       y       z     vdW  Elec       q    Type
REMARK                         _______ _______ _______ _____ _____    ______ ____
ROOT
ATOM      1  C   UNL     1       2.114   7.786  19.480  0.00  0.00    +0.000 C 
ENDROOT
BRANCH   1   4
ATOM      2  C   UNL     1       4.126   4.697  18.462  0.00  0.00    +0.000 A 
ATOM      3  C   UNL     1       3.528   5.973  18.441  0.00  0.00    +0.000 A 
ATOM      4  C   UNL     1       2.565   6.351  19.386  0.00  0.00    +0.000 A 
ATOM      5  C   UNL     1       2.095   5.392  20.280  0.00  0.00    +0.000 A 
ATOM      6  C   UNL     1       2.618   4.098  20.254  0.00  0.00    +0.000 A 
ATOM      7  C   UNL     1       3.648   3.740  19.370  0.00  0.00    +0.000 A 
BRANCH   7   8
ATOM      8  O   UNL     1       4.050   2.444  19.560  0.00  0.00    +0.000 OA
ATOM      9  C   UNL     1       3.635   1.447  18.641  0.00  0.00    +0.000 C 
ENDBRANCH   7   8
BRANCH   2  10
ATOM     10  O   UNL     1       5.169   4.380  17.625  0.00  0.00    +0.000 OA
BRANCH  10  12
ATOM     11  C   UNL     1       6.063   3.919  15.436  0.00  0.00    +0.000 C 
ATOM     12  C   UNL     1       4.807   4.106  16.267  0.00  0.00    +0.000 C 
ENDBRANCH  10  12
ENDBRANCH   2  10
ENDBRANCH   1   4
BRANCH   1  13
ATOM     13  C   UNL     1       2.018   8.499  18.134  0.00  0.00    +0.000 C 
BRANCH  13  14
ATOM     14  C   UNL     1       1.596   9.953  18.340  0.00  0.00    +0.000 C 
BRANCH  14  15
ATOM     15  N   UNL     1       0.317  10.230  17.735  0.00  0.00    +0.000 N 
ATOM     16  C   UNL     1      -0.830  10.427  18.471  0.00  0.00    +0.000 C 
ATOM     17  O   UNL     1      -0.880  10.325  19.694  0.00  0.00    +0.000 OA
ATOM     18  H   UNL     1       0.231  10.400  16.736  0.00  0.00    +0.000 HD
BRANCH  16  19
ATOM     19  C   UNL     1      -1.999  10.780  17.651  0.00  0.00    +0.000 A 
ATOM     20  C   UNL     1      -2.383  10.182  16.421  0.00  0.00    +0.000 A 
ATOM     21  C   UNL     1      -3.528  10.838  16.043  0.00  0.00    +0.000 A 
ATOM     22  N   UNL     1      -3.768  11.766  17.011  0.00  0.00    +0.000 N 
ATOM     23  N   UNL     1      -2.862  11.760  18.005  0.00  0.00    +0.000 NA
ATOM     24  H   UNL     1      -4.534  12.431  17.061  0.00  0.00    +0.000 HD
ENDBRANCH  16  19
ENDBRANCH  14  15
ENDBRANCH  13  14
ENDBRANCH   1  13
TORSDOF 8
ENDMDL
MODEL 6
REMARK VINA RESULT:      -6.5      4.010      7.609
REMARK  Name = 
REMARK  10 active torsions:
REMARK  status: ('A' for Active; 'I' for Inactive)
REMARK    1  A    between atoms: C_1  and  C_2
REMARK    2  A    between atoms: C_2  and  O_3
REMARK    3  A    between atoms: O_3  and  C_4
REMARK    4  A    between atoms: C_6  and  C_7
REMARK    5  A    between atoms: C_7  and  C_8
REMARK    6  A    between atoms: C_8  and  C_9
REMARK    7  A    between atoms: C_9  and  N_10
REMARK    8  A    between atoms: C_11  and  C_13
REMARK    9  A    between atoms: C_20  and  O_21
REMARK   10  A    between atoms: O_21  and  C_22
REMARK                            x       y       z     vdW  Elec       q    Type
REMARK                         _______ _______ _______ _____ _____    ______ ____
ROOT
ATOM      1  C   UNL     1       2.899   4.609  20.378  0.00  0.00    +0.000 C 
ENDROOT
BRANCH   1   4
ATOM      2  C   UNL     1       6.070   4.551  18.241  0.00  0.00    +0.000 A 
ATOM      3  C   UNL     1       5.168   4.808  19.293  0.00  0.00    +0.000 A 
ATOM      4  C   UNL     1       3.798   4.542  19.170  0.00  0.00    +0.000 A 
ATOM      5  C   UNL     1       3.305   4.142  17.930  0.00  0.00    +0.000 A 
ATOM      6  C   UNL     1       4.178   3.967  16.855  0.00  0.00    +0.000 A 
ATOM      7  C   UNL     1       5.562   4.145  16.997  0.00  0.00    +0.000 A 
BRANCH   7   8
ATOM      8  O   UNL     1       6.231   3.860  15.836  0.00  0.00    +0.000 OA
ATOM      9  C   UNL     1       5.740   4.375  14.610  0.00  0.00    +0.000 C 
ENDBRANCH   7   8
BRANCH   2  10
ATOM     10  O   UNL     1       7.428   4.679  18.413  0.00  0.00    +0.000 OA
BRANCH  10  12
ATOM     11  C   UNL     1       7.692   7.033  17.975  0.00  0.00    +0.000 C 
ATOM     12  C   UNL     1       7.862   5.917  18.988  0.00  0.00    +0.000 C 
ENDBRANCH  10  12
ENDBRANCH   2  10
ENDBRANCH   1   4
BRANCH   1  13
ATOM     13  C   UNL     1       1.717   5.561  20.224  0.00  0.00    +0.000 C 
BRANCH  13  14
ATOM     14  C   UNL     1       2.216   6.999  20.087  0.00  0.00    +0.000 C 
BRANCH  14  15
ATOM     15  N   UNL     1       1.452   7.911  20.900  0.00  0.00    +0.000 N 
ATOM     16  C   UNL     1       1.019   9.136  20.444  0.00  0.00    +0.000 C 
ATOM     17  O   UNL     1       1.295   9.585  19.335  0.00  0.00    +0.000 OA
ATOM     18  H   UNL     1       1.106   7.638  21.817  0.00  0.00    +0.000 HD
BRANCH  16  19
ATOM     19  C   UNL     1       0.184   9.862  21.413  0.00  0.00    +0.000 A 
ATOM     20  C   UNL     1      -0.139   9.444  22.733  0.00  0.00    +0.000 A 
ATOM     21  C   UNL     1      -0.932  10.442  23.243  0.00  0.00    +0.000 A 
ATOM     22  N   UNL     1      -1.054  11.369  22.253  0.00  0.00    +0.000 N 
ATOM     23  N   UNL     1      -0.389  11.052  21.127  0.00  0.00    +0.000 NA
ATOM     24  H   UNL     1      -1.569  12.244  22.278  0.00  0.00    +0.000 HD
ENDBRANCH  16  19
ENDBRANCH  14  15
ENDBRANCH  13  14
ENDBRANCH   1  13
TORSDOF 8
ENDMDL
MODEL 7
REMARK VINA RESULT:      -6.5      4.582      7.949
REMARK  Name = 
REMARK  10 active torsions:
REMARK  status: ('A' for Active; 'I' for Inactive)
REMARK    1  A    between atoms: C_1  and  C_2
REMARK    2  A    between atoms: C_2  and  O_3
REMARK    3  A    between atoms: O_3  and  C_4
REMARK    4  A    between atoms: C_6  and  C_7
REMARK    5  A    between atoms: C_7  and  C_8
REMARK    6  A    between atoms: C_8  and  C_9
REMARK    7  A    between atoms: C_9  and  N_10
REMARK    8  A    between atoms: C_11  and  C_13
REMARK    9  A    between atoms: C_20  and  O_21
REMARK   10  A    between atoms: O_21  and  C_22
REMARK                            x       y       z     vdW  Elec       q    Type
REMARK                         _______ _______ _______ _____ _____    ______ ____
ROOT
ATOM      1  C   UNL     1       3.123   7.980  17.842  0.00  0.00    +0.000 C 
ENDROOT
BRANCH   1   4
ATOM      2  C   UNL     1       4.775   4.608  17.116  0.00  0.00    +0.000 A 
ATOM      3  C   UNL     1       4.452   5.979  17.070  0.00  0.00    +0.000 A 
ATOM      4  C   UNL     1       3.318   6.491  17.715  0.00  0.00    +0.000 A 
ATOM      5  C   UNL     1       2.422   5.598  18.299  0.00  0.00    +0.000 A 
ATOM      6  C   UNL     1       2.688   4.228  18.276  0.00  0.00    +0.000 A 
ATOM      7  C   UNL     1       3.867   3.718  17.711  0.00  0.00    +0.000 A 
BRANCH   7   8
ATOM      8  O   UNL     1       3.950   2.358  17.855  0.00  0.00    +0.000 OA
ATOM      9  C   UNL     1       2.846   1.649  18.391  0.00  0.00    +0.000 C 
ENDBRANCH   7   8
BRANCH   2  10
ATOM     10  O   UNL     1       5.958   4.132  16.605  0.00  0.00    +0.000 OA
BRANCH  10  12
ATOM     11  C   UNL     1       6.730   4.661  14.385  0.00  0.00    +0.000 C 
ATOM     12  C   UNL     1       6.724   5.075  15.844  0.00  0.00    +0.000 C 
ENDBRANCH  10  12
ENDBRANCH   2  10
ENDBRANCH   1   4
BRANCH   1  13
ATOM     13  C   UNL     1       1.780   8.384  18.442  0.00  0.00    +0.000 C 
BRANCH  13  14
ATOM     14  C   UNL     1       1.562   9.887  18.278  0.00  0.00    +0.000 C 
BRANCH  14  15
ATOM     15  N   UNL     1       0.284  10.181  17.680  0.00  0.00    +0.000 N 
ATOM     16  C   UNL     1      -0.848  10.433  18.423  0.00  0.00    +0.000 C 
ATOM     17  O   UNL     1      -0.885  10.372  19.649  0.00  0.00    +0.000 OA
ATOM     18  H   UNL     1       0.189  10.321  16.677  0.00  0.00    +0.000 HD
BRANCH  16  19
ATOM     19  C   UNL     1      -2.018  10.793  17.607  0.00  0.00    +0.000 A 
ATOM     20  C   UNL     1      -2.371  10.243  16.345  0.00  0.00    +0.000 A 
ATOM     21  C   UNL     1      -3.530  10.886  15.984  0.00  0.00    +0.000 A 
ATOM     22  N   UNL     1      -3.806  11.759  16.991  0.00  0.00    +0.000 N 
ATOM     23  N   UNL     1      -2.911  11.730  17.995  0.00  0.00    +0.000 NA
ATOM     24  H   UNL     1      -4.591  12.400  17.064  0.00  0.00    +0.000 HD
ENDBRANCH  16  19
ENDBRANCH  14  15
ENDBRANCH  13  14
ENDBRANCH   1  13
TORSDOF 8
ENDMDL
MODEL 8
REMARK VINA RESULT:      -6.4      0.807      2.147
REMARK  Name = 
REMARK  10 active torsions:
REMARK  status: ('A' for Active; 'I' for Inactive)
REMARK    1  A    between atoms: C_1  and  C_2
REMARK    2  A    between atoms: C_2  and  O_3
REMARK    3  A    between atoms: O_3  and  C_4
REMARK    4  A    between atoms: C_6  and  C_7
REMARK    5  A    between atoms: C_7  and  C_8
REMARK    6  A    between atoms: C_8  and  C_9
REMARK    7  A    between atoms: C_9  and  N_10
REMARK    8  A    between atoms: C_11  and  C_13
REMARK    9  A    between atoms: C_20  and  O_21
REMARK   10  A    between atoms: O_21  and  C_22
REMARK                            x       y       z     vdW  Elec       q    Type
REMARK                         _______ _______ _______ _____ _____    ______ ____
ROOT
ATOM      1  C   UNL     1       1.652   2.757  19.333  0.00  0.00    +0.000 C 
ENDROOT
BRANCH   1   4
ATOM      2  C   UNL     1       1.987   6.493  20.076  0.00  0.00    +0.000 A 
ATOM      3  C   UNL     1       1.663   5.127  20.197  0.00  0.00    +0.000 A 
ATOM      4  C   UNL     1       1.784   4.243  19.117  0.00  0.00    +0.000 A 
ATOM      5  C   UNL     1       2.105   4.759  17.864  0.00  0.00    +0.000 A 
ATOM      6  C   UNL     1       2.345   6.126  17.714  0.00  0.00    +0.000 A 
ATOM      7  C   UNL     1       2.313   7.002  18.809  0.00  0.00    +0.000 A 
BRANCH   7   8
ATOM      8  O   UNL     1       2.639   8.281  18.444  0.00  0.00    +0.000 OA
ATOM      9  C   UNL     1       1.662   9.094  17.815  0.00  0.00    +0.000 C 
ENDBRANCH   7   8
BRANCH   2  10
ATOM     10  O   UNL     1       2.003   7.326  21.169  0.00  0.00    +0.000 OA
BRANCH  10  12
ATOM     11  C   UNL     1       1.153   9.383  22.092  0.00  0.00    +0.000 C 
ATOM     12  C   UNL     1       0.809   8.089  21.379  0.00  0.00    +0.000 C 
ENDBRANCH  10  12
ENDBRANCH   2  10
ENDBRANCH   1   4
BRANCH   1  13
ATOM     13  C   UNL     1       2.856   1.948  18.860  0.00  0.00    +0.000 C 
BRANCH  13  14
ATOM     14  C   UNL     1       4.151   2.683  19.206  0.00  0.00    +0.000 C 
BRANCH  14  15
ATOM     15  N   UNL     1       4.818   3.175  18.026  0.00  0.00    +0.000 N 
ATOM     16  C   UNL     1       5.626   4.290  18.036  0.00  0.00    +0.000 C 
ATOM     17  O   UNL     1       5.800   4.995  19.026  0.00  0.00    +0.000 OA
ATOM     18  H   UNL     1       4.806   2.651  17.155  0.00  0.00    +0.000 HD
BRANCH  16  19
ATOM     19  C   UNL     1       6.271   4.558  16.741  0.00  0.00    +0.000 A 
ATOM     20  C   UNL     1       5.918   3.993  15.486  0.00  0.00    +0.000 A 
ATOM     21  C   UNL     1       6.795   4.543  14.584  0.00  0.00    +0.000 A 
ATOM     22  N   UNL     1       7.606   5.369  15.302  0.00  0.00    +0.000 N 
ATOM     23  N   UNL     1       7.317   5.405  16.615  0.00  0.00    +0.000 NA
ATOM     24  H   UNL     1       8.371   5.943  14.960  0.00  0.00    +0.000 HD
ENDBRANCH  16  19
ENDBRANCH  14  15
ENDBRANCH  13  14
ENDBRANCH   1  13
TORSDOF 8
ENDMDL
MODEL 9
REMARK VINA RESULT:      -6.4      4.631      7.902
REMARK  Name = 
REMARK  10 active torsions:
REMARK  status: ('A' for Active; 'I' for Inactive)
REMARK    1  A    between atoms: C_1  and  C_2
REMARK    2  A    between atoms: C_2  and  O_3
REMARK    3  A    between atoms: O_3  and  C_4
REMARK    4  A    between atoms: C_6  and  C_7
REMARK    5  A    between atoms: C_7  and  C_8
REMARK    6  A    between atoms: C_8  and  C_9
REMARK    7  A    between atoms: C_9  and  N_10
REMARK    8  A    between atoms: C_11  and  C_13
REMARK    9  A    between atoms: C_20  and  O_21
REMARK   10  A    between atoms: O_21  and  C_22
REMARK                            x       y       z     vdW  Elec       q    Type
REMARK                         _______ _______ _______ _____ _____    ______ ____
ROOT
ATOM      1  C   UNL     1       3.232   7.893  17.625  0.00  0.00    +0.000 C 
ENDROOT
BRANCH   1   4
ATOM      2  C   UNL     1       3.392   4.611  19.581  0.00  0.00    +0.000 A 
ATOM      3  C   UNL     1       3.202   5.969  19.257  0.00  0.00    +0.000 A 
ATOM      4  C   UNL     1       3.647   6.505  18.041  0.00  0.00    +0.000 A 
ATOM      5  C   UNL     1       4.413   5.703  17.198  0.00  0.00    +0.000 A 
ATOM      6  C   UNL     1       4.681   4.379  17.550  0.00  0.00    +0.000 A 
ATOM      7  C   UNL     1       4.161   3.811  18.723  0.00  0.00    +0.000 A 
BRANCH   7   8
ATOM      8  O   UNL     1       4.497   2.488  18.836  0.00  0.00    +0.000 OA
ATOM      9  C   UNL     1       3.588   1.500  18.378  0.00  0.00    +0.000 C 
ENDBRANCH   7   8
BRANCH   2  10
ATOM     10  O   UNL     1       2.832   4.058  20.708  0.00  0.00    +0.000 OA
BRANCH  10  12
ATOM     11  C   UNL     1       0.730   3.144  19.967  0.00  0.00    +0.000 C 
ATOM     12  C   UNL     1       1.411   4.197  20.821  0.00  0.00    +0.000 C 
ENDBRANCH  10  12
ENDBRANCH   2  10
ENDBRANCH   1   4
BRANCH   1  13
ATOM     13  C   UNL     1       1.829   8.286  18.077  0.00  0.00    +0.000 C 
BRANCH  13  14
ATOM     14  C   UNL     1       1.665   9.805  18.021  0.00  0.00    +0.000 C 
BRANCH  14  15
ATOM     15  N   UNL     1       0.294  10.187  17.790  0.00  0.00    +0.000 N 
ATOM     16  C   UNL     1      -0.613  10.367  18.810  0.00  0.00    +0.000 C 
ATOM     17  O   UNL     1      -0.357  10.161  19.993  0.00  0.00    +0.000 OA
ATOM     18  H   UNL     1      -0.032  10.446  16.862  0.00  0.00    +0.000 HD
BRANCH  16  19
ATOM     19  C   UNL     1      -1.928  10.839  18.349  0.00  0.00    +0.000 A 
ATOM     20  C   UNL     1      -2.739  10.241  17.347  0.00  0.00    +0.000 A 
ATOM     21  C   UNL     1      -3.859  11.031  17.271  0.00  0.00    +0.000 A 
ATOM     22  N   UNL     1      -3.679  12.029  18.180  0.00  0.00    +0.000 N 
ATOM     23  N   UNL     1      -2.518  11.945  18.855  0.00  0.00    +0.000 NA
ATOM     24  H   UNL     1      -4.309  12.795  18.398  0.00  0.00    +0.000 HD
ENDBRANCH  16  19
ENDBRANCH  14  15
ENDBRANCH  13  14
ENDBRANCH   1  13
TORSDOF 8
ENDMDL
