MODEL 1
REMARK VINA RESULT:      -9.0      0.000      0.000
REMARK  Name = 
REMARK  8 active torsions:
REMARK  status: ('A' for Active; 'I' for Inactive)
REMARK    1  A    between atoms: C_2  and  C_3
REMARK    2  A    between atoms: C_4  and  C_5
REMARK    3  A    between atoms: N_11  and  C_12
REMARK    4  A    between atoms: C_12  and  C_13
REMARK    5  A    between atoms: C_12  and  C_23
REMARK    6  A    between atoms: C_13  and  O_14
REMARK    7  A    between atoms: O_14  and  C_15
REMARK    8  A    between atoms: C_15  and  C_17
REMARK                            x       y       z     vdW  Elec       q    Type
REMARK                         _______ _______ _______ _____ _____    ______ ____
ROOT
ATOM      1  C   UNL     1       5.640   6.249  16.801  0.00  0.00    +0.000 C 
ENDROOT
BRANCH   1   2
ATOM      2  C   UNL     1       4.290   6.394  17.534  0.00  0.00    +0.000 C 
ATOM      3  O   UNL     1       3.786   7.516  17.659  0.00  0.00    +0.000 OA
ATOM      4  N   UNL     1       3.644   5.239  17.977  0.00  0.00    +0.000 N 
ATOM      5  C   UNL     1       2.249   5.309  18.415  0.00  0.00    +0.000 C 
ATOM      6  C   UNL     1       2.098   4.866  19.870  0.00  0.00    +0.000 C 
ATOM      7  C   UNL     1       2.753   3.505  20.117  0.00  0.00    +0.000 C 
ATOM      8  C   UNL     1       4.196   3.497  19.618  0.00  0.00    +0.000 C 
ATOM      9  C   UNL     1       4.265   3.922  18.153  0.00  0.00    +0.000 C 
ENDBRANCH   1   2
BRANCH   1  12
ATOM     10  O   UNL     1       7.925   6.549  18.378  0.00  0.00    +0.000 OA
ATOM     11  C   UNL     1       7.522   7.519  17.748  0.00  0.00    +0.000 C 
ATOM     12  N   UNL     1       6.419   7.484  16.937  0.00  0.00    +0.000 N 
ATOM     13  H   UNL     1       6.110   8.287  16.399  0.00  0.00    +0.000 HD
BRANCH  11  14
ATOM     14  C   UNL     1       8.179   8.845  17.814  0.00  0.00    +0.000 C 
ATOM     15  C   UNL     1       8.824   9.201  18.937  0.00  0.00    +0.000 C 
BRANCH  15  16
ATOM     16  C   UNL     1       9.439  10.519  19.166  0.00  0.00    +0.000 A 
ATOM     17  C   UNL     1       9.751  11.315  18.055  0.00  0.00    +0.000 A 
ATOM     18  C   UNL     1      10.368  12.557  18.218  0.00  0.00    +0.000 A 
ATOM     19  C   UNL     1      10.669  13.024  19.495  0.00  0.00    +0.000 A 
ATOM     20  C   UNL     1      10.335  12.257  20.609  0.00  0.00    +0.000 A 
ATOM     21  C   UNL     1       9.716  11.015  20.445  0.00  0.00    +0.000 A 
ENDBRANCH  15  16
ENDBRANCH  11  14
ENDBRANCH   1  12
BRANCH   1  22
ATOM     22  C   UNL     1       5.398   5.926  15.321  0.00  0.00    +0.000 C 
BRANCH  22  23
ATOM     23  O   UNL     1       6.003   4.679  14.936  0.00  0.00    +0.000 OA
BRANCH  23  24
ATOM     24  C   UNL     1       6.826   4.727  13.858  0.00  0.00    +0.000 C 
ATOM     25  O   UNL     1       7.773   5.480  13.701  0.00  0.00    +0.000 OA
BRANCH  24  26
ATOM     26  C   UNL     1       6.395   3.742  12.834  0.00  0.00    +0.000 A 
ATOM     27  C   UNL     1       7.309   2.933  12.148  0.00  0.00    +0.000 A 
ATOM     28  C   UNL     1       6.858   2.053  11.162  0.00  0.00    +0.000 A 
ATOM     29  C   UNL     1       5.497   1.976  10.863  0.00  0.00    +0.000 A 
ATOM     30  C   UNL     1       4.582   2.773  11.550  0.00  0.00    +0.000 A 
ATOM     31  C   UNL     1       5.029   3.656  12.533  0.00  0.00    +0.000 A 
ENDBRANCH  24  26
ENDBRANCH  23  24
ENDBRANCH  22  23
ENDBRANCH   1  22
TORSDOF 8
ENDMDL
MODEL 2
REMARK VINA RESULT:      -8.9      0.885      1.459
REMARK  Name = 
REMARK  8 active torsions:
REMARK  status: ('A' for Active; 'I' for Inactive)
REMARK    1  A    between atoms: C_2  and  C_3
REMARK    2  A    between atoms: C_4  and  C_5
REMARK    3  A    between atoms: N_11  and  C_12
REMARK    4  A    between atoms: C_12  and  C_13
REMARK    5  A    between atoms: C_12  and  C_23
REMARK    6  A    between atoms: C_13  and  O_14
REMARK    7  A    between atoms: O_14  and  C_15
REMARK    8  A    between atoms: C_15  and  C_17
REMARK                            x       y       z     vdW  Elec       q    Type
REMARK                         _______ _______ _______ _____ _____    ______ ____
ROOT
ATOM      1  C   UNL     1       6.127   5.360  17.164  0.00  0.00    +0.000 C 
ENDROOT
BRANCH   1   2
ATOM      2  C   UNL     1       4.591   5.469  17.266  0.00  0.00    +0.000 C 
ATOM      3  O   UNL     1       4.032   6.509  16.899  0.00  0.00    +0.000 OA
ATOM      4  N   UNL     1       3.871   4.359  17.711  0.00  0.00    +0.000 N 
ATOM      5  C   UNL     1       2.417   4.325  17.553  0.00  0.00    +0.000 C 
ATOM      6  C   UNL     1       1.712   4.193  18.902  0.00  0.00    +0.000 C 
ATOM      7  C   UNL     1       2.269   3.025  19.719  0.00  0.00    +0.000 C 
ATOM      8  C   UNL     1       3.790   3.112  19.825  0.00  0.00    +0.000 C 
ATOM      9  C   UNL     1       4.424   3.213  18.440  0.00  0.00    +0.000 C 
ENDBRANCH   1   2
BRANCH   1  12
ATOM     10  O   UNL     1       7.993   6.539  18.874  0.00  0.00    +0.000 OA
ATOM     11  C   UNL     1       7.617   7.175  17.898  0.00  0.00    +0.000 C 
ATOM     12  N   UNL     1       6.713   6.693  16.988  0.00  0.00    +0.000 N 
ATOM     13  H   UNL     1       6.429   7.219  16.168  0.00  0.00    +0.000 HD
BRANCH  11  14
ATOM     14  C   UNL     1       8.088   8.548  17.608  0.00  0.00    +0.000 C 
ATOM     15  C   UNL     1       8.692   9.253  18.580  0.00  0.00    +0.000 C 
BRANCH  15  16
ATOM     16  C   UNL     1       9.125  10.654  18.451  0.00  0.00    +0.000 A 
ATOM     17  C   UNL     1      10.342  11.035  19.034  0.00  0.00    +0.000 A 
ATOM     18  C   UNL     1      10.779  12.361  18.971  0.00  0.00    +0.000 A 
ATOM     19  C   UNL     1      10.011  13.317  18.311  0.00  0.00    +0.000 A 
ATOM     20  C   UNL     1       8.816  12.943  17.698  0.00  0.00    +0.000 A 
ATOM     21  C   UNL     1       8.381  11.617  17.761  0.00  0.00    +0.000 A 
ENDBRANCH  15  16
ENDBRANCH  11  14
ENDBRANCH   1  12
BRANCH   1  22
ATOM     22  C   UNL     1       6.508   4.446  15.992  0.00  0.00    +0.000 C 
BRANCH  22  23
ATOM     23  O   UNL     1       6.041   4.963  14.733  0.00  0.00    +0.000 OA
BRANCH  23  24
ATOM     24  C   UNL     1       6.892   4.829  13.685  0.00  0.00    +0.000 C 
ATOM     25  O   UNL     1       7.935   5.439  13.514  0.00  0.00    +0.000 OA
BRANCH  24  26
ATOM     26  C   UNL     1       6.362   3.843  12.711  0.00  0.00    +0.000 A 
ATOM     27  C   UNL     1       4.998   3.753  12.410  0.00  0.00    +0.000 A 
ATOM     28  C   UNL     1       4.543   2.778  11.518  0.00  0.00    +0.000 A 
ATOM     29  C   UNL     1       5.447   1.896  10.924  0.00  0.00    +0.000 A 
ATOM     30  C   UNL     1       6.808   1.989  11.214  0.00  0.00    +0.000 A 
ATOM     31  C   UNL     1       7.266   2.958  12.107  0.00  0.00    +0.000 A 
ENDBRANCH  24  26
ENDBRANCH  23  24
ENDBRANCH  22  23
ENDBRANCH   1  22
TORSDOF 8
ENDMDL
MODEL 3
REMARK VINA RESULT:      -8.6      4.024      7.253
REMARK  Name = 
REMARK  8 active torsions:
REMARK  status: ('A' for Active; 'I' for Inactive)
REMARK    1  A    between atoms: C_2  and  C_3
REMARK    2  A    between atoms: C_4  and  C_5
REMARK    3  A    between atoms: N_11  and  C_12
REMARK    4  A    between atoms: C_12  and  C_13
REMARK    5  A    between atoms: C_12  and  C_23
REMARK    6  A    between atoms: C_13  and  O_14
REMARK    7  A    between atoms: O_14  and  C_15
REMARK    8  A    between atoms: C_15  and  C_17
REMARK                            x       y       z     vdW  Elec       q    Type
REMARK                         _______ _______ _______ _____ _____    ______ ____
ROOT
ATOM      1  C   UNL     1       4.954   5.287  17.300  0.00  0.00    +0.000 C 
ENDROOT
BRANCH   1   2
ATOM      2  C   UNL     1       6.069   5.736  16.331  0.00  0.00    +0.000 C 
ATOM      3  O   UNL     1       6.569   6.859  16.462  0.00  0.00    +0.000 OA
ATOM      4  N   UNL     1       6.525   4.830  15.373  0.00  0.00    +0.000 N 
ATOM      5  C   UNL     1       7.756   5.111  14.635  0.00  0.00    +0.000 C 
ATOM      6  C   UNL     1       7.500   5.188  13.130  0.00  0.00    +0.000 C 
ATOM      7  C   UNL     1       6.745   3.959  12.621  0.00  0.00    +0.000 C 
ATOM      8  C   UNL     1       5.485   3.712  13.448  0.00  0.00    +0.000 C 
ATOM      9  C   UNL     1       5.823   3.618  14.935  0.00  0.00    +0.000 C 
ENDBRANCH   1   2
BRANCH   1  12
ATOM     10  O   UNL     1       2.217   5.495  17.813  0.00  0.00    +0.000 OA
ATOM     11  C   UNL     1       2.932   6.455  18.075  0.00  0.00    +0.000 C 
ATOM     12  N   UNL     1       4.287   6.461  17.874  0.00  0.00    +0.000 N 
ATOM     13  H   UNL     1       4.873   7.252  18.120  0.00  0.00    +0.000 HD
BRANCH  11  14
ATOM     14  C   UNL     1       2.399   7.723  18.622  0.00  0.00    +0.000 C 
ATOM     15  C   UNL     1       1.955   8.667  17.775  0.00  0.00    +0.000 C 
BRANCH  15  16
ATOM     16  C   UNL     1       1.486  10.002  18.182  0.00  0.00    +0.000 A 
ATOM     17  C   UNL     1       0.162  10.143  18.620  0.00  0.00    +0.000 A 
ATOM     18  C   UNL     1      -0.340  11.395  18.982  0.00  0.00    +0.000 A 
ATOM     19  C   UNL     1       0.481  12.519  18.924  0.00  0.00    +0.000 A 
ATOM     20  C   UNL     1       1.808  12.387  18.522  0.00  0.00    +0.000 A 
ATOM     21  C   UNL     1       2.310  11.134  18.161  0.00  0.00    +0.000 A 
ENDBRANCH  15  16
ENDBRANCH  11  14
ENDBRANCH   1  12
BRANCH   1  22
ATOM     22  C   UNL     1       5.549   4.411  18.410  0.00  0.00    +0.000 C 
BRANCH  22  23
ATOM     23  O   UNL     1       4.993   3.084  18.405  0.00  0.00    +0.000 OA
BRANCH  23  24
ATOM     24  C   UNL     1       4.530   2.631  19.597  0.00  0.00    +0.000 C 
ATOM     25  O   UNL     1       5.191   2.121  20.486  0.00  0.00    +0.000 OA
BRANCH  24  26
ATOM     26  C   UNL     1       3.057   2.799  19.677  0.00  0.00    +0.000 A 
ATOM     27  C   UNL     1       2.186   2.176  18.775  0.00  0.00    +0.000 A 
ATOM     28  C   UNL     1       0.811   2.400  18.866  0.00  0.00    +0.000 A 
ATOM     29  C   UNL     1       0.303   3.242  19.856  0.00  0.00    +0.000 A 
ATOM     30  C   UNL     1       1.166   3.857  20.763  0.00  0.00    +0.000 A 
ATOM     31  C   UNL     1       2.540   3.639  20.673  0.00  0.00    +0.000 A 
ENDBRANCH  24  26
ENDBRANCH  23  24
ENDBRANCH  22  23
ENDBRANCH   1  22
TORSDOF 8
ENDMDL
MODEL 4
REMARK VINA RESULT:      -8.6      1.321      1.840
REMARK  Name = 
REMARK  8 active torsions:
REMARK  status: ('A' for Active; 'I' for Inactive)
REMARK    1  A    between atoms: C_2  and  C_3
REMARK    2  A    between atoms: C_4  and  C_5
REMARK    3  A    between atoms: N_11  and  C_12
REMARK    4  A    between atoms: C_12  and  C_13
REMARK    5  A    between atoms: C_12  and  C_23
REMARK    6  A    between atoms: C_13  and  O_14
REMARK    7  A    between atoms: O_14  and  C_15
REMARK    8  A    between atoms: C_15  and  C_17
REMARK                            x       y       z     vdW  Elec       q    Type
REMARK                         _______ _______ _______ _____ _____    ______ ____
ROOT
ATOM      1  C   UNL     1       5.348   5.111  18.336  0.00  0.00    +0.000 C 
ENDROOT
BRANCH   1   2
ATOM      2  C   UNL     1       3.825   5.275  18.525  0.00  0.00    +0.000 C 
ATOM      3  O   UNL     1       3.292   6.354  18.239  0.00  0.00    +0.000 OA
ATOM      4  N   UNL     1       3.082   4.175  18.954  0.00  0.00    +0.000 N 
ATOM      5  C   UNL     1       1.622   4.206  18.873  0.00  0.00    +0.000 C 
ATOM      6  C   UNL     1       0.983   4.035  20.250  0.00  0.00    +0.000 C 
ATOM      7  C   UNL     1       1.531   2.807  20.979  0.00  0.00    +0.000 C 
ATOM      8  C   UNL     1       3.058   2.827  21.008  0.00  0.00    +0.000 C 
ATOM      9  C   UNL     1       3.624   2.972  19.597  0.00  0.00    +0.000 C 
ENDBRANCH   1   2
BRANCH   1  12
ATOM     10  O   UNL     1       8.084   5.562  18.009  0.00  0.00    +0.000 OA
ATOM     11  C   UNL     1       7.328   6.525  17.978  0.00  0.00    +0.000 C 
ATOM     12  N   UNL     1       5.970   6.421  18.117  0.00  0.00    +0.000 N 
ATOM     13  H   UNL     1       5.351   7.223  18.063  0.00  0.00    +0.000 HD
BRANCH  11  14
ATOM     14  C   UNL     1       7.810   7.914  17.804  0.00  0.00    +0.000 C 
ATOM     15  C   UNL     1       8.495   8.500  18.801  0.00  0.00    +0.000 C 
BRANCH  15  16
ATOM     16  C   UNL     1       8.951   9.899  18.793  0.00  0.00    +0.000 A 
ATOM     17  C   UNL     1       8.496  10.747  17.774  0.00  0.00    +0.000 A 
ATOM     18  C   UNL     1       8.928  12.074  17.702  0.00  0.00    +0.000 A 
ATOM     19  C   UNL     1       9.809  12.572  18.658  0.00  0.00    +0.000 A 
ATOM     20  C   UNL     1      10.243  11.749  19.696  0.00  0.00    +0.000 A 
ATOM     21  C   UNL     1       9.809  10.423  19.767  0.00  0.00    +0.000 A 
ENDBRANCH  15  16
ENDBRANCH  11  14
ENDBRANCH   1  12
BRANCH   1  22
ATOM     22  C   UNL     1       5.628   4.178  17.150  0.00  0.00    +0.000 C 
BRANCH  22  23
ATOM     23  O   UNL     1       4.785   4.474  16.022  0.00  0.00    +0.000 OA
BRANCH  23  24
ATOM     24  C   UNL     1       5.267   5.389  15.145  0.00  0.00    +0.000 C 
ATOM     25  O   UNL     1       5.240   6.602  15.273  0.00  0.00    +0.000 OA
BRANCH  24  26
ATOM     26  C   UNL     1       5.818   4.714  13.943  0.00  0.00    +0.000 A 
ATOM     27  C   UNL     1       5.100   3.734  13.245  0.00  0.00    +0.000 A 
ATOM     28  C   UNL     1       5.679   3.097  12.146  0.00  0.00    +0.000 A 
ATOM     29  C   UNL     1       6.970   3.437  11.739  0.00  0.00    +0.000 A 
ATOM     30  C   UNL     1       7.684   4.418  12.425  0.00  0.00    +0.000 A 
ATOM     31  C   UNL     1       7.112   5.055  13.526  0.00  0.00    +0.000 A 
ENDBRANCH  24  26
ENDBRANCH  23  24
ENDBRANCH  22  23
ENDBRANCH   1  22
TORSDOF 8
ENDMDL
MODEL 5
REMARK VINA RESULT:      -8.4      0.958      1.340
REMARK  Name = 
REMARK  8 active torsions:
REMARK  status: ('A' for Active; 'I' for Inactive)
REMARK    1  A    between atoms: C_2  and  C_3
REMARK    2  A    between atoms: C_4  and  C_5
REMARK    3  A    between atoms: N_11  and  C_12
REMARK    4  A    between atoms: C_12  and  C_13
REMARK    5  A    between atoms: C_12  and  C_23
REMARK    6  A    between atoms: C_13  and  O_14
REMARK    7  A    between atoms: O_14  and  C_15
REMARK    8  A    between atoms: C_15  and  C_17
REMARK                            x       y       z     vdW  Elec       q    Type
REMARK                         _______ _______ _______ _____ _____    ______ ____
ROOT
ATOM      1  C   UNL     1       6.677   5.608  17.012  0.00  0.00    +0.000 C 
ENDROOT
BRANCH   1   2
ATOM      2  C   UNL     1       5.161   5.521  16.738  0.00  0.00    +0.000 C 
ATOM      3  O   UNL     1       4.677   6.169  15.802  0.00  0.00    +0.000 OA
ATOM      4  N   UNL     1       4.389   4.659  17.517  0.00  0.00    +0.000 N 
ATOM      5  C   UNL     1       3.022   4.338  17.110  0.00  0.00    +0.000 C 
ATOM      6  C   UNL     1       2.009   4.753  18.176  0.00  0.00    +0.000 C 
ATOM      7  C   UNL     1       2.384   4.206  19.554  0.00  0.00    +0.000 C 
ATOM      8  C   UNL     1       3.827   4.558  19.906  0.00  0.00    +0.000 C 
ATOM      9  C   UNL     1       4.782   4.089  18.811  0.00  0.00    +0.000 C 
ENDBRANCH   1   2
BRANCH   1  12
ATOM     10  O   UNL     1       8.199   6.810  19.022  0.00  0.00    +0.000 OA
ATOM     11  C   UNL     1       7.844   7.496  18.072  0.00  0.00    +0.000 C 
ATOM     12  N   UNL     1       7.105   7.011  17.026  0.00  0.00    +0.000 N 
ATOM     13  H   UNL     1       6.839   7.583  16.231  0.00  0.00    +0.000 HD
BRANCH  11  14
ATOM     14  C   UNL     1       8.165   8.938  17.963  0.00  0.00    +0.000 C 
ATOM     15  C   UNL     1       9.063   9.475  18.807  0.00  0.00    +0.000 C 
BRANCH  15  16
ATOM     16  C   UNL     1       9.404  10.906  18.865  0.00  0.00    +0.000 A 
ATOM     17  C   UNL     1      10.251  11.352  19.889  0.00  0.00    +0.000 A 
ATOM     18  C   UNL     1      10.576  12.705  20.008  0.00  0.00    +0.000 A 
ATOM     19  C   UNL     1      10.068  13.626  19.095  0.00  0.00    +0.000 A 
ATOM     20  C   UNL     1       9.252  13.191  18.053  0.00  0.00    +0.000 A 
ATOM     21  C   UNL     1       8.929  11.837  17.934  0.00  0.00    +0.000 A 
ENDBRANCH  15  16
ENDBRANCH  11  14
ENDBRANCH   1  12
BRANCH   1  22
ATOM     22  C   UNL     1       7.446   4.822  15.942  0.00  0.00    +0.000 C 
BRANCH  22  23
ATOM     23  O   UNL     1       6.577   4.330  14.907  0.00  0.00    +0.000 OA
BRANCH  23  24
ATOM     24  C   UNL     1       6.985   4.557  13.633  0.00  0.00    +0.000 C 
ATOM     25  O   UNL     1       7.792   5.396  13.267  0.00  0.00    +0.000 OA
BRANCH  24  26
ATOM     26  C   UNL     1       6.275   3.653  12.694  0.00  0.00    +0.000 A 
ATOM     27  C   UNL     1       6.928   2.611  12.026  0.00  0.00    +0.000 A 
ATOM     28  C   UNL     1       6.225   1.814  11.119  0.00  0.00    +0.000 A 
ATOM     29  C   UNL     1       4.871   2.054  10.880  0.00  0.00    +0.000 A 
ATOM     30  C   UNL     1       4.214   3.085  11.551  0.00  0.00    +0.000 A 
ATOM     31  C   UNL     1       4.913   3.886  12.454  0.00  0.00    +0.000 A 
ENDBRANCH  24  26
ENDBRANCH  23  24
ENDBRANCH  22  23
ENDBRANCH   1  22
TORSDOF 8
ENDMDL
MODEL 6
REMARK VINA RESULT:      -8.4      4.023      7.268
REMARK  Name = 
REMARK  8 active torsions:
REMARK  status: ('A' for Active; 'I' for Inactive)
REMARK    1  A    between atoms: C_2  and  C_3
REMARK    2  A    between atoms: C_4  and  C_5
REMARK    3  A    between atoms: N_11  and  C_12
REMARK    4  A    between atoms: C_12  and  C_13
REMARK    5  A    between atoms: C_12  and  C_23
REMARK    6  A    between atoms: C_13  and  O_14
REMARK    7  A    between atoms: O_14  and  C_15
REMARK    8  A    between atoms: C_15  and  C_17
REMARK                            x       y       z     vdW  Elec       q    Type
REMARK                         _______ _______ _______ _____ _____    ______ ____
ROOT
ATOM      1  C   UNL     1       5.253   5.199  17.431  0.00  0.00    +0.000 C 
ENDROOT
BRANCH   1   2
ATOM      2  C   UNL     1       6.259   5.653  16.352  0.00  0.00    +0.000 C 
ATOM      3  O   UNL     1       6.775   6.774  16.438  0.00  0.00    +0.000 OA
ATOM      4  N   UNL     1       6.607   4.754  15.343  0.00  0.00    +0.000 N 
ATOM      5  C   UNL     1       7.753   5.038  14.480  0.00  0.00    +0.000 C 
ATOM      6  C   UNL     1       7.338   5.128  13.012  0.00  0.00    +0.000 C 
ATOM      7  C   UNL     1       6.529   3.905  12.577  0.00  0.00    +0.000 C 
ATOM      8  C   UNL     1       5.364   3.654  13.532  0.00  0.00    +0.000 C 
ATOM      9  C   UNL     1       5.859   3.548  14.973  0.00  0.00    +0.000 C 
ENDBRANCH   1   2
BRANCH   1  12
ATOM     10  O   UNL     1       2.478   5.488  17.533  0.00  0.00    +0.000 OA
ATOM     11  C   UNL     1       3.173   6.399  17.965  0.00  0.00    +0.000 C 
ATOM     12  N   UNL     1       4.542   6.362  17.974  0.00  0.00    +0.000 N 
ATOM     13  H   UNL     1       5.108   7.111  18.359  0.00  0.00    +0.000 HD
BRANCH  11  14
ATOM     14  C   UNL     1       2.602   7.653  18.508  0.00  0.00    +0.000 C 
ATOM     15  C   UNL     1       1.874   8.445  17.703  0.00  0.00    +0.000 C 
BRANCH  15  16
ATOM     16  C   UNL     1       1.328   9.756  18.090  0.00  0.00    +0.000 A 
ATOM     17  C   UNL     1       2.214  10.829  18.254  0.00  0.00    +0.000 A 
ATOM     18  C   UNL     1       1.749  12.084  18.656  0.00  0.00    +0.000 A 
ATOM     19  C   UNL     1       0.390  12.283  18.885  0.00  0.00    +0.000 A 
ATOM     20  C   UNL     1      -0.505  11.232  18.693  0.00  0.00    +0.000 A 
ATOM     21  C   UNL     1      -0.040   9.978  18.290  0.00  0.00    +0.000 A 
ENDBRANCH  15  16
ENDBRANCH  11  14
ENDBRANCH   1  12
BRANCH   1  22
ATOM     22  C   UNL     1       5.990   4.450  18.549  0.00  0.00    +0.000 C 
BRANCH  22  23
ATOM     23  O   UNL     1       5.162   4.268  19.711  0.00  0.00    +0.000 OA
BRANCH  23  24
ATOM     24  C   UNL     1       4.625   3.032  19.869  0.00  0.00    +0.000 C 
ATOM     25  O   UNL     1       5.237   1.989  20.027  0.00  0.00    +0.000 OA
BRANCH  24  26
ATOM     26  C   UNL     1       3.144   3.097  19.782  0.00  0.00    +0.000 A 
ATOM     27  C   UNL     1       2.386   3.929  20.614  0.00  0.00    +0.000 A 
ATOM     28  C   UNL     1       0.992   3.923  20.523  0.00  0.00    +0.000 A 
ATOM     29  C   UNL     1       0.355   3.090  19.601  0.00  0.00    +0.000 A 
ATOM     30  C   UNL     1       1.107   2.267  18.764  0.00  0.00    +0.000 A 
ATOM     31  C   UNL     1       2.499   2.267  18.854  0.00  0.00    +0.000 A 
ENDBRANCH  24  26
ENDBRANCH  23  24
ENDBRANCH  22  23
ENDBRANCH   1  22
TORSDOF 8
ENDMDL
MODEL 7
REMARK VINA RESULT:      -8.4      1.084      1.453
REMARK  Name = 
REMARK  8 active torsions:
REMARK  status: ('A' for Active; 'I' for Inactive)
REMARK    1  A    between atoms: C_2  and  C_3
REMARK    2  A    between atoms: C_4  and  C_5
REMARK    3  A    between atoms: N_11  and  C_12
REMARK    4  A    between atoms: C_12  and  C_13
REMARK    5  A    between atoms: C_12  and  C_23
REMARK    6  A    between atoms: C_13  and  O_14
REMARK    7  A    between atoms: O_14  and  C_15
REMARK    8  A    between atoms: C_15  and  C_17
REMARK                            x       y       z     vdW  Elec       q    Type
REMARK                         _______ _______ _______ _____ _____    ______ ____
ROOT
ATOM      1  C   UNL     1       5.634   5.187  17.251  0.00  0.00    +0.000 C 
ENDROOT
BRANCH   1   2
ATOM      2  C   UNL     1       4.231   5.362  17.871  0.00  0.00    +0.000 C 
ATOM      3  O   UNL     1       3.919   6.453  18.364  0.00  0.00    +0.000 OA
ATOM      4  N   UNL     1       3.331   4.299  17.798  0.00  0.00    +0.000 N 
ATOM      5  C   UNL     1       1.920   4.518  18.114  0.00  0.00    +0.000 C 
ATOM      6  C   UNL     1       1.466   3.642  19.281  0.00  0.00    +0.000 C 
ATOM      7  C   UNL     1       1.825   2.172  19.057  0.00  0.00    +0.000 C 
ATOM      8  C   UNL     1       3.304   2.019  18.711  0.00  0.00    +0.000 C 
ATOM      9  C   UNL     1       3.676   2.900  17.521  0.00  0.00    +0.000 C 
ENDBRANCH   1   2
BRANCH   1  12
ATOM     10  O   UNL     1       7.851   5.100  18.946  0.00  0.00    +0.000 OA
ATOM     11  C   UNL     1       7.542   6.176  18.448  0.00  0.00    +0.000 C 
ATOM     12  N   UNL     1       6.481   6.334  17.596  0.00  0.00    +0.000 N 
ATOM     13  H   UNL     1       6.251   7.224  17.169  0.00  0.00    +0.000 HD
BRANCH  11  14
ATOM     14  C   UNL     1       8.277   7.429  18.732  0.00  0.00    +0.000 C 
ATOM     15  C   UNL     1       7.870   8.573  18.155  0.00  0.00    +0.000 C 
BRANCH  15  16
ATOM     16  C   UNL     1       8.563   9.865  18.281  0.00  0.00    +0.000 A 
ATOM     17  C   UNL     1       9.551  10.004  19.266  0.00  0.00    +0.000 A 
ATOM     18  C   UNL     1      10.211  11.221  19.449  0.00  0.00    +0.000 A 
ATOM     19  C   UNL     1       9.901  12.311  18.639  0.00  0.00    +0.000 A 
ATOM     20  C   UNL     1       8.944  12.177  17.635  0.00  0.00    +0.000 A 
ATOM     21  C   UNL     1       8.286  10.958  17.452  0.00  0.00    +0.000 A 
ENDBRANCH  15  16
ENDBRANCH  11  14
ENDBRANCH   1  12
BRANCH   1  22
ATOM     22  C   UNL     1       5.516   5.045  15.728  0.00  0.00    +0.000 C 
BRANCH  22  23
ATOM     23  O   UNL     1       6.615   4.302  15.170  0.00  0.00    +0.000 OA
BRANCH  23  24
ATOM     24  C   UNL     1       7.017   4.678  13.931  0.00  0.00    +0.000 C 
ATOM     25  O   UNL     1       7.754   5.613  13.660  0.00  0.00    +0.000 OA
BRANCH  24  26
ATOM     26  C   UNL     1       6.398   3.809  12.899  0.00  0.00    +0.000 A 
ATOM     27  C   UNL     1       7.138   2.861  12.183  0.00  0.00    +0.000 A 
ATOM     28  C   UNL     1       6.518   2.097  11.191  0.00  0.00    +0.000 A 
ATOM     29  C   UNL     1       5.161   2.275  10.916  0.00  0.00    +0.000 A 
ATOM     30  C   UNL     1       4.418   3.212  11.634  0.00  0.00    +0.000 A 
ATOM     31  C   UNL     1       5.034   3.980  12.623  0.00  0.00    +0.000 A 
ENDBRANCH  24  26
ENDBRANCH  23  24
ENDBRANCH  22  23
ENDBRANCH   1  22
TORSDOF 8
ENDMDL
MODEL 8
REMARK VINA RESULT:      -8.3      4.046      7.142
REMARK  Name = 
REMARK  8 active torsions:
REMARK  status: ('A' for Active; 'I' for Inactive)
REMARK    1  A    between atoms: C_2  and  C_3
REMARK    2  A    between atoms: C_4  and  C_5
REMARK    3  A    between atoms: N_11  and  C_12
REMARK    4  A    between atoms: C_12  and  C_13
REMARK    5  A    between atoms: C_12  and  C_23
REMARK    6  A    between atoms: C_13  and  O_14
REMARK    7  A    between atoms: O_14  and  C_15
REMARK    8  A    between atoms: C_15  and  C_17
REMARK                            x       y       z     vdW  Elec       q    Type
REMARK                         _______ _______ _______ _____ _____    ______ ____
ROOT
ATOM      1  C   UNL     1       4.650   5.292  17.941  0.00  0.00    +0.000 C 
ENDROOT
BRANCH   1   2
ATOM      2  C   UNL     1       5.843   5.704  17.052  0.00  0.00    +0.000 C 
ATOM      3  O   UNL     1       6.408   6.784  17.260  0.00  0.00    +0.000 OA
ATOM      4  N   UNL     1       6.290   4.811  16.079  0.00  0.00    +0.000 N 
ATOM      5  C   UNL     1       7.575   5.038  15.418  0.00  0.00    +0.000 C 
ATOM      6  C   UNL     1       7.407   5.196  13.908  0.00  0.00    +0.000 C 
ATOM      7  C   UNL     1       6.602   4.043  13.305  0.00  0.00    +0.000 C 
ATOM      8  C   UNL     1       5.286   3.848  14.054  0.00  0.00    +0.000 C 
ATOM      9  C   UNL     1       5.535   3.669  15.550  0.00  0.00    +0.000 C 
ENDBRANCH   1   2
BRANCH   1  12
ATOM     10  O   UNL     1       1.866   5.350  17.736  0.00  0.00    +0.000 OA
ATOM     11  C   UNL     1       2.445   6.374  18.076  0.00  0.00    +0.000 C 
ATOM     12  N   UNL     1       3.805   6.458  18.218  0.00  0.00    +0.000 N 
ATOM     13  H   UNL     1       4.271   7.305  18.525  0.00  0.00    +0.000 HD
BRANCH  11  14
ATOM     14  C   UNL     1       1.732   7.642  18.351  0.00  0.00    +0.000 C 
ATOM     15  C   UNL     1       2.292   8.804  17.974  0.00  0.00    +0.000 C 
BRANCH  15  16
ATOM     16  C   UNL     1       1.734  10.135  18.266  0.00  0.00    +0.000 A 
ATOM     17  C   UNL     1       2.489  11.267  17.931  0.00  0.00    +0.000 A 
ATOM     18  C   UNL     1       2.019  12.550  18.220  0.00  0.00    +0.000 A 
ATOM     19  C   UNL     1       0.781  12.716  18.837  0.00  0.00    +0.000 A 
ATOM     20  C   UNL     1       0.006  11.601  19.145  0.00  0.00    +0.000 A 
ATOM     21  C   UNL     1       0.477  10.318  18.854  0.00  0.00    +0.000 A 
ENDBRANCH  15  16
ENDBRANCH  11  14
ENDBRANCH   1  12
BRANCH   1  22
ATOM     22  C   UNL     1       5.163   4.678  19.250  0.00  0.00    +0.000 C 
BRANCH  22  23
ATOM     23  O   UNL     1       5.277   3.246  19.164  0.00  0.00    +0.000 OA
BRANCH  23  24
ATOM     24  C   UNL     1       4.633   2.541  20.128  0.00  0.00    +0.000 C 
ATOM     25  O   UNL     1       5.152   1.867  21.003  0.00  0.00    +0.000 OA
BRANCH  24  26
ATOM     26  C   UNL     1       3.163   2.658  19.960  0.00  0.00    +0.000 A 
ATOM     27  C   UNL     1       2.477   2.002  18.931  0.00  0.00    +0.000 A 
ATOM     28  C   UNL     1       1.099   2.178  18.788  0.00  0.00    +0.000 A 
ATOM     29  C   UNL     1       0.404   3.005  19.673  0.00  0.00    +0.000 A 
ATOM     30  C   UNL     1       1.082   3.652  20.705  0.00  0.00    +0.000 A 
ATOM     31  C   UNL     1       2.459   3.482  20.849  0.00  0.00    +0.000 A 
ENDBRANCH  24  26
ENDBRANCH  23  24
ENDBRANCH  22  23
ENDBRANCH   1  22
TORSDOF 8
ENDMDL
MODEL 9
REMARK VINA RESULT:      -8.3      3.142      6.093
REMARK  Name = 
REMARK  8 active torsions:
REMARK  status: ('A' for Active; 'I' for Inactive)
REMARK    1  A    between atoms: C_2  and  C_3
REMARK    2  A    between atoms: C_4  and  C_5
REMARK    3  A    between atoms: N_11  and  C_12
REMARK    4  A    between atoms: C_12  and  C_13
REMARK    5  A    between atoms: C_12  and  C_23
REMARK    6  A    between atoms: C_13  and  O_14
REMARK    7  A    between atoms: O_14  and  C_15
REMARK    8  A    between atoms: C_15  and  C_17
REMARK                            x       y       z     vdW  Elec       q    Type
REMARK                         _______ _______ _______ _____ _____    ______ ____
ROOT
ATOM      1  C   UNL     1       5.111   6.264  17.735  0.00  0.00    +0.000 C 
ENDROOT
BRANCH   1   2
ATOM      2  C   UNL     1       4.658   5.292  18.844  0.00  0.00    +0.000 C 
ATOM      3  O   UNL     1       5.287   5.252  19.908  0.00  0.00    +0.000 OA
ATOM      4  N   UNL     1       3.507   4.531  18.636  0.00  0.00    +0.000 N 
ATOM      5  C   UNL     1       2.893   3.820  19.757  0.00  0.00    +0.000 C 
ATOM      6  C   UNL     1       2.845   2.314  19.505  0.00  0.00    +0.000 C 
ATOM      7  C   UNL     1       2.213   1.988  18.151  0.00  0.00    +0.000 C 
ATOM      8  C   UNL     1       2.886   2.778  17.031  0.00  0.00    +0.000 C 
ATOM      9  C   UNL     1       2.871   4.273  17.339  0.00  0.00    +0.000 C 
ENDBRANCH   1   2
BRANCH   1  12
ATOM     10  O   UNL     1       7.536   6.699  16.420  0.00  0.00    +0.000 OA
ATOM     11  C   UNL     1       7.353   7.247  17.500  0.00  0.00    +0.000 C 
ATOM     12  N   UNL     1       6.201   7.113  18.227  0.00  0.00    +0.000 N 
ATOM     13  H   UNL     1       6.050   7.594  19.108  0.00  0.00    +0.000 HD
BRANCH  11  14
ATOM     14  C   UNL     1       8.375   8.104  18.145  0.00  0.00    +0.000 C 
ATOM     15  C   UNL     1       8.265   9.439  18.052  0.00  0.00    +0.000 C 
BRANCH  15  16
ATOM     16  C   UNL     1       9.255  10.399  18.567  0.00  0.00    +0.000 A 
ATOM     17  C   UNL     1       9.387  10.545  19.955  0.00  0.00    +0.000 A 
ATOM     18  C   UNL     1      10.287  11.469  20.493  0.00  0.00    +0.000 A 
ATOM     19  C   UNL     1      11.076  12.246  19.648  0.00  0.00    +0.000 A 
ATOM     20  C   UNL     1      10.979  12.085  18.268  0.00  0.00    +0.000 A 
ATOM     21  C   UNL     1      10.079  11.161  17.731  0.00  0.00    +0.000 A 
ENDBRANCH  15  16
ENDBRANCH  11  14
ENDBRANCH   1  12
BRANCH   1  22
ATOM     22  C   UNL     1       3.925   7.123  17.278  0.00  0.00    +0.000 C 
BRANCH  22  23
ATOM     23  O   UNL     1       3.085   7.511  18.380  0.00  0.00    +0.000 OA
BRANCH  23  24
ATOM     24  C   UNL     1       2.270   8.573  18.160  0.00  0.00    +0.000 C 
ATOM     25  O   UNL     1       2.223   9.255  17.149  0.00  0.00    +0.000 OA
BRANCH  24  26
ATOM     26  C   UNL     1       1.437   8.844  19.358  0.00  0.00    +0.000 A 
ATOM     27  C   UNL     1       0.474   9.859  19.382  0.00  0.00    +0.000 A 
ATOM     28  C   UNL     1      -0.255  10.103  20.548  0.00  0.00    +0.000 A 
ATOM     29  C   UNL     1      -0.025   9.333  21.690  0.00  0.00    +0.000 A 
ATOM     30  C   UNL     1       0.927   8.314  21.668  0.00  0.00    +0.000 A 
ATOM     31  C   UNL     1       1.659   8.070  20.506  0.00  0.00    +0.000 A 
ENDBRANCH  24  26
ENDBRANCH  23  24
ENDBRANCH  22  23
ENDBRANCH   1  22
TORSDOF 8
ENDMDL
