MODEL 1
REMARK VINA RESULT:      -7.6      0.000      0.000
REMARK  Name = 
REMARK  4 active torsions:
REMARK  status: ('A' for Active; 'I' for Inactive)
REMARK    1  A    between atoms: C_1  and  C_2
REMARK    2  A    between atoms: C_10  and  O_11
REMARK    3  A    between atoms: O_11  and  C_12
REMARK    4  A    between atoms: C_12  and  C_13
REMARK                            x       y       z     vdW  Elec       q    Type
REMARK                         _______ _______ _______ _____ _____    ______ ____
ROOT
ATOM      1  C   UNL     1       4.028   4.462  17.214  0.00  0.00    +0.000 C 
ATOM      2  C   UNL     1       3.336   4.613  18.543  0.00  0.00    +0.000 A 
ATOM      3  C   UNL     1       3.238   3.633  19.464  0.00  0.00    +0.000 A 
ATOM      4 CL   UNL     1       3.886   2.043  19.199  0.00  0.00    +0.000 Cl
ATOM      5  C   UNL     1       2.578   3.820  20.785  0.00  0.00    +0.000 A 
ATOM      6  O   UNL     1       2.472   2.922  21.616  0.00  0.00    +0.000 OA
ATOM      7  O   UNL     1       2.084   5.083  21.053  0.00  0.00    +0.000 OA
ATOM      8  C   UNL     1       2.146   6.112  20.103  0.00  0.00    +0.000 A 
ATOM      9  C   UNL     1       1.581   7.324  20.497  0.00  0.00    +0.000 A 
ATOM     10  C   UNL     1       1.618   8.411  19.630  0.00  0.00    +0.000 A 
ATOM     11  C   UNL     1       2.157   8.245  18.356  0.00  0.00    +0.000 A 
ATOM     12  C   UNL     1       2.720   7.016  17.973  0.00  0.00    +0.000 A 
ATOM     13  C   UNL     1       2.737   5.927  18.856  0.00  0.00    +0.000 A 
ENDROOT
BRANCH  10  14
ATOM     14  O   UNL     1       1.161   9.664  19.934  0.00  0.00    +0.000 OA
BRANCH  14  15
ATOM     15  C   UNL     1       0.955  10.516  18.801  0.00  0.00    +0.000 C 
BRANCH  15  16
ATOM     16  C   UNL     1      -0.517  10.728  18.550  0.00  0.00    +0.000 A 
ATOM     17  C   UNL     1      -1.245  11.718  19.223  0.00  0.00    +0.000 A 
ATOM     18  C   UNL     1      -2.609  11.883  18.976  0.00  0.00    +0.000 A 
ATOM     19  C   UNL     1      -3.248  11.068  18.044  0.00  0.00    +0.000 A 
ATOM     20 BR   UNL     1      -5.103  11.264  17.737  0.00  0.00    +0.000 Br
ATOM     21  C   UNL     1      -2.532  10.101  17.340  0.00  0.00    +0.000 A 
ATOM     22  C   UNL     1      -1.170   9.938  17.589  0.00  0.00    +0.000 A 
ENDBRANCH  15  16
ENDBRANCH  14  15
ENDBRANCH  10  14
TORSDOF 3
ENDMDL
MODEL 2
REMARK VINA RESULT:      -7.6      1.477      2.153
REMARK  Name = 
REMARK  4 active torsions:
REMARK  status: ('A' for Active; 'I' for Inactive)
REMARK    1  A    between atoms: C_1  and  C_2
REMARK    2  A    between atoms: C_10  and  O_11
REMARK    3  A    between atoms: O_11  and  C_12
REMARK    4  A    between atoms: C_12  and  C_13
REMARK                            x       y       z     vdW  Elec       q    Type
REMARK                         _______ _______ _______ _____ _____    ______ ____
ROOT
ATOM      1  C   UNL     1       2.186   3.870  21.312  0.00  0.00    +0.000 C 
ATOM      2  C   UNL     1       2.666   4.414  19.992  0.00  0.00    +0.000 A 
ATOM      3  C   UNL     1       3.317   3.687  19.062  0.00  0.00    +0.000 A 
ATOM      4 CL   UNL     1       3.711   2.012  19.303  0.00  0.00    +0.000 Cl
ATOM      5  C   UNL     1       3.750   4.242  17.751  0.00  0.00    +0.000 A 
ATOM      6  O   UNL     1       4.360   3.585  16.912  0.00  0.00    +0.000 OA
ATOM      7  O   UNL     1       3.421   5.561  17.501  0.00  0.00    +0.000 OA
ATOM      8  C   UNL     1       2.770   6.349  18.462  0.00  0.00    +0.000 A 
ATOM      9  C   UNL     1       2.528   7.670  18.087  0.00  0.00    +0.000 A 
ATOM     10  C   UNL     1       1.864   8.520  18.965  0.00  0.00    +0.000 A 
ATOM     11  C   UNL     1       1.517   8.053  20.231  0.00  0.00    +0.000 A 
ATOM     12  C   UNL     1       1.770   6.719  20.594  0.00  0.00    +0.000 A 
ATOM     13  C   UNL     1       2.392   5.836  19.700  0.00  0.00    +0.000 A 
ENDROOT
BRANCH  10  14
ATOM     14  O   UNL     1       1.510   9.810  18.679  0.00  0.00    +0.000 OA
BRANCH  14  15
ATOM     15  C   UNL     1       0.642  10.419  19.643  0.00  0.00    +0.000 C 
BRANCH  15  16
ATOM     16  C   UNL     1      -0.699  10.738  19.032  0.00  0.00    +0.000 A 
ATOM     17  C   UNL     1      -1.565  11.681  19.605  0.00  0.00    +0.000 A 
ATOM     18  C   UNL     1      -2.804  11.947  19.022  0.00  0.00    +0.000 A 
ATOM     19  C   UNL     1      -3.178  11.284  17.855  0.00  0.00    +0.000 A 
ATOM     20 BR   UNL     1      -4.873  11.615  17.086  0.00  0.00    +0.000 Br
ATOM     21  C   UNL     1      -2.316  10.369  17.253  0.00  0.00    +0.000 A 
ATOM     22  C   UNL     1      -1.078  10.105  17.838  0.00  0.00    +0.000 A 
ENDBRANCH  15  16
ENDBRANCH  14  15
ENDBRANCH  10  14
TORSDOF 3
ENDMDL
MODEL 3
REMARK VINA RESULT:      -7.5      1.541      2.425
REMARK  Name = 
REMARK  4 active torsions:
REMARK  status: ('A' for Active; 'I' for Inactive)
REMARK    1  A    between atoms: C_1  and  C_2
REMARK    2  A    between atoms: C_10  and  O_11
REMARK    3  A    between atoms: O_11  and  C_12
REMARK    4  A    between atoms: C_12  and  C_13
REMARK                            x       y       z     vdW  Elec       q    Type
REMARK                         _______ _______ _______ _____ _____    ______ ____
ROOT
ATOM      1  C   UNL     1       2.117   3.466  20.987  0.00  0.00    +0.000 C 
ATOM      2  C   UNL     1       2.693   4.099  19.747  0.00  0.00    +0.000 A 
ATOM      3  C   UNL     1       3.403   3.432  18.815  0.00  0.00    +0.000 A 
ATOM      4 CL   UNL     1       3.766   1.739  18.960  0.00  0.00    +0.000 Cl
ATOM      5  C   UNL     1       3.932   4.074  17.581  0.00  0.00    +0.000 A 
ATOM      6  O   UNL     1       4.594   3.471  16.740  0.00  0.00    +0.000 OA
ATOM      7  O   UNL     1       3.631   5.412  17.405  0.00  0.00    +0.000 OA
ATOM      8  C   UNL     1       2.920   6.137  18.373  0.00  0.00    +0.000 A 
ATOM      9  C   UNL     1       2.715   7.484  18.078  0.00  0.00    +0.000 A 
ATOM     10  C   UNL     1       1.998   8.278  18.968  0.00  0.00    +0.000 A 
ATOM     11  C   UNL     1       1.559   7.725  20.169  0.00  0.00    +0.000 A 
ATOM     12  C   UNL     1       1.776   6.366  20.451  0.00  0.00    +0.000 A 
ATOM     13  C   UNL     1       2.451   5.541  19.541  0.00  0.00    +0.000 A 
ENDROOT
BRANCH  10  14
ATOM     14  O   UNL     1       1.674   9.589  18.752  0.00  0.00    +0.000 OA
BRANCH  14  15
ATOM     15  C   UNL     1       0.719  10.128  19.674  0.00  0.00    +0.000 C 
BRANCH  15  16
ATOM     16  C   UNL     1      -0.576  10.458  18.973  0.00  0.00    +0.000 A 
ATOM     17  C   UNL     1      -0.963   9.805  17.795  0.00  0.00    +0.000 A 
ATOM     18  C   UNL     1      -2.162  10.140  17.164  0.00  0.00    +0.000 A 
ATOM     19  C   UNL     1      -2.987  11.117  17.716  0.00  0.00    +0.000 A 
ATOM     20 BR   UNL     1      -4.592  11.598  16.842  0.00  0.00    +0.000 Br
ATOM     21  C   UNL     1      -2.634  11.752  18.905  0.00  0.00    +0.000 A 
ATOM     22  C   UNL     1      -1.435  11.416  19.534  0.00  0.00    +0.000 A 
ENDBRANCH  15  16
ENDBRANCH  14  15
ENDBRANCH  10  14
TORSDOF 3
ENDMDL
MODEL 4
REMARK VINA RESULT:      -7.4      4.395      7.734
REMARK  Name = 
REMARK  4 active torsions:
REMARK  status: ('A' for Active; 'I' for Inactive)
REMARK    1  A    between atoms: C_1  and  C_2
REMARK    2  A    between atoms: C_10  and  O_11
REMARK    3  A    between atoms: O_11  and  C_12
REMARK    4  A    between atoms: C_12  and  C_13
REMARK                            x       y       z     vdW  Elec       q    Type
REMARK                         _______ _______ _______ _____ _____    ______ ____
ROOT
ATOM      1  C   UNL     1       0.319  11.386  18.767  0.00  0.00    +0.000 C 
ATOM      2  C   UNL     1       0.505  10.489  19.963  0.00  0.00    +0.000 A 
ATOM      3  C   UNL     1       0.082  10.788  21.208  0.00  0.00    +0.000 A 
ATOM      4 CL   UNL     1      -0.714  12.286  21.584  0.00  0.00    +0.000 Cl
ATOM      5  C   UNL     1       0.248   9.868  22.366  0.00  0.00    +0.000 A 
ATOM      6  O   UNL     1      -0.121  10.147  23.504  0.00  0.00    +0.000 OA
ATOM      7  O   UNL     1       0.840   8.647  22.103  0.00  0.00    +0.000 OA
ATOM      8  C   UNL     1       1.316   8.322  20.824  0.00  0.00    +0.000 A 
ATOM      9  C   UNL     1       1.919   7.070  20.711  0.00  0.00    +0.000 A 
ATOM     10  C   UNL     1       2.398   6.651  19.474  0.00  0.00    +0.000 A 
ATOM     11  C   UNL     1       2.329   7.522  18.388  0.00  0.00    +0.000 A 
ATOM     12  C   UNL     1       1.721   8.781  18.520  0.00  0.00    +0.000 A 
ATOM     13  C   UNL     1       1.187   9.197  19.748  0.00  0.00    +0.000 A 
ENDROOT
BRANCH  10  14
ATOM     14  O   UNL     1       2.941   5.420  19.228  0.00  0.00    +0.000 OA
BRANCH  14  15
ATOM     15  C   UNL     1       4.367   5.359  19.354  0.00  0.00    +0.000 C 
BRANCH  15  16
ATOM     16  C   UNL     1       5.019   5.205  18.002  0.00  0.00    +0.000 A 
ATOM     17  C   UNL     1       4.450   4.412  16.996  0.00  0.00    +0.000 A 
ATOM     18  C   UNL     1       5.083   4.280  15.759  0.00  0.00    +0.000 A 
ATOM     19  C   UNL     1       6.278   4.953  15.517  0.00  0.00    +0.000 A 
ATOM     20 BR   UNL     1       7.156   4.745  13.855  0.00  0.00    +0.000 Br
ATOM     21  C   UNL     1       6.840   5.773  16.493  0.00  0.00    +0.000 A 
ATOM     22  C   UNL     1       6.206   5.902  17.729  0.00  0.00    +0.000 A 
ENDBRANCH  15  16
ENDBRANCH  14  15
ENDBRANCH  10  14
TORSDOF 3
ENDMDL
MODEL 5
REMARK VINA RESULT:      -7.4      2.978      3.948
REMARK  Name = 
REMARK  4 active torsions:
REMARK  status: ('A' for Active; 'I' for Inactive)
REMARK    1  A    between atoms: C_1  and  C_2
REMARK    2  A    between atoms: C_10  and  O_11
REMARK    3  A    between atoms: O_11  and  C_12
REMARK    4  A    between atoms: C_12  and  C_13
REMARK                            x       y       z     vdW  Elec       q    Type
REMARK                         _______ _______ _______ _____ _____    ______ ____
ROOT
ATOM      1  C   UNL     1       4.027   2.687  17.672  0.00  0.00    +0.000 C 
ATOM      2  C   UNL     1       4.114   4.187  17.566  0.00  0.00    +0.000 A 
ATOM      3  C   UNL     1       4.859   4.842  16.653  0.00  0.00    +0.000 A 
ATOM      4 CL   UNL     1       5.848   4.009  15.493  0.00  0.00    +0.000 Cl
ATOM      5  C   UNL     1       4.899   6.326  16.549  0.00  0.00    +0.000 A 
ATOM      6  O   UNL     1       5.592   6.923  15.729  0.00  0.00    +0.000 OA
ATOM      7  O   UNL     1       4.094   7.028  17.427  0.00  0.00    +0.000 OA
ATOM      8  C   UNL     1       3.332   6.373  18.406  0.00  0.00    +0.000 A 
ATOM      9  C   UNL     1       2.593   7.207  19.243  0.00  0.00    +0.000 A 
ATOM     10  C   UNL     1       1.786   6.647  20.228  0.00  0.00    +0.000 A 
ATOM     11  C   UNL     1       1.789   5.264  20.403  0.00  0.00    +0.000 A 
ATOM     12  C   UNL     1       2.542   4.438  19.552  0.00  0.00    +0.000 A 
ATOM     13  C   UNL     1       3.319   4.986  18.522  0.00  0.00    +0.000 A 
ENDROOT
BRANCH  10  14
ATOM     14  O   UNL     1       0.964   7.359  21.058  0.00  0.00    +0.000 OA
BRANCH  14  15
ATOM     15  C   UNL     1       1.524   8.583  21.548  0.00  0.00    +0.000 C 
BRANCH  15  16
ATOM     16  C   UNL     1       0.452   9.627  21.735  0.00  0.00    +0.000 A 
ATOM     17  C   UNL     1       0.012  10.431  20.674  0.00  0.00    +0.000 A 
ATOM     18  C   UNL     1      -0.975  11.396  20.881  0.00  0.00    +0.000 A 
ATOM     19  C   UNL     1      -1.538  11.551  22.145  0.00  0.00    +0.000 A 
ATOM     20 BR   UNL     1      -2.848  12.882  22.436  0.00  0.00    +0.000 Br
ATOM     21  C   UNL     1      -1.138  10.737  23.204  0.00  0.00    +0.000 A 
ATOM     22  C   UNL     1      -0.152   9.774  22.995  0.00  0.00    +0.000 A 
ENDBRANCH  15  16
ENDBRANCH  14  15
ENDBRANCH  10  14
TORSDOF 3
ENDMDL
MODEL 6
REMARK VINA RESULT:      -7.4      5.997      7.587
REMARK  Name = 
REMARK  4 active torsions:
REMARK  status: ('A' for Active; 'I' for Inactive)
REMARK    1  A    between atoms: C_1  and  C_2
REMARK    2  A    between atoms: C_10  and  O_11
REMARK    3  A    between atoms: O_11  and  C_12
REMARK    4  A    between atoms: C_12  and  C_13
REMARK                            x       y       z     vdW  Elec       q    Type
REMARK                         _______ _______ _______ _____ _____    ______ ____
ROOT
ATOM      1  C   UNL     1       1.969   4.550  17.514  0.00  0.00    +0.000 C 
ATOM      2  C   UNL     1       3.203   4.203  18.305  0.00  0.00    +0.000 A 
ATOM      3  C   UNL     1       3.320   3.115  19.093  0.00  0.00    +0.000 A 
ATOM      4 CL   UNL     1       2.018   1.986  19.314  0.00  0.00    +0.000 Cl
ATOM      5  C   UNL     1       4.564   2.778  19.836  0.00  0.00    +0.000 A 
ATOM      6  O   UNL     1       4.664   1.797  20.568  0.00  0.00    +0.000 OA
ATOM      7  O   UNL     1       5.639   3.629  19.656  0.00  0.00    +0.000 OA
ATOM      8  C   UNL     1       5.536   4.783  18.866  0.00  0.00    +0.000 A 
ATOM      9  C   UNL     1       6.689   5.565  18.799  0.00  0.00    +0.000 A 
ATOM     10  C   UNL     1       6.690   6.716  18.018  0.00  0.00    +0.000 A 
ATOM     11  C   UNL     1       5.515   7.102  17.374  0.00  0.00    +0.000 A 
ATOM     12  C   UNL     1       4.362   6.303  17.454  0.00  0.00    +0.000 A 
ATOM     13  C   UNL     1       4.362   5.113  18.195  0.00  0.00    +0.000 A 
ENDROOT
BRANCH  10  14
ATOM     14  O   UNL     1       7.779   7.520  17.820  0.00  0.00    +0.000 OA
BRANCH  14  15
ATOM     15  C   UNL     1       7.472   8.838  17.350  0.00  0.00    +0.000 C 
BRANCH  15  16
ATOM     16  C   UNL     1       8.328   9.868  18.044  0.00  0.00    +0.000 A 
ATOM     17  C   UNL     1       8.410  11.189  17.583  0.00  0.00    +0.000 A 
ATOM     18  C   UNL     1       9.219  12.117  18.241  0.00  0.00    +0.000 A 
ATOM     19  C   UNL     1       9.937  11.733  19.371  0.00  0.00    +0.000 A 
ATOM     20 BR   UNL     1      11.063  12.978  20.240  0.00  0.00    +0.000 Br
ATOM     21  C   UNL     1       9.840  10.432  19.864  0.00  0.00    +0.000 A 
ATOM     22  C   UNL     1       9.031   9.507  19.205  0.00  0.00    +0.000 A 
ENDBRANCH  15  16
ENDBRANCH  14  15
ENDBRANCH  10  14
TORSDOF 3
ENDMDL
MODEL 7
REMARK VINA RESULT:      -7.2      4.712      8.067
REMARK  Name = 
REMARK  4 active torsions:
REMARK  status: ('A' for Active; 'I' for Inactive)
REMARK    1  A    between atoms: C_1  and  C_2
REMARK    2  A    between atoms: C_10  and  O_11
REMARK    3  A    between atoms: O_11  and  C_12
REMARK    4  A    between atoms: C_12  and  C_13
REMARK                            x       y       z     vdW  Elec       q    Type
REMARK                         _______ _______ _______ _____ _____    ______ ____
ROOT
ATOM      1  C   UNL     1      -0.328   9.628  23.441  0.00  0.00    +0.000 C 
ATOM      2  C   UNL     1      -0.337  10.253  22.071  0.00  0.00    +0.000 A 
ATOM      3  C   UNL     1      -0.986  11.394  21.762  0.00  0.00    +0.000 A 
ATOM      4 CL   UNL     1      -1.930  12.270  22.928  0.00  0.00    +0.000 Cl
ATOM      5  C   UNL     1      -0.950  12.009  20.407  0.00  0.00    +0.000 A 
ATOM      6  O   UNL     1      -1.555  13.039  20.121  0.00  0.00    +0.000 OA
ATOM      7  O   UNL     1      -0.176  11.366  19.459  0.00  0.00    +0.000 OA
ATOM      8  C   UNL     1       0.485  10.162  19.745  0.00  0.00    +0.000 A 
ATOM      9  C   UNL     1       1.202   9.609  18.686  0.00  0.00    +0.000 A 
ATOM     10  C   UNL     1       1.911   8.429  18.882  0.00  0.00    +0.000 A 
ATOM     11  C   UNL     1       1.832   7.786  20.117  0.00  0.00    +0.000 A 
ATOM     12  C   UNL     1       1.103   8.357  21.173  0.00  0.00    +0.000 A 
ATOM     13  C   UNL     1       0.425   9.573  21.005  0.00  0.00    +0.000 A 
ENDROOT
BRANCH  10  14
ATOM     14  O   UNL     1       2.706   7.833  17.942  0.00  0.00    +0.000 OA
BRANCH  14  15
ATOM     15  C   UNL     1       3.410   6.674  18.401  0.00  0.00    +0.000 C 
BRANCH  15  16
ATOM     16  C   UNL     1       4.138   6.002  17.263  0.00  0.00    +0.000 A 
ATOM     17  C   UNL     1       4.839   6.739  16.298  0.00  0.00    +0.000 A 
ATOM     18  C   UNL     1       5.493   6.089  15.252  0.00  0.00    +0.000 A 
ATOM     19  C   UNL     1       5.464   4.699  15.172  0.00  0.00    +0.000 A 
ATOM     20 BR   UNL     1       6.318   3.820  13.733  0.00  0.00    +0.000 Br
ATOM     21  C   UNL     1       4.801   3.948  16.142  0.00  0.00    +0.000 A 
ATOM     22  C   UNL     1       4.147   4.600  17.187  0.00  0.00    +0.000 A 
ENDBRANCH  15  16
ENDBRANCH  14  15
ENDBRANCH  10  14
TORSDOF 3
ENDMDL
MODEL 8
REMARK VINA RESULT:      -7.2      0.631      1.201
REMARK  Name = 
REMARK  4 active torsions:
REMARK  status: ('A' for Active; 'I' for Inactive)
REMARK    1  A    between atoms: C_1  and  C_2
REMARK    2  A    between atoms: C_10  and  O_11
REMARK    3  A    between atoms: O_11  and  C_12
REMARK    4  A    between atoms: C_12  and  C_13
REMARK                            x       y       z     vdW  Elec       q    Type
REMARK                         _______ _______ _______ _____ _____    ______ ____
ROOT
ATOM      1  C   UNL     1       3.581   3.978  17.291  0.00  0.00    +0.000 C 
ATOM      2  C   UNL     1       3.012   4.434  18.609  0.00  0.00    +0.000 A 
ATOM      3  C   UNL     1       2.869   3.641  19.690  0.00  0.00    +0.000 A 
ATOM      4 CL   UNL     1       3.306   1.960  19.671  0.00  0.00    +0.000 Cl
ATOM      5  C   UNL     1       2.335   4.127  20.991  0.00  0.00    +0.000 A 
ATOM      6  O   UNL     1       2.188   3.400  21.970  0.00  0.00    +0.000 OA
ATOM      7  O   UNL     1       2.012   5.469  21.063  0.00  0.00    +0.000 OA
ATOM      8  C   UNL     1       2.123   6.311  19.946  0.00  0.00    +0.000 A 
ATOM      9  C   UNL     1       1.733   7.633  20.153  0.00  0.00    +0.000 A 
ATOM     10  C   UNL     1       1.832   8.547  19.110  0.00  0.00    +0.000 A 
ATOM     11  C   UNL     1       2.253   8.105  17.857  0.00  0.00    +0.000 A 
ATOM     12  C   UNL     1       2.639   6.768  17.664  0.00  0.00    +0.000 A 
ATOM     13  C   UNL     1       2.595   5.847  18.720  0.00  0.00    +0.000 A 
ENDROOT
BRANCH  10  14
ATOM     14  O   UNL     1       1.549   9.881  19.215  0.00  0.00    +0.000 OA
BRANCH  14  15
ATOM     15  C   UNL     1       0.452  10.192  20.082  0.00  0.00    +0.000 C 
BRANCH  15  16
ATOM     16  C   UNL     1      -0.784  10.527  19.285  0.00  0.00    +0.000 A 
ATOM     17  C   UNL     1      -1.122   9.825  18.119  0.00  0.00    +0.000 A 
ATOM     18  C   UNL     1      -2.267  10.165  17.397  0.00  0.00    +0.000 A 
ATOM     19  C   UNL     1      -3.088  11.198  17.845  0.00  0.00    +0.000 A 
ATOM     20 BR   UNL     1      -4.617  11.685  16.847  0.00  0.00    +0.000 Br
ATOM     21  C   UNL     1      -2.786  11.884  19.020  0.00  0.00    +0.000 A 
ATOM     22  C   UNL     1      -1.641  11.542  19.740  0.00  0.00    +0.000 A 
ENDBRANCH  15  16
ENDBRANCH  14  15
ENDBRANCH  10  14
TORSDOF 3
ENDMDL
MODEL 9
REMARK VINA RESULT:      -7.2      4.434      7.803
REMARK  Name = 
REMARK  4 active torsions:
REMARK  status: ('A' for Active; 'I' for Inactive)
REMARK    1  A    between atoms: C_1  and  C_2
REMARK    2  A    between atoms: C_10  and  O_11
REMARK    3  A    between atoms: O_11  and  C_12
REMARK    4  A    between atoms: C_12  and  C_13
REMARK                            x       y       z     vdW  Elec       q    Type
REMARK                         _______ _______ _______ _____ _____    ______ ____
ROOT
ATOM      1  C   UNL     1      -1.369  11.888  18.190  0.00  0.00    +0.000 C 
ATOM      2  C   UNL     1      -0.942  11.319  19.518  0.00  0.00    +0.000 A 
ATOM      3  C   UNL     1      -1.433  11.720  20.708  0.00  0.00    +0.000 A 
ATOM      4 CL   UNL     1      -2.614  12.987  20.846  0.00  0.00    +0.000 Cl
ATOM      5  C   UNL     1      -1.018  11.116  22.004  0.00  0.00    +0.000 A 
ATOM      6  O   UNL     1      -1.451  11.494  23.089  0.00  0.00    +0.000 OA
ATOM      7  O   UNL     1      -0.110  10.077  21.936  0.00  0.00    +0.000 OA
ATOM      8  C   UNL     1       0.439   9.659  20.715  0.00  0.00    +0.000 A 
ATOM      9  C   UNL     1       1.366   8.622  20.800  0.00  0.00    +0.000 A 
ATOM     10  C   UNL     1       1.944   8.124  19.637  0.00  0.00    +0.000 A 
ATOM     11  C   UNL     1       1.637   8.721  18.416  0.00  0.00    +0.000 A 
ATOM     12  C   UNL     1       0.702   9.768  18.348  0.00  0.00    +0.000 A 
ATOM     13  C   UNL     1       0.072  10.246  19.506  0.00  0.00    +0.000 A 
ENDROOT
BRANCH  10  14
ATOM     14  O   UNL     1       2.808   7.065  19.590  0.00  0.00    +0.000 OA
BRANCH  14  15
ATOM     15  C   UNL     1       2.371   5.972  18.773  0.00  0.00    +0.000 C 
BRANCH  15  16
ATOM     16  C   UNL     1       3.418   5.615  17.748  0.00  0.00    +0.000 A 
ATOM     17  C   UNL     1       4.236   6.590  17.160  0.00  0.00    +0.000 A 
ATOM     18  C   UNL     1       5.190   6.230  16.207  0.00  0.00    +0.000 A 
ATOM     19  C   UNL     1       5.341   4.893  15.848  0.00  0.00    +0.000 A 
ATOM     20 BR   UNL     1       6.605   4.409  14.529  0.00  0.00    +0.000 Br
ATOM     21  C   UNL     1       4.560   3.906  16.448  0.00  0.00    +0.000 A 
ATOM     22  C   UNL     1       3.608   4.268  17.400  0.00  0.00    +0.000 A 
ENDBRANCH  15  16
ENDBRANCH  14  15
ENDBRANCH  10  14
TORSDOF 3
ENDMDL
