MODEL 1
REMARK VINA RESULT:      -5.9      0.000      0.000
REMARK  Name = 
REMARK  2 active torsions:
REMARK  status: ('A' for Active; 'I' for Inactive)
REMARK    1  A    between atoms: C_1  and  C_2
REMARK    2  A    between atoms: C_4  and  C_5
REMARK                            x       y       z     vdW  Elec       q    Type
REMARK                         _______ _______ _______ _____ _____    ______ ____
ROOT
ATOM      1  C   UNL     1       6.302   4.620  17.376  0.00  0.00    +0.000 C 
ATOM      2  C   UNL     1       5.297   5.307  17.945  0.00  0.00    +0.000 C 
ATOM      3  C   UNL     1       4.981   5.266  19.411  0.00  0.00    +0.000 C 
ATOM      4  C   UNL     1       3.514   5.662  19.423  0.00  0.00    +0.000 C 
ATOM      5  N   UNL     1       3.381   6.654  18.348  0.00  0.00    +0.000 NA
ATOM      6  C   UNL     1       4.265   6.168  17.273  0.00  0.00    +0.000 C 
ATOM      7  H   UNL     1       3.757   7.545  18.674  0.00  0.00    +0.000 HD
ENDROOT
BRANCH   1  11
ATOM      8  C   UNL     1       6.563   3.785  12.404  0.00  0.00    +0.000 C 
ATOM      9  C   UNL     1       6.710   4.300  13.781  0.00  0.00    +0.000 A 
ATOM     10  C   UNL     1       6.082   3.862  14.967  0.00  0.00    +0.000 A 
ATOM     11  C   UNL     1       6.585   4.661  15.981  0.00  0.00    +0.000 A 
ATOM     12  O   UNL     1       7.460   5.539  15.383  0.00  0.00    +0.000 OA
ATOM     13  N   UNL     1       7.539   5.314  14.027  0.00  0.00    +0.000 NA
ENDBRANCH   1  11
TORSDOF 1
ENDMDL
MODEL 2
REMARK VINA RESULT:      -5.7      2.804      3.811
REMARK  Name = 
REMARK  2 active torsions:
REMARK  status: ('A' for Active; 'I' for Inactive)
REMARK    1  A    between atoms: C_1  and  C_2
REMARK    2  A    between atoms: C_4  and  C_5
REMARK                            x       y       z     vdW  Elec       q    Type
REMARK                         _______ _______ _______ _____ _____    ______ ____
ROOT
ATOM      1  C   UNL     1       3.804   5.251  19.645  0.00  0.00    +0.000 C 
ATOM      2  C   UNL     1       2.890   4.300  19.903  0.00  0.00    +0.000 C 
ATOM      3  C   UNL     1       1.677   4.516  20.758  0.00  0.00    +0.000 C 
ATOM      4  C   UNL     1       1.358   3.100  21.208  0.00  0.00    +0.000 C 
ATOM      5  N   UNL     1       1.693   2.252  20.056  0.00  0.00    +0.000 NA
ATOM      6  C   UNL     1       2.908   2.857  19.481  0.00  0.00    +0.000 C 
ATOM      7  H   UNL     1       0.952   2.336  19.360  0.00  0.00    +0.000 HD
ENDROOT
BRANCH   1  11
ATOM      8  C   UNL     1       7.094   4.632  15.866  0.00  0.00    +0.000 C 
ATOM      9  C   UNL     1       6.420   4.750  17.176  0.00  0.00    +0.000 A 
ATOM     10  C   UNL     1       5.078   5.082  17.460  0.00  0.00    +0.000 A 
ATOM     11  C   UNL     1       4.957   5.028  18.839  0.00  0.00    +0.000 A 
ATOM     12  O   UNL     1       6.201   4.693  19.324  0.00  0.00    +0.000 OA
ATOM     13  N   UNL     1       7.102   4.519  18.298  0.00  0.00    +0.000 NA
ENDBRANCH   1  11
TORSDOF 1
ENDMDL
MODEL 3
REMARK VINA RESULT:      -5.7      2.953      3.964
REMARK  Name = 
REMARK  2 active torsions:
REMARK  status: ('A' for Active; 'I' for Inactive)
REMARK    1  A    between atoms: C_1  and  C_2
REMARK    2  A    between atoms: C_4  and  C_5
REMARK                            x       y       z     vdW  Elec       q    Type
REMARK                         _______ _______ _______ _____ _____    ______ ____
ROOT
ATOM      1  C   UNL     1       3.000   5.172  17.661  0.00  0.00    +0.000 C 
ATOM      2  C   UNL     1       2.742   3.875  17.902  0.00  0.00    +0.000 C 
ATOM      3  C   UNL     1       1.392   3.350  18.292  0.00  0.00    +0.000 C 
ATOM      4  C   UNL     1       1.757   2.056  19.002  0.00  0.00    +0.000 C 
ATOM      5  N   UNL     1       2.913   1.532  18.265  0.00  0.00    +0.000 NA
ATOM      6  C   UNL     1       3.707   2.723  17.910  0.00  0.00    +0.000 C 
ATOM      7  H   UNL     1       2.586   1.113  17.394  0.00  0.00    +0.000 HD
ENDROOT
BRANCH   1  11
ATOM      8  C   UNL     1       7.587   7.279  17.550  0.00  0.00    +0.000 C 
ATOM      9  C   UNL     1       6.318   6.589  17.239  0.00  0.00    +0.000 A 
ATOM     10  C   UNL     1       5.237   6.285  18.093  0.00  0.00    +0.000 A 
ATOM     11  C   UNL     1       4.289   5.657  17.300  0.00  0.00    +0.000 A 
ATOM     12  O   UNL     1       4.827   5.592  16.035  0.00  0.00    +0.000 OA
ATOM     13  N   UNL     1       6.076   6.168  15.997  0.00  0.00    +0.000 NA
ENDBRANCH   1  11
TORSDOF 1
ENDMDL
MODEL 4
REMARK VINA RESULT:      -5.7      2.790      3.653
REMARK  Name = 
REMARK  2 active torsions:
REMARK  status: ('A' for Active; 'I' for Inactive)
REMARK    1  A    between atoms: C_1  and  C_2
REMARK    2  A    between atoms: C_4  and  C_5
REMARK                            x       y       z     vdW  Elec       q    Type
REMARK                         _______ _______ _______ _____ _____    ______ ____
ROOT
ATOM      1  C   UNL     1       4.247   4.004  16.794  0.00  0.00    +0.000 C 
ATOM      2  C   UNL     1       3.710   3.290  17.798  0.00  0.00    +0.000 C 
ATOM      3  C   UNL     1       2.462   2.468  17.664  0.00  0.00    +0.000 C 
ATOM      4  C   UNL     1       1.983   2.396  19.104  0.00  0.00    +0.000 C 
ATOM      5  N   UNL     1       3.210   2.320  19.909  0.00  0.00    +0.000 NA
ATOM      6  C   UNL     1       4.165   3.212  19.228  0.00  0.00    +0.000 C 
ATOM      7  H   UNL     1       3.582   1.372  19.851  0.00  0.00    +0.000 HD
ENDROOT
BRANCH   1  11
ATOM      8  C   UNL     1       7.625   7.683  17.535  0.00  0.00    +0.000 C 
ATOM      9  C   UNL     1       6.930   6.408  17.260  0.00  0.00    +0.000 A 
ATOM     10  C   UNL     1       5.549   6.119  17.304  0.00  0.00    +0.000 A 
ATOM     11  C   UNL     1       5.427   4.788  16.937  0.00  0.00    +0.000 A 
ATOM     12  O   UNL     1       6.706   4.331  16.710  0.00  0.00    +0.000 OA
ATOM     13  N   UNL     1       7.631   5.331  16.907  0.00  0.00    +0.000 NA
ENDBRANCH   1  11
TORSDOF 1
ENDMDL
MODEL 5
REMARK VINA RESULT:      -5.6      3.496      4.380
REMARK  Name = 
REMARK  2 active torsions:
REMARK  status: ('A' for Active; 'I' for Inactive)
REMARK    1  A    between atoms: C_1  and  C_2
REMARK    2  A    between atoms: C_4  and  C_5
REMARK                            x       y       z     vdW  Elec       q    Type
REMARK                         _______ _______ _______ _____ _____    ______ ____
ROOT
ATOM      1  C   UNL     1       3.399   4.885  19.581  0.00  0.00    +0.000 C 
ATOM      2  C   UNL     1       2.698   3.896  19.000  0.00  0.00    +0.000 C 
ATOM      3  C   UNL     1       1.305   3.510  19.402  0.00  0.00    +0.000 C 
ATOM      4  C   UNL     1       1.232   2.070  18.922  0.00  0.00    +0.000 C 
ATOM      5  N   UNL     1       2.009   2.046  17.676  0.00  0.00    +0.000 NA
ATOM      6  C   UNL     1       3.148   2.949  17.923  0.00  0.00    +0.000 C 
ATOM      7  H   UNL     1       1.448   2.459  16.930  0.00  0.00    +0.000 HD
ENDROOT
BRANCH   1  11
ATOM      8  C   UNL     1       7.514   6.759  17.335  0.00  0.00    +0.000 C 
ATOM      9  C   UNL     1       6.552   6.055  18.208  0.00  0.00    +0.000 A 
ATOM     10  C   UNL     1       5.141   6.089  18.187  0.00  0.00    +0.000 A 
ATOM     11  C   UNL     1       4.724   5.234  19.195  0.00  0.00    +0.000 A 
ATOM     12  O   UNL     1       5.868   4.742  19.781  0.00  0.00    +0.000 OA
ATOM     13  N   UNL     1       6.994   5.247  19.171  0.00  0.00    +0.000 NA
ENDBRANCH   1  11
TORSDOF 1
ENDMDL
MODEL 6
REMARK VINA RESULT:      -5.6      3.151      6.062
REMARK  Name = 
REMARK  2 active torsions:
REMARK  status: ('A' for Active; 'I' for Inactive)
REMARK    1  A    between atoms: C_1  and  C_2
REMARK    2  A    between atoms: C_4  and  C_5
REMARK                            x       y       z     vdW  Elec       q    Type
REMARK                         _______ _______ _______ _____ _____    ______ ____
ROOT
ATOM      1  C   UNL     1       3.225   5.474  17.803  0.00  0.00    +0.000 C 
ATOM      2  C   UNL     1       4.283   5.062  17.084  0.00  0.00    +0.000 C 
ATOM      3  C   UNL     1       5.083   5.958  16.186  0.00  0.00    +0.000 C 
ATOM      4  C   UNL     1       5.693   4.959  15.217  0.00  0.00    +0.000 C 
ATOM      5  N   UNL     1       5.971   3.766  16.026  0.00  0.00    +0.000 NA
ATOM      6  C   UNL     1       4.835   3.669  16.960  0.00  0.00    +0.000 C 
ATOM      7  H   UNL     1       6.810   3.934  16.582  0.00  0.00    +0.000 HD
ENDROOT
BRANCH   1  11
ATOM      8  C   UNL     1       1.397   2.715  21.617  0.00  0.00    +0.000 C 
ATOM      9  C   UNL     1       1.652   3.384  20.323  0.00  0.00    +0.000 A 
ATOM     10  C   UNL     1       2.654   4.318  19.987  0.00  0.00    +0.000 A 
ATOM     11  C   UNL     1       2.468   4.610  18.645  0.00  0.00    +0.000 A 
ATOM     12  O   UNL     1       1.378   3.873  18.238  0.00  0.00    +0.000 OA
ATOM     13  N   UNL     1       0.877   3.116  19.272  0.00  0.00    +0.000 NA
ENDBRANCH   1  11
TORSDOF 1
ENDMDL
MODEL 7
REMARK VINA RESULT:      -5.6      2.793      5.675
REMARK  Name = 
REMARK  2 active torsions:
REMARK  status: ('A' for Active; 'I' for Inactive)
REMARK    1  A    between atoms: C_1  and  C_2
REMARK    2  A    between atoms: C_4  and  C_5
REMARK                            x       y       z     vdW  Elec       q    Type
REMARK                         _______ _______ _______ _____ _____    ______ ____
ROOT
ATOM      1  C   UNL     1       3.955   3.946  16.862  0.00  0.00    +0.000 C 
ATOM      2  C   UNL     1       5.158   4.419  16.494  0.00  0.00    +0.000 C 
ATOM      3  C   UNL     1       5.511   4.804  15.088  0.00  0.00    +0.000 C 
ATOM      4  C   UNL     1       7.025   4.672  15.102  0.00  0.00    +0.000 C 
ATOM      5  N   UNL     1       7.431   5.111  16.443  0.00  0.00    +0.000 NA
ATOM      6  C   UNL     1       6.385   4.593  17.344  0.00  0.00    +0.000 C 
ATOM      7  H   UNL     1       7.390   6.130  16.482  0.00  0.00    +0.000 HD
ENDROOT
BRANCH   1  11
ATOM      8  C   UNL     1       2.086   3.616  21.540  0.00  0.00    +0.000 C 
ATOM      9  C   UNL     1       2.819   3.422  20.272  0.00  0.00    +0.000 A 
ATOM     10  C   UNL     1       2.714   4.145  19.064  0.00  0.00    +0.000 A 
ATOM     11  C   UNL     1       3.636   3.576  18.199  0.00  0.00    +0.000 A 
ATOM     12  O   UNL     1       4.233   2.548  18.893  0.00  0.00    +0.000 OA
ATOM     13  N   UNL     1       3.730   2.455  20.171  0.00  0.00    +0.000 NA
ENDBRANCH   1  11
TORSDOF 1
ENDMDL
MODEL 8
REMARK VINA RESULT:      -5.6      2.569      2.899
REMARK  Name = 
REMARK  2 active torsions:
REMARK  status: ('A' for Active; 'I' for Inactive)
REMARK    1  A    between atoms: C_1  and  C_2
REMARK    2  A    between atoms: C_4  and  C_5
REMARK                            x       y       z     vdW  Elec       q    Type
REMARK                         _______ _______ _______ _____ _____    ______ ____
ROOT
ATOM      1  C   UNL     1       3.924   4.985  17.701  0.00  0.00    +0.000 C 
ATOM      2  C   UNL     1       3.168   3.916  18.005  0.00  0.00    +0.000 C 
ATOM      3  C   UNL     1       1.926   3.982  18.843  0.00  0.00    +0.000 C 
ATOM      4  C   UNL     1       1.828   2.558  19.364  0.00  0.00    +0.000 C 
ATOM      5  N   UNL     1       2.305   1.716  18.259  0.00  0.00    +0.000 NA
ATOM      6  C   UNL     1       3.417   2.475  17.658  0.00  0.00    +0.000 C 
ATOM      7  H   UNL     1       1.568   1.647  17.557  0.00  0.00    +0.000 HD
ENDROOT
BRANCH   1  11
ATOM      8  C   UNL     1       7.328   4.878  13.973  0.00  0.00    +0.000 C 
ATOM      9  C   UNL     1       6.621   4.854  15.271  0.00  0.00    +0.000 A 
ATOM     10  C   UNL     1       5.252   5.064  15.542  0.00  0.00    +0.000 A 
ATOM     11  C   UNL     1       5.106   4.906  16.911  0.00  0.00    +0.000 A 
ATOM     12  O   UNL     1       6.362   4.632  17.403  0.00  0.00    +0.000 OA
ATOM     13  N   UNL     1       7.295   4.598  16.392  0.00  0.00    +0.000 NA
ENDBRANCH   1  11
TORSDOF 1
ENDMDL
MODEL 9
REMARK VINA RESULT:      -5.6      1.923      2.520
REMARK  Name = 
REMARK  2 active torsions:
REMARK  status: ('A' for Active; 'I' for Inactive)
REMARK    1  A    between atoms: C_1  and  C_2
REMARK    2  A    between atoms: C_4  and  C_5
REMARK                            x       y       z     vdW  Elec       q    Type
REMARK                         _______ _______ _______ _____ _____    ______ ____
ROOT
ATOM      1  C   UNL     1       4.558   3.625  18.987  0.00  0.00    +0.000 C 
ATOM      2  C   UNL     1       3.707   4.469  19.596  0.00  0.00    +0.000 C 
ATOM      3  C   UNL     1       2.706   4.046  20.630  0.00  0.00    +0.000 C 
ATOM      4  C   UNL     1       1.670   5.152  20.528  0.00  0.00    +0.000 C 
ATOM      5  N   UNL     1       2.441   6.371  20.252  0.00  0.00    +0.000 NA
ATOM      6  C   UNL     1       3.518   5.938  19.342  0.00  0.00    +0.000 C 
ATOM      7  H   UNL     1       2.881   6.685  21.117  0.00  0.00    +0.000 HD
ENDROOT
BRANCH   1  11
ATOM      8  C   UNL     1       6.958   4.847  14.717  0.00  0.00    +0.000 C 
ATOM      9  C   UNL     1       6.569   4.580  16.117  0.00  0.00    +0.000 A 
ATOM     10  C   UNL     1       5.320   4.172  16.632  0.00  0.00    +0.000 A 
ATOM     11  C   UNL     1       5.496   4.039  18.000  0.00  0.00    +0.000 A 
ATOM     12  O   UNL     1       6.805   4.379  18.255  0.00  0.00    +0.000 OA
ATOM     13  N   UNL     1       7.467   4.710  17.094  0.00  0.00    +0.000 NA
ENDBRANCH   1  11
TORSDOF 1
ENDMDL
