MODEL 1
REMARK VINA RESULT:      -7.8      0.000      0.000
REMARK  Name = 
REMARK  7 active torsions:
REMARK  status: ('A' for Active; 'I' for Inactive)
REMARK    1  A    between atoms: C_1  and  C_2
REMARK    2  A    between atoms: C_2  and  O_3
REMARK    3  A    between atoms: O_3  and  C_4
REMARK    4  A    between atoms: N_6  and  C_7
REMARK    5  A    between atoms: N_17  and  C_18
REMARK    6  A    between atoms: C_21  and  C_22
REMARK    7  A    between atoms: C_24  and  C_25
REMARK                            x       y       z     vdW  Elec       q    Type
REMARK                         _______ _______ _______ _____ _____    ______ ____
ROOT
ATOM      1  C   UNL     1      -3.857  12.488  20.090  0.00  0.00    +0.000 A 
ATOM      2  C   UNL     1      -4.070  12.080  18.773  0.00  0.00    +0.000 A 
ATOM      3  C   UNL     1      -3.056  11.455  18.037  0.00  0.00    +0.000 A 
ATOM      4  C   UNL     1      -1.802  11.221  18.610  0.00  0.00    +0.000 A 
ATOM      5  C   UNL     1      -1.567  11.682  19.921  0.00  0.00    +0.000 A 
ATOM      6  C   UNL     1      -2.586  12.334  20.641  0.00  0.00    +0.000 A 
ATOM      7  C   UNL     1      -0.231  11.488  20.586  0.00  0.00    +0.000 C 
ATOM      8  N   UNL     1       0.469  10.369  19.984  0.00  0.00    +0.000 N 
ATOM      9  C   UNL     1       1.010   9.247  20.599  0.00  0.00    +0.000 C 
ATOM     10  S   UNL     1       1.086   9.087  22.265  0.00  0.00    +0.000 S 
ATOM     11  N   UNL     1       1.515   8.415  19.595  0.00  0.00    +0.000 N 
ATOM     12  C   UNL     1       1.374   9.045  18.366  0.00  0.00    +0.000 C 
ATOM     13  O   UNL     1       1.778   8.654  17.277  0.00  0.00    +0.000 OA
ATOM     14  C   UNL     1       0.603  10.354  18.550  0.00  0.00    +0.000 C 
ATOM     15  C   UNL     1      -0.767  10.390  17.862  0.00  0.00    +0.000 C 
ENDROOT
BRANCH  11  16
ATOM     16  C   UNL     1       2.206   7.176  19.791  0.00  0.00    +0.000 A 
ATOM     17  C   UNL     1       1.713   6.133  20.566  0.00  0.00    +0.000 A 
ATOM     18  N   UNL     1       2.261   4.881  20.608  0.00  0.00    +0.000 NA
ATOM     19  C   UNL     1       3.361   4.626  19.847  0.00  0.00    +0.000 A 
ATOM     20  C   UNL     1       3.982   5.614  19.104  0.00  0.00    +0.000 A 
ATOM     21  C   UNL     1       3.415   6.903  19.144  0.00  0.00    +0.000 A 
BRANCH  20  22
ATOM     22  C   UNL     1       5.173   5.397  18.222  0.00  0.00    +0.000 C 
ATOM     23  F   UNL     1       5.661   6.505  17.613  0.00  0.00    +0.000 F 
ATOM     24  F   UNL     1       6.220   4.870  18.917  0.00  0.00    +0.000 F 
ATOM     25  F   UNL     1       4.912   4.506  17.226  0.00  0.00    +0.000 F 
ENDBRANCH  20  22
BRANCH  19  26
ATOM     26  C   UNL     1       3.799   3.243  19.868  0.00  0.00    +0.000 C 
ATOM     27  N   UNL     1       4.163   2.143  19.869  0.00  0.00    +0.000 NA
ENDBRANCH  19  26
ENDBRANCH  11  16
BRANCH   1  30
ATOM     28  C   UNL     1      -6.036  12.444  21.271  0.00  0.00    +0.000 C 
ATOM     29  O   UNL     1      -6.410  11.313  21.002  0.00  0.00    +0.000 OA
ATOM     30  N   UNL     1      -4.861  13.039  20.906  0.00  0.00    +0.000 N 
ATOM     31  H   UNL     1      -4.706  13.945  21.328  0.00  0.00    +0.000 HD
BRANCH  28  32
ATOM     32  O   UNL     1      -6.776  13.336  21.985  0.00  0.00    +0.000 OA
BRANCH  32  34
ATOM     33  C   UNL     1      -5.970  12.732  24.163  0.00  0.00    +0.000 C 
ATOM     34  C   UNL     1      -6.112  13.854  23.150  0.00  0.00    +0.000 C 
ENDBRANCH  32  34
ENDBRANCH  28  32
ENDBRANCH   1  30
TORSDOF 6
ENDMDL
MODEL 2
REMARK VINA RESULT:      -7.7      2.006      2.396
REMARK  Name = 
REMARK  7 active torsions:
REMARK  status: ('A' for Active; 'I' for Inactive)
REMARK    1  A    between atoms: C_1  and  C_2
REMARK    2  A    between atoms: C_2  and  O_3
REMARK    3  A    between atoms: O_3  and  C_4
REMARK    4  A    between atoms: N_6  and  C_7
REMARK    5  A    between atoms: N_17  and  C_18
REMARK    6  A    between atoms: C_21  and  C_22
REMARK    7  A    between atoms: C_24  and  C_25
REMARK                            x       y       z     vdW  Elec       q    Type
REMARK                         _______ _______ _______ _____ _____    ______ ____
ROOT
ATOM      1  C   UNL     1      -3.082  12.174  19.747  0.00  0.00    +0.000 A 
ATOM      2  C   UNL     1      -3.207  11.943  18.377  0.00  0.00    +0.000 A 
ATOM      3  C   UNL     1      -2.182  11.322  17.652  0.00  0.00    +0.000 A 
ATOM      4  C   UNL     1      -1.006  10.915  18.289  0.00  0.00    +0.000 A 
ATOM      5  C   UNL     1      -0.854  11.198  19.662  0.00  0.00    +0.000 A 
ATOM      6  C   UNL     1      -1.880  11.848  20.374  0.00  0.00    +0.000 A 
ATOM      7  C   UNL     1       0.398  10.811  20.401  0.00  0.00    +0.000 C 
ATOM      8  N   UNL     1       1.060   9.714  19.723  0.00  0.00    +0.000 N 
ATOM      9  C   UNL     1       1.457   8.485  20.235  0.00  0.00    +0.000 C 
ATOM     10  S   UNL     1       1.371   8.125  21.869  0.00  0.00    +0.000 S 
ATOM     11  N   UNL     1       1.984   7.735  19.179  0.00  0.00    +0.000 N 
ATOM     12  C   UNL     1       2.002   8.514  18.030  0.00  0.00    +0.000 C 
ATOM     13  O   UNL     1       2.470   8.219  16.937  0.00  0.00    +0.000 OA
ATOM     14  C   UNL     1       1.320   9.855  18.313  0.00  0.00    +0.000 C 
ATOM     15  C   UNL     1       0.024  10.090  17.529  0.00  0.00    +0.000 C 
ENDROOT
BRANCH  11  16
ATOM     16  C   UNL     1       2.557   6.426  19.275  0.00  0.00    +0.000 A 
ATOM     17  C   UNL     1       3.918   6.171  19.161  0.00  0.00    +0.000 A 
ATOM     18  N   UNL     1       4.500   4.965  19.440  0.00  0.00    +0.000 NA
ATOM     19  C   UNL     1       3.708   3.940  19.858  0.00  0.00    +0.000 A 
ATOM     20  C   UNL     1       2.331   4.062  19.926  0.00  0.00    +0.000 A 
ATOM     21  C   UNL     1       1.774   5.305  19.567  0.00  0.00    +0.000 A 
BRANCH  20  22
ATOM     22  C   UNL     1       1.403   2.988  20.406  0.00  0.00    +0.000 C 
ATOM     23  F   UNL     1       1.518   2.654  21.713  0.00  0.00    +0.000 F 
ATOM     24  F   UNL     1       0.098   3.342  20.232  0.00  0.00    +0.000 F 
ATOM     25  F   UNL     1       1.562   1.830  19.707  0.00  0.00    +0.000 F 
ENDBRANCH  20  22
BRANCH  19  26
ATOM     26  C   UNL     1       4.428   2.740  20.240  0.00  0.00    +0.000 C 
ATOM     27  N   UNL     1       5.016   1.784  20.527  0.00  0.00    +0.000 NA
ENDBRANCH  19  26
ENDBRANCH  11  16
BRANCH   1  30
ATOM     28  C   UNL     1      -5.435  12.388  20.494  0.00  0.00    +0.000 C 
ATOM     29  O   UNL     1      -5.967  11.542  19.791  0.00  0.00    +0.000 OA
ATOM     30  N   UNL     1      -4.109  12.712  20.543  0.00  0.00    +0.000 N 
ATOM     31  H   UNL     1      -3.869  13.368  21.274  0.00  0.00    +0.000 HD
BRANCH  28  32
ATOM     32  O   UNL     1      -6.116  13.193  21.354  0.00  0.00    +0.000 OA
BRANCH  32  34
ATOM     33  C   UNL     1      -6.729  13.024  23.668  0.00  0.00    +0.000 C 
ATOM     34  C   UNL     1      -6.974  12.488  22.268  0.00  0.00    +0.000 C 
ENDBRANCH  32  34
ENDBRANCH  28  32
ENDBRANCH   1  30
TORSDOF 6
ENDMDL
MODEL 3
REMARK VINA RESULT:      -7.6      1.153      1.387
REMARK  Name = 
REMARK  7 active torsions:
REMARK  status: ('A' for Active; 'I' for Inactive)
REMARK    1  A    between atoms: C_1  and  C_2
REMARK    2  A    between atoms: C_2  and  O_3
REMARK    3  A    between atoms: O_3  and  C_4
REMARK    4  A    between atoms: N_6  and  C_7
REMARK    5  A    between atoms: N_17  and  C_18
REMARK    6  A    between atoms: C_21  and  C_22
REMARK    7  A    between atoms: C_24  and  C_25
REMARK                            x       y       z     vdW  Elec       q    Type
REMARK                         _______ _______ _______ _____ _____    ______ ____
ROOT
ATOM      1  C   UNL     1      -3.576  12.854  21.094  0.00  0.00    +0.000 A 
ATOM      2  C   UNL     1      -3.984  12.541  19.796  0.00  0.00    +0.000 A 
ATOM      3  C   UNL     1      -3.109  11.925  18.894  0.00  0.00    +0.000 A 
ATOM      4  C   UNL     1      -1.803  11.603  19.274  0.00  0.00    +0.000 A 
ATOM      5  C   UNL     1      -1.371  11.969  20.566  0.00  0.00    +0.000 A 
ATOM      6  C   UNL     1      -2.252  12.614  21.455  0.00  0.00    +0.000 A 
ATOM      7  C   UNL     1       0.030  11.678  21.029  0.00  0.00    +0.000 C 
ATOM      8  N   UNL     1       0.587  10.573  20.272  0.00  0.00    +0.000 N 
ATOM      9  C   UNL     1       1.150   9.392  20.740  0.00  0.00    +0.000 C 
ATOM     10  S   UNL     1       1.441   9.121  22.368  0.00  0.00    +0.000 S 
ATOM     11  N   UNL     1       1.474   8.607  19.630  0.00  0.00    +0.000 N 
ATOM     12  C   UNL     1       1.201   9.321  18.470  0.00  0.00    +0.000 C 
ATOM     13  O   UNL     1       1.436   8.985  17.315  0.00  0.00    +0.000 OA
ATOM     14  C   UNL     1       0.527  10.646  18.835  0.00  0.00    +0.000 C 
ATOM     15  C   UNL     1      -0.920  10.782  18.345  0.00  0.00    +0.000 C 
ENDROOT
BRANCH  11  16
ATOM     16  C   UNL     1       2.124   7.331  19.656  0.00  0.00    +0.000 A 
ATOM     17  C   UNL     1       1.778   6.308  20.531  0.00  0.00    +0.000 A 
ATOM     18  N   UNL     1       2.251   5.028  20.443  0.00  0.00    +0.000 NA
ATOM     19  C   UNL     1       3.118   4.722  19.439  0.00  0.00    +0.000 A 
ATOM     20  C   UNL     1       3.593   5.683  18.564  0.00  0.00    +0.000 A 
ATOM     21  C   UNL     1       3.124   7.001  18.736  0.00  0.00    +0.000 A 
BRANCH  20  22
ATOM     22  C   UNL     1       4.521   5.412  17.420  0.00  0.00    +0.000 C 
ATOM     23  F   UNL     1       5.760   4.982  17.759  0.00  0.00    +0.000 F 
ATOM     24  F   UNL     1       4.019   4.459  16.585  0.00  0.00    +0.000 F 
ATOM     25  F   UNL     1       4.706   6.516  16.644  0.00  0.00    +0.000 F 
ENDBRANCH  20  22
BRANCH  19  26
ATOM     26  C   UNL     1       3.472   3.318  19.358  0.00  0.00    +0.000 C 
ATOM     27  N   UNL     1       3.736   2.190  19.302  0.00  0.00    +0.000 NA
ENDBRANCH  19  26
ENDBRANCH  11  16
BRANCH   1  30
ATOM     28  C   UNL     1      -4.622  12.923  23.340  0.00  0.00    +0.000 C 
ATOM     29  O   UNL     1      -4.051  11.986  23.878  0.00  0.00    +0.000 OA
ATOM     30  N   UNL     1      -4.433  13.392  22.070  0.00  0.00    +0.000 N 
ATOM     31  H   UNL     1      -4.935  14.245  21.865  0.00  0.00    +0.000 HD
BRANCH  28  32
ATOM     32  O   UNL     1      -5.598  13.658  23.939  0.00  0.00    +0.000 OA
BRANCH  32  34
ATOM     33  C   UNL     1      -7.598  14.943  23.609  0.00  0.00    +0.000 C 
ATOM     34  C   UNL     1      -6.205  14.642  23.084  0.00  0.00    +0.000 C 
ENDBRANCH  32  34
ENDBRANCH  28  32
ENDBRANCH   1  30
TORSDOF 6
ENDMDL
MODEL 4
REMARK VINA RESULT:      -7.6      0.925      1.056
REMARK  Name = 
REMARK  7 active torsions:
REMARK  status: ('A' for Active; 'I' for Inactive)
REMARK    1  A    between atoms: C_1  and  C_2
REMARK    2  A    between atoms: C_2  and  O_3
REMARK    3  A    between atoms: O_3  and  C_4
REMARK    4  A    between atoms: N_6  and  C_7
REMARK    5  A    between atoms: N_17  and  C_18
REMARK    6  A    between atoms: C_21  and  C_22
REMARK    7  A    between atoms: C_24  and  C_25
REMARK                            x       y       z     vdW  Elec       q    Type
REMARK                         _______ _______ _______ _____ _____    ______ ____
ROOT
ATOM      1  C   UNL     1      -3.954  12.566  20.450  0.00  0.00    +0.000 A 
ATOM      2  C   UNL     1      -4.230  12.209  19.129  0.00  0.00    +0.000 A 
ATOM      3  C   UNL     1      -3.246  11.632  18.317  0.00  0.00    +0.000 A 
ATOM      4  C   UNL     1      -1.961  11.394  18.814  0.00  0.00    +0.000 A 
ATOM      5  C   UNL     1      -1.665  11.804  20.130  0.00  0.00    +0.000 A 
ATOM      6  C   UNL     1      -2.654  12.410  20.928  0.00  0.00    +0.000 A 
ATOM      7  C   UNL     1      -0.295  11.603  20.717  0.00  0.00    +0.000 C 
ATOM      8  N   UNL     1       0.388  10.522  20.033  0.00  0.00    +0.000 N 
ATOM      9  C   UNL     1       0.976   9.383  20.572  0.00  0.00    +0.000 C 
ATOM     10  S   UNL     1       1.139   9.155  22.223  0.00  0.00    +0.000 S 
ATOM     11  N   UNL     1       1.439   8.602  19.509  0.00  0.00    +0.000 N 
ATOM     12  C   UNL     1       1.226   9.279  18.317  0.00  0.00    +0.000 C 
ATOM     13  O   UNL     1       1.579   8.940  17.193  0.00  0.00    +0.000 OA
ATOM     14  C   UNL     1       0.448  10.568  18.595  0.00  0.00    +0.000 C 
ATOM     15  C   UNL     1      -0.956  10.611  17.980  0.00  0.00    +0.000 C 
ENDROOT
BRANCH  11  16
ATOM     16  C   UNL     1       2.156   7.367  19.617  0.00  0.00    +0.000 A 
ATOM     17  C   UNL     1       1.895   6.406  20.587  0.00  0.00    +0.000 A 
ATOM     18  N   UNL     1       2.432   5.149  20.588  0.00  0.00    +0.000 NA
ATOM     19  C   UNL     1       3.278   4.801  19.580  0.00  0.00    +0.000 A 
ATOM     20  C   UNL     1       3.671   5.706  18.610  0.00  0.00    +0.000 A 
ATOM     21  C   UNL     1       3.139   7.008  18.689  0.00  0.00    +0.000 A 
BRANCH  20  22
ATOM     22  C   UNL     1       4.572   5.384  17.458  0.00  0.00    +0.000 C 
ATOM     23  F   UNL     1       4.844   6.414  16.621  0.00  0.00    +0.000 F 
ATOM     24  F   UNL     1       5.784   4.929  17.883  0.00  0.00    +0.000 F 
ATOM     25  F   UNL     1       4.063   4.392  16.677  0.00  0.00    +0.000 F 
ENDBRANCH  20  22
BRANCH  19  26
ATOM     26  C   UNL     1       3.704   3.414  19.603  0.00  0.00    +0.000 C 
ATOM     27  N   UNL     1       4.023   2.300  19.619  0.00  0.00    +0.000 NA
ENDBRANCH  19  26
ENDBRANCH  11  16
BRANCH   1  30
ATOM     28  C   UNL     1      -5.197  14.382  21.590  0.00  0.00    +0.000 C 
ATOM     29  O   UNL     1      -4.695  15.360  21.059  0.00  0.00    +0.000 OA
ATOM     30  N   UNL     1      -4.922  13.067  21.338  0.00  0.00    +0.000 N 
ATOM     31  H   UNL     1      -5.532  12.418  21.815  0.00  0.00    +0.000 HD
BRANCH  28  32
ATOM     32  O   UNL     1      -6.131  14.454  22.577  0.00  0.00    +0.000 OA
BRANCH  32  34
ATOM     33  C   UNL     1      -7.517  13.403  24.230  0.00  0.00    +0.000 C 
ATOM     34  C   UNL     1      -6.362  13.211  23.262  0.00  0.00    +0.000 C 
ENDBRANCH  32  34
ENDBRANCH  28  32
ENDBRANCH   1  30
TORSDOF 6
ENDMDL
MODEL 5
REMARK VINA RESULT:      -7.5      2.164      2.672
REMARK  Name = 
REMARK  7 active torsions:
REMARK  status: ('A' for Active; 'I' for Inactive)
REMARK    1  A    between atoms: C_1  and  C_2
REMARK    2  A    between atoms: C_2  and  O_3
REMARK    3  A    between atoms: O_3  and  C_4
REMARK    4  A    between atoms: N_6  and  C_7
REMARK    5  A    between atoms: N_17  and  C_18
REMARK    6  A    between atoms: C_21  and  C_22
REMARK    7  A    between atoms: C_24  and  C_25
REMARK                            x       y       z     vdW  Elec       q    Type
REMARK                         _______ _______ _______ _____ _____    ______ ____
ROOT
ATOM      1  C   UNL     1      -3.064  12.106  19.727  0.00  0.00    +0.000 A 
ATOM      2  C   UNL     1      -3.168  11.894  18.351  0.00  0.00    +0.000 A 
ATOM      3  C   UNL     1      -2.130  11.287  17.634  0.00  0.00    +0.000 A 
ATOM      4  C   UNL     1      -0.963  10.873  18.282  0.00  0.00    +0.000 A 
ATOM      5  C   UNL     1      -0.832  11.136  19.661  0.00  0.00    +0.000 A 
ATOM      6  C   UNL     1      -1.871  11.773  20.367  0.00  0.00    +0.000 A 
ATOM      7  C   UNL     1       0.409  10.742  20.414  0.00  0.00    +0.000 C 
ATOM      8  N   UNL     1       1.085   9.657  19.730  0.00  0.00    +0.000 N 
ATOM      9  C   UNL     1       1.477   8.421  20.229  0.00  0.00    +0.000 C 
ATOM     10  S   UNL     1       1.367   8.036  21.856  0.00  0.00    +0.000 S 
ATOM     11  N   UNL     1       2.022   7.688  19.171  0.00  0.00    +0.000 N 
ATOM     12  C   UNL     1       2.056   8.484  18.034  0.00  0.00    +0.000 C 
ATOM     13  O   UNL     1       2.541   8.207  16.943  0.00  0.00    +0.000 OA
ATOM     14  C   UNL     1       1.366   9.819  18.326  0.00  0.00    +0.000 C 
ATOM     15  C   UNL     1       0.081  10.063  17.526  0.00  0.00    +0.000 C 
ENDROOT
BRANCH  11  16
ATOM     16  C   UNL     1       2.598   6.380  19.256  0.00  0.00    +0.000 A 
ATOM     17  C   UNL     1       3.960   6.128  19.152  0.00  0.00    +0.000 A 
ATOM     18  N   UNL     1       4.543   4.921  19.421  0.00  0.00    +0.000 NA
ATOM     19  C   UNL     1       3.748   3.889  19.819  0.00  0.00    +0.000 A 
ATOM     20  C   UNL     1       2.371   4.006  19.875  0.00  0.00    +0.000 A 
ATOM     21  C   UNL     1       1.814   5.253  19.526  0.00  0.00    +0.000 A 
BRANCH  20  22
ATOM     22  C   UNL     1       1.440   2.925  20.333  0.00  0.00    +0.000 C 
ATOM     23  F   UNL     1       1.564   2.555  21.630  0.00  0.00    +0.000 F 
ATOM     24  F   UNL     1       0.136   3.290  20.179  0.00  0.00    +0.000 F 
ATOM     25  F   UNL     1       1.588   1.785  19.602  0.00  0.00    +0.000 F 
ENDBRANCH  20  22
BRANCH  19  26
ATOM     26  C   UNL     1       4.467   2.686  20.193  0.00  0.00    +0.000 C 
ATOM     27  N   UNL     1       5.024   1.717  20.501  0.00  0.00    +0.000 NA
ENDBRANCH  19  26
ENDBRANCH  11  16
BRANCH   1  30
ATOM     28  C   UNL     1      -4.215  13.910  20.976  0.00  0.00    +0.000 C 
ATOM     29  O   UNL     1      -3.463  14.847  20.753  0.00  0.00    +0.000 OA
ATOM     30  N   UNL     1      -4.104  12.629  20.515  0.00  0.00    +0.000 N 
ATOM     31  H   UNL     1      -4.896  12.040  20.734  0.00  0.00    +0.000 HD
BRANCH  28  32
ATOM     32  O   UNL     1      -5.311  13.995  21.777  0.00  0.00    +0.000 OA
BRANCH  32  34
ATOM     33  C   UNL     1      -7.139  14.555  20.327  0.00  0.00    +0.000 C 
ATOM     34  C   UNL     1      -6.514  13.472  21.189  0.00  0.00    +0.000 C 
ENDBRANCH  32  34
ENDBRANCH  28  32
ENDBRANCH   1  30
TORSDOF 6
ENDMDL
MODEL 6
REMARK VINA RESULT:      -7.5      2.132      2.493
REMARK  Name = 
REMARK  7 active torsions:
REMARK  status: ('A' for Active; 'I' for Inactive)
REMARK    1  A    between atoms: C_1  and  C_2
REMARK    2  A    between atoms: C_2  and  O_3
REMARK    3  A    between atoms: O_3  and  C_4
REMARK    4  A    between atoms: N_6  and  C_7
REMARK    5  A    between atoms: N_17  and  C_18
REMARK    6  A    between atoms: C_21  and  C_22
REMARK    7  A    between atoms: C_24  and  C_25
REMARK                            x       y       z     vdW  Elec       q    Type
REMARK                         _______ _______ _______ _____ _____    ______ ____
ROOT
ATOM      1  C   UNL     1      -3.039  12.387  20.436  0.00  0.00    +0.000 A 
ATOM      2  C   UNL     1      -3.292  12.180  19.080  0.00  0.00    +0.000 A 
ATOM      3  C   UNL     1      -2.343  11.565  18.254  0.00  0.00    +0.000 A 
ATOM      4  C   UNL     1      -1.117  11.137  18.773  0.00  0.00    +0.000 A 
ATOM      5  C   UNL     1      -0.838  11.395  20.132  0.00  0.00    +0.000 A 
ATOM      6  C   UNL     1      -1.789  12.041  20.945  0.00  0.00    +0.000 A 
ATOM      7  C   UNL     1       0.473  10.987  20.747  0.00  0.00    +0.000 C 
ATOM      8  N   UNL     1       1.060   9.896  19.993  0.00  0.00    +0.000 N 
ATOM      9  C   UNL     1       1.491   8.655  20.446  0.00  0.00    +0.000 C 
ATOM     10  S   UNL     1       1.551   8.268  22.075  0.00  0.00    +0.000 S 
ATOM     11  N   UNL     1       1.912   7.920  19.334  0.00  0.00    +0.000 N 
ATOM     12  C   UNL     1       1.832   8.718  18.201  0.00  0.00    +0.000 C 
ATOM     13  O   UNL     1       2.196   8.438  17.065  0.00  0.00    +0.000 OA
ATOM     14  C   UNL     1       1.192  10.059  18.568  0.00  0.00    +0.000 C 
ATOM     15  C   UNL     1      -0.169  10.318  17.909  0.00  0.00    +0.000 C 
ENDROOT
BRANCH  11  16
ATOM     16  C   UNL     1       2.480   6.605  19.356  0.00  0.00    +0.000 A 
ATOM     17  C   UNL     1       3.832   6.346  19.170  0.00  0.00    +0.000 A 
ATOM     18  N   UNL     1       4.418   5.128  19.377  0.00  0.00    +0.000 NA
ATOM     19  C   UNL     1       3.638   4.093  19.793  0.00  0.00    +0.000 A 
ATOM     20  C   UNL     1       2.267   4.219  19.930  0.00  0.00    +0.000 A 
ATOM     21  C   UNL     1       1.703   5.478  19.643  0.00  0.00    +0.000 A 
BRANCH  20  22
ATOM     22  C   UNL     1       1.353   3.134  20.412  0.00  0.00    +0.000 C 
ATOM     23  F   UNL     1       1.567   1.908  19.878  0.00  0.00    +0.000 F 
ATOM     24  F   UNL     1       1.446   2.967  21.762  0.00  0.00    +0.000 F 
ATOM     25  F   UNL     1       0.046   3.426  20.170  0.00  0.00    +0.000 F 
ENDBRANCH  20  22
BRANCH  19  26
ATOM     26  C   UNL     1       4.366   2.876  20.098  0.00  0.00    +0.000 C 
ATOM     27  N   UNL     1       4.940   1.894  20.322  0.00  0.00    +0.000 NA
ENDBRANCH  19  26
ENDBRANCH  11  16
BRANCH   1  30
ATOM     28  C   UNL     1      -4.083  12.654  22.668  0.00  0.00    +0.000 C 
ATOM     29  O   UNL     1      -3.347  11.951  23.342  0.00  0.00    +0.000 OA
ATOM     30  N   UNL     1      -3.984  12.919  21.331  0.00  0.00    +0.000 N 
ATOM     31  H   UNL     1      -4.638  13.614  20.997  0.00  0.00    +0.000 HD
BRANCH  28  32
ATOM     32  O   UNL     1      -5.182  13.288  23.161  0.00  0.00    +0.000 OA
BRANCH  32  34
ATOM     33  C   UNL     1      -6.664  15.175  23.176  0.00  0.00    +0.000 C 
ATOM     34  C   UNL     1      -5.291  14.668  22.772  0.00  0.00    +0.000 C 
ENDBRANCH  32  34
ENDBRANCH  28  32
ENDBRANCH   1  30
TORSDOF 6
ENDMDL
MODEL 7
REMARK VINA RESULT:      -7.3      4.816     10.582
REMARK  Name = 
REMARK  7 active torsions:
REMARK  status: ('A' for Active; 'I' for Inactive)
REMARK    1  A    between atoms: C_1  and  C_2
REMARK    2  A    between atoms: C_2  and  O_3
REMARK    3  A    between atoms: O_3  and  C_4
REMARK    4  A    between atoms: N_6  and  C_7
REMARK    5  A    between atoms: N_17  and  C_18
REMARK    6  A    between atoms: C_21  and  C_22
REMARK    7  A    between atoms: C_24  and  C_25
REMARK                            x       y       z     vdW  Elec       q    Type
REMARK                         _______ _______ _______ _____ _____    ______ ____
ROOT
ATOM      1  C   UNL     1       2.398   7.073  18.827  0.00  0.00    +0.000 A 
ATOM      2  C   UNL     1       2.116   6.679  20.135  0.00  0.00    +0.000 A 
ATOM      3  C   UNL     1       1.477   7.546  21.029  0.00  0.00    +0.000 A 
ATOM      4  C   UNL     1       1.101   8.832  20.629  0.00  0.00    +0.000 A 
ATOM      5  C   UNL     1       1.435   9.252  19.324  0.00  0.00    +0.000 A 
ATOM      6  C   UNL     1       2.103   8.381  18.444  0.00  0.00    +0.000 A 
ATOM      7  C   UNL     1       1.085  10.632  18.839  0.00  0.00    +0.000 C 
ATOM      8  N   UNL     1      -0.032  11.161  19.598  0.00  0.00    +0.000 N 
ATOM      9  C   UNL     1      -1.239  11.670  19.135  0.00  0.00    +0.000 C 
ATOM     10  S   UNL     1      -1.539  11.918  17.505  0.00  0.00    +0.000 S 
ATOM     11  N   UNL     1      -2.023  11.985  20.248  0.00  0.00    +0.000 N 
ATOM     12  C   UNL     1      -1.287  11.761  21.403  0.00  0.00    +0.000 C 
ATOM     13  O   UNL     1      -1.618  12.004  22.558  0.00  0.00    +0.000 OA
ATOM     14  C   UNL     1       0.059  11.131  21.035  0.00  0.00    +0.000 C 
ATOM     15  C   UNL     1       0.256   9.700  21.551  0.00  0.00    +0.000 C 
ENDROOT
BRANCH  11  16
ATOM     16  C   UNL     1      -3.323  12.584  20.225  0.00  0.00    +0.000 A 
ATOM     17  C   UNL     1      -3.609  13.828  20.776  0.00  0.00    +0.000 A 
ATOM     18  N   UNL     1      -4.788  14.496  20.595  0.00  0.00    +0.000 NA
ATOM     19  C   UNL     1      -5.753  13.919  19.828  0.00  0.00    +0.000 A 
ATOM     20  C   UNL     1      -5.605  12.649  19.300  0.00  0.00    +0.000 A 
ATOM     21  C   UNL     1      -4.397  11.975  19.568  0.00  0.00    +0.000 A 
BRANCH  20  22
ATOM     22  C   UNL     1      -6.610  11.967  18.423  0.00  0.00    +0.000 C 
ATOM     23  F   UNL     1      -7.858  11.854  18.939  0.00  0.00    +0.000 F 
ATOM     24  F   UNL     1      -6.762  12.619  17.236  0.00  0.00    +0.000 F 
ATOM     25  F   UNL     1      -6.224  10.702  18.097  0.00  0.00    +0.000 F 
ENDBRANCH  20  22
BRANCH  19  26
ATOM     26  C   UNL     1      -6.918  14.753  19.599  0.00  0.00    +0.000 C 
ATOM     27  N   UNL     1      -7.842  15.432  19.432  0.00  0.00    +0.000 NA
ENDBRANCH  19  26
ENDBRANCH  11  16
BRANCH   1  30
ATOM     28  C   UNL     1       4.205   5.661  17.886  0.00  0.00    +0.000 C 
ATOM     29  O   UNL     1       5.043   5.758  18.769  0.00  0.00    +0.000 OA
ATOM     30  N   UNL     1       2.957   6.219  17.860  0.00  0.00    +0.000 N 
ATOM     31  H   UNL     1       2.387   5.922  17.081  0.00  0.00    +0.000 HD
BRANCH  28  32
ATOM     32  O   UNL     1       4.403   4.975  16.727  0.00  0.00    +0.000 OA
BRANCH  32  34
ATOM     33  C   UNL     1       5.692   4.642  14.731  0.00  0.00    +0.000 C 
ATOM     34  C   UNL     1       5.251   5.647  15.781  0.00  0.00    +0.000 C 
ENDBRANCH  32  34
ENDBRANCH  28  32
ENDBRANCH   1  30
TORSDOF 6
ENDMDL
MODEL 8
REMARK VINA RESULT:      -7.3      4.907     10.555
REMARK  Name = 
REMARK  7 active torsions:
REMARK  status: ('A' for Active; 'I' for Inactive)
REMARK    1  A    between atoms: C_1  and  C_2
REMARK    2  A    between atoms: C_2  and  O_3
REMARK    3  A    between atoms: O_3  and  C_4
REMARK    4  A    between atoms: N_6  and  C_7
REMARK    5  A    between atoms: N_17  and  C_18
REMARK    6  A    between atoms: C_21  and  C_22
REMARK    7  A    between atoms: C_24  and  C_25
REMARK                            x       y       z     vdW  Elec       q    Type
REMARK                         _______ _______ _______ _____ _____    ______ ____
ROOT
ATOM      1  C   UNL     1       2.117   7.148  19.152  0.00  0.00    +0.000 A 
ATOM      2  C   UNL     1       1.806   6.699  20.437  0.00  0.00    +0.000 A 
ATOM      3  C   UNL     1       1.208   7.550  21.374  0.00  0.00    +0.000 A 
ATOM      4  C   UNL     1       0.903   8.874  21.042  0.00  0.00    +0.000 A 
ATOM      5  C   UNL     1       1.268   9.345  19.763  0.00  0.00    +0.000 A 
ATOM      6  C   UNL     1       1.894   8.487  18.839  0.00  0.00    +0.000 A 
ATOM      7  C   UNL     1       0.994  10.766  19.352  0.00  0.00    +0.000 C 
ATOM      8  N   UNL     1      -0.098  11.312  20.135  0.00  0.00    +0.000 N 
ATOM      9  C   UNL     1      -1.274  11.908  19.695  0.00  0.00    +0.000 C 
ATOM     10  S   UNL     1      -1.550  12.259  18.080  0.00  0.00    +0.000 S 
ATOM     11  N   UNL     1      -2.047  12.204  20.821  0.00  0.00    +0.000 N 
ATOM     12  C   UNL     1      -1.331  11.880  21.965  0.00  0.00    +0.000 C 
ATOM     13  O   UNL     1      -1.656  12.078  23.130  0.00  0.00    +0.000 OA
ATOM     14  C   UNL     1      -0.018  11.200  21.568  0.00  0.00    +0.000 C 
ATOM     15  C   UNL     1       0.100   9.735  22.007  0.00  0.00    +0.000 C 
ENDROOT
BRANCH  11  16
ATOM     16  C   UNL     1      -3.313  12.872  20.825  0.00  0.00    +0.000 A 
ATOM     17  C   UNL     1      -3.457  14.252  20.909  0.00  0.00    +0.000 A 
ATOM     18  N   UNL     1      -4.638  14.915  20.722  0.00  0.00    +0.000 NA
ATOM     19  C   UNL     1      -5.753  14.190  20.433  0.00  0.00    +0.000 A 
ATOM     20  C   UNL     1      -5.740  12.806  20.407  0.00  0.00    +0.000 A 
ATOM     21  C   UNL     1      -4.512  12.168  20.670  0.00  0.00    +0.000 A 
BRANCH  20  22
ATOM     22  C   UNL     1      -6.919  11.948  20.066  0.00  0.00    +0.000 C 
ATOM     23  F   UNL     1      -7.491  12.188  18.862  0.00  0.00    +0.000 F 
ATOM     24  F   UNL     1      -6.588  10.626  20.056  0.00  0.00    +0.000 F 
ATOM     25  F   UNL     1      -7.916  12.067  20.986  0.00  0.00    +0.000 F 
ENDBRANCH  20  22
BRANCH  19  26
ATOM     26  C   UNL     1      -6.929  14.987  20.136  0.00  0.00    +0.000 C 
ATOM     27  N   UNL     1      -7.879  15.613  19.916  0.00  0.00    +0.000 NA
ENDBRANCH  19  26
ENDBRANCH  11  16
BRANCH   1  30
ATOM     28  C   UNL     1       3.830   5.654  18.165  0.00  0.00    +0.000 C 
ATOM     29  O   UNL     1       4.642   5.615  19.077  0.00  0.00    +0.000 OA
ATOM     30  N   UNL     1       2.637   6.318  18.143  0.00  0.00    +0.000 N 
ATOM     31  H   UNL     1       2.071   6.127  17.327  0.00  0.00    +0.000 HD
BRANCH  28  32
ATOM     32  O   UNL     1       4.011   5.036  16.966  0.00  0.00    +0.000 OA
BRANCH  32  34
ATOM     33  C   UNL     1       2.914   2.943  17.382  0.00  0.00    +0.000 C 
ATOM     34  C   UNL     1       4.235   3.619  17.060  0.00  0.00    +0.000 C 
ENDBRANCH  32  34
ENDBRANCH  28  32
ENDBRANCH   1  30
TORSDOF 6
ENDMDL
MODEL 9
REMARK VINA RESULT:      -7.2      5.149     10.378
REMARK  Name = 
REMARK  7 active torsions:
REMARK  status: ('A' for Active; 'I' for Inactive)
REMARK    1  A    between atoms: C_1  and  C_2
REMARK    2  A    between atoms: C_2  and  O_3
REMARK    3  A    between atoms: O_3  and  C_4
REMARK    4  A    between atoms: N_6  and  C_7
REMARK    5  A    between atoms: N_17  and  C_18
REMARK    6  A    between atoms: C_21  and  C_22
REMARK    7  A    between atoms: C_24  and  C_25
REMARK                            x       y       z     vdW  Elec       q    Type
REMARK                         _______ _______ _______ _____ _____    ______ ____
ROOT
ATOM      1  C   UNL     1       3.315   6.269  19.068  0.00  0.00    +0.000 A 
ATOM      2  C   UNL     1       3.584   7.130  18.004  0.00  0.00    +0.000 A 
ATOM      3  C   UNL     1       2.820   8.286  17.799  0.00  0.00    +0.000 A 
ATOM      4  C   UNL     1       1.769   8.607  18.663  0.00  0.00    +0.000 A 
ATOM      5  C   UNL     1       1.460   7.709  19.706  0.00  0.00    +0.000 A 
ATOM      6  C   UNL     1       2.217   6.536  19.884  0.00  0.00    +0.000 A 
ATOM      7  C   UNL     1       0.324   7.980  20.654  0.00  0.00    +0.000 C 
ATOM      8  N   UNL     1       0.038   9.401  20.698  0.00  0.00    +0.000 N 
ATOM      9  C   UNL     1      -0.029  10.243  21.801  0.00  0.00    +0.000 C 
ATOM     10  S   UNL     1       0.054   9.669  23.373  0.00  0.00    +0.000 S 
ATOM     11  N   UNL     1      -0.258  11.540  21.333  0.00  0.00    +0.000 N 
ATOM     12  C   UNL     1      -0.424  11.506  19.955  0.00  0.00    +0.000 C 
ATOM     13  O   UNL     1      -0.723  12.436  19.216  0.00  0.00    +0.000 OA
ATOM     14  C   UNL     1      -0.164  10.085  19.447  0.00  0.00    +0.000 C 
ATOM     15  C   UNL     1       1.060   9.948  18.533  0.00  0.00    +0.000 C 
ENDROOT
BRANCH  11  16
ATOM     16  C   UNL     1      -0.447  12.709  22.138  0.00  0.00    +0.000 A 
ATOM     17  C   UNL     1       0.352  13.844  22.049  0.00  0.00    +0.000 A 
ATOM     18  N   UNL     1       0.072  15.031  22.666  0.00  0.00    +0.000 NA
ATOM     19  C   UNL     1      -1.059  15.124  23.418  0.00  0.00    +0.000 A 
ATOM     20  C   UNL     1      -1.881  14.033  23.641  0.00  0.00    +0.000 A 
ATOM     21  C   UNL     1      -1.514  12.815  23.036  0.00  0.00    +0.000 A 
BRANCH  20  22
ATOM     22  C   UNL     1      -3.153  14.070  24.431  0.00  0.00    +0.000 C 
ATOM     23  F   UNL     1      -3.047  14.552  25.692  0.00  0.00    +0.000 F 
ATOM     24  F   UNL     1      -4.096  14.843  23.821  0.00  0.00    +0.000 F 
ATOM     25  F   UNL     1      -3.714  12.834  24.547  0.00  0.00    +0.000 F 
ENDBRANCH  20  22
BRANCH  19  26
ATOM     26  C   UNL     1      -1.331  16.452  23.935  0.00  0.00    +0.000 C 
ATOM     27  N   UNL     1      -1.568  17.506  24.354  0.00  0.00    +0.000 NA
ENDBRANCH  19  26
ENDBRANCH  11  16
BRANCH   1  30
ATOM     28  C   UNL     1       4.676   4.281  18.485  0.00  0.00    +0.000 C 
ATOM     29  O   UNL     1       4.662   4.354  17.266  0.00  0.00    +0.000 OA
ATOM     30  N   UNL     1       4.099   5.143  19.375  0.00  0.00    +0.000 N 
ATOM     31  H   UNL     1       4.326   4.953  20.342  0.00  0.00    +0.000 HD
BRANCH  28  32
ATOM     32  O   UNL     1       5.272   3.271  19.175  0.00  0.00    +0.000 OA
BRANCH  32  34
ATOM     33  C   UNL     1       3.610   1.594  18.749  0.00  0.00    +0.000 C 
ATOM     34  C   UNL     1       4.353   2.374  19.820  0.00  0.00    +0.000 C 
ENDBRANCH  32  34
ENDBRANCH  28  32
ENDBRANCH   1  30
TORSDOF 6
ENDMDL
