MODEL 1
REMARK VINA RESULT:      -7.3      0.000      0.000
REMARK  Name = 
REMARK  16 active torsions:
REMARK  status: ('A' for Active; 'I' for Inactive)
REMARK    1  A    between atoms: C_1  and  C_2
REMARK    2  A    between atoms: C_2  and  C_3
REMARK    3  A    between atoms: C_3  and  C_4
REMARK    4  A    between atoms: C_4  and  C_5
REMARK    5  A    between atoms: C_5  and  C_6
REMARK    6  A    between atoms: C_6  and  C_7
REMARK    7  A    between atoms: C_7  and  C_8
REMARK    8  A    between atoms: C_8  and  N_9
REMARK    9  A    between atoms: N_9  and  C_10
REMARK   10  A    between atoms: N_9  and  C_11
REMARK   11  A    between atoms: N_9  and  C_12
REMARK   12  A    between atoms: C_12  and  C_13
REMARK   13  A    between atoms: N_15  and  C_16
REMARK   14  A    between atoms: C_19  and  C_20
REMARK   15  A    between atoms: C_20  and  C_22
REMARK   16  A    between atoms: C_23  and  C_24
REMARK                            x       y       z     vdW  Elec       q    Type
REMARK                         _______ _______ _______ _____ _____    ______ ____
ROOT
ATOM      1  C   UNL     1       2.146   4.507  20.073  0.00  0.00    +0.000 C 
ATOM      2  O   UNL     1       1.217   4.390  19.278  0.00  0.00    +0.000 OA
ATOM      3  N   UNL     1       2.676   5.716  20.479  0.00  0.00    +0.000 N 
ATOM      4  H   UNL     1       3.636   5.717  20.799  0.00  0.00    +0.000 HD
ENDROOT
BRANCH   3   5
ATOM      5  C   UNL     1       2.117   6.944  20.053  0.00  0.00    +0.000 A 
ATOM      6  C   UNL     1       2.385   7.460  18.782  0.00  0.00    +0.000 A 
ATOM      7  C   UNL     1       1.923   8.722  18.417  0.00  0.00    +0.000 A 
ATOM      8  C   UNL     1       1.183   9.489  19.321  0.00  0.00    +0.000 A 
ATOM      9  C   UNL     1       0.873   8.953  20.579  0.00  0.00    +0.000 A 
ATOM     10  C   UNL     1       1.318   7.674  20.937  0.00  0.00    +0.000 A 
BRANCH   8  11
ATOM     11  C   UNL     1       0.737  10.839  18.881  0.00  0.00    +0.000 C 
ATOM     12  O   UNL     1       1.562  11.653  18.477  0.00  0.00    +0.000 OA
BRANCH  11  13
ATOM     13  C   UNL     1      -0.717  11.173  18.993  0.00  0.00    +0.000 C 
ATOM     14  C   UNL     1      -1.477  11.159  17.888  0.00  0.00    +0.000 C 
BRANCH  14  15
ATOM     15  C   UNL     1      -2.895  11.499  17.957  0.00  0.00    +0.000 A 
ATOM     16  C   UNL     1      -3.467  11.955  19.144  0.00  0.00    +0.000 A 
ATOM     17  C   UNL     1      -4.831  12.239  19.184  0.00  0.00    +0.000 A 
ATOM     18  C   UNL     1      -5.580  12.048  18.033  0.00  0.00    +0.000 A 
ATOM     19  N   UNL     1      -5.061  11.605  16.867  0.00  0.00    +0.000 NA
ATOM     20  C   UNL     1      -3.729  11.351  16.854  0.00  0.00    +0.000 A 
ENDBRANCH  14  15
ENDBRANCH  11  13
ENDBRANCH   8  11
ENDBRANCH   3   5
BRANCH   1  21
ATOM     21  C   UNL     1       2.871   3.266  20.609  0.00  0.00    +0.000 C 
BRANCH  21  22
ATOM     22  N   UNL     1       3.866   2.597  19.590  0.00  0.00    +0.000 N 
ATOM     23  C   UNL     1       3.068   1.686  18.667  0.00  0.00    +0.000 C 
ATOM     24  C   UNL     1       4.902   1.770  20.365  0.00  0.00    +0.000 C 
BRANCH  22  25
ATOM     25  C   UNL     1       4.571   3.721  18.806  0.00  0.00    +0.000 C 
BRANCH  25  26
ATOM     26  C   UNL     1       4.396   3.569  17.292  0.00  0.00    +0.000 C 
BRANCH  26  27
ATOM     27  C   UNL     1       5.242   4.542  16.478  0.00  0.00    +0.000 C 
BRANCH  27  28
ATOM     28  C   UNL     1       4.703   5.959  16.692  0.00  0.00    +0.000 C 
BRANCH  28  29
ATOM     29  C   UNL     1       5.823   6.981  16.810  0.00  0.00    +0.000 C 
BRANCH  29  30
ATOM     30  C   UNL     1       7.168   6.289  17.022  0.00  0.00    +0.000 C 
BRANCH  30  32
ATOM     31  C   UNL     1       7.802   5.676  19.377  0.00  0.00    +0.000 C 
ATOM     32  C   UNL     1       7.821   6.763  18.317  0.00  0.00    +0.000 C 
ENDBRANCH  30  32
ENDBRANCH  29  30
ENDBRANCH  28  29
ENDBRANCH  27  28
ENDBRANCH  26  27
ENDBRANCH  25  26
ENDBRANCH  22  25
ENDBRANCH  21  22
ENDBRANCH   1  21
TORSDOF 13
ENDMDL
MODEL 2
REMARK VINA RESULT:      -6.8      1.029      1.779
REMARK  Name = 
REMARK  16 active torsions:
REMARK  status: ('A' for Active; 'I' for Inactive)
REMARK    1  A    between atoms: C_1  and  C_2
REMARK    2  A    between atoms: C_2  and  C_3
REMARK    3  A    between atoms: C_3  and  C_4
REMARK    4  A    between atoms: C_4  and  C_5
REMARK    5  A    between atoms: C_5  and  C_6
REMARK    6  A    between atoms: C_6  and  C_7
REMARK    7  A    between atoms: C_7  and  C_8
REMARK    8  A    between atoms: C_8  and  N_9
REMARK    9  A    between atoms: N_9  and  C_10
REMARK   10  A    between atoms: N_9  and  C_11
REMARK   11  A    between atoms: N_9  and  C_12
REMARK   12  A    between atoms: C_12  and  C_13
REMARK   13  A    between atoms: N_15  and  C_16
REMARK   14  A    between atoms: C_19  and  C_20
REMARK   15  A    between atoms: C_20  and  C_22
REMARK   16  A    between atoms: C_23  and  C_24
REMARK                            x       y       z     vdW  Elec       q    Type
REMARK                         _______ _______ _______ _____ _____    ______ ____
ROOT
ATOM      1  C   UNL     1       1.954   4.892  20.095  0.00  0.00    +0.000 C 
ATOM      2  O   UNL     1       1.062   4.803  19.255  0.00  0.00    +0.000 OA
ATOM      3  N   UNL     1       2.500   6.086  20.526  0.00  0.00    +0.000 N 
ATOM      4  H   UNL     1       3.443   6.057  20.893  0.00  0.00    +0.000 HD
ENDROOT
BRANCH   3   5
ATOM      5  C   UNL     1       2.001   7.329  20.072  0.00  0.00    +0.000 A 
ATOM      6  C   UNL     1       2.284   7.797  18.786  0.00  0.00    +0.000 A 
ATOM      7  C   UNL     1       1.884   9.071  18.391  0.00  0.00    +0.000 A 
ATOM      8  C   UNL     1       1.194   9.900  19.281  0.00  0.00    +0.000 A 
ATOM      9  C   UNL     1       0.868   9.414  20.554  0.00  0.00    +0.000 A 
ATOM     10  C   UNL     1       1.249   8.122  20.942  0.00  0.00    +0.000 A 
BRANCH   8  11
ATOM     11  C   UNL     1       0.814  11.259  18.808  0.00  0.00    +0.000 C 
ATOM     12  O   UNL     1       1.684  12.044  18.447  0.00  0.00    +0.000 OA
BRANCH  11  13
ATOM     13  C   UNL     1      -0.634  11.637  18.837  0.00  0.00    +0.000 C 
ATOM     14  C   UNL     1      -1.483  11.031  17.995  0.00  0.00    +0.000 C 
BRANCH  14  15
ATOM     15  C   UNL     1      -2.898  11.389  17.980  0.00  0.00    +0.000 A 
ATOM     16  C   UNL     1      -3.521  11.901  19.119  0.00  0.00    +0.000 A 
ATOM     17  C   UNL     1      -4.881  12.201  19.081  0.00  0.00    +0.000 A 
ATOM     18  C   UNL     1      -5.577  11.969  17.905  0.00  0.00    +0.000 A 
ATOM     19  N   UNL     1      -5.009  11.471  16.784  0.00  0.00    +0.000 NA
ATOM     20  C   UNL     1      -3.681  11.202  16.846  0.00  0.00    +0.000 A 
ENDBRANCH  14  15
ENDBRANCH  11  13
ENDBRANCH   8  11
ENDBRANCH   3   5
BRANCH   1  21
ATOM     21  C   UNL     1       2.612   3.631  20.666  0.00  0.00    +0.000 C 
BRANCH  21  22
ATOM     22  N   UNL     1       3.463   2.808  19.630  0.00  0.00    +0.000 N 
ATOM     23  C   UNL     1       2.543   1.807  18.943  0.00  0.00    +0.000 C 
ATOM     24  C   UNL     1       4.579   2.060  20.373  0.00  0.00    +0.000 C 
BRANCH  22  25
ATOM     25  C   UNL     1       4.074   3.800  18.621  0.00  0.00    +0.000 C 
BRANCH  25  26
ATOM     26  C   UNL     1       5.342   4.467  19.161  0.00  0.00    +0.000 C 
BRANCH  26  27
ATOM     27  C   UNL     1       5.856   5.604  18.284  0.00  0.00    +0.000 C 
BRANCH  27  28
ATOM     28  C   UNL     1       7.340   5.367  17.992  0.00  0.00    +0.000 C 
BRANCH  28  29
ATOM     29  C   UNL     1       7.545   4.493  16.764  0.00  0.00    +0.000 C 
BRANCH  29  30
ATOM     30  C   UNL     1       6.328   4.558  15.843  0.00  0.00    +0.000 C 
BRANCH  30  32
ATOM     31  C   UNL     1       6.224   3.777  13.455  0.00  0.00    +0.000 C 
ATOM     32  C   UNL     1       6.753   4.837  14.405  0.00  0.00    +0.000 C 
ENDBRANCH  30  32
ENDBRANCH  29  30
ENDBRANCH  28  29
ENDBRANCH  27  28
ENDBRANCH  26  27
ENDBRANCH  25  26
ENDBRANCH  22  25
ENDBRANCH  21  22
ENDBRANCH   1  21
TORSDOF 13
ENDMDL
MODEL 3
REMARK VINA RESULT:      -6.7      2.941      4.187
REMARK  Name = 
REMARK  16 active torsions:
REMARK  status: ('A' for Active; 'I' for Inactive)
REMARK    1  A    between atoms: C_1  and  C_2
REMARK    2  A    between atoms: C_2  and  C_3
REMARK    3  A    between atoms: C_3  and  C_4
REMARK    4  A    between atoms: C_4  and  C_5
REMARK    5  A    between atoms: C_5  and  C_6
REMARK    6  A    between atoms: C_6  and  C_7
REMARK    7  A    between atoms: C_7  and  C_8
REMARK    8  A    between atoms: C_8  and  N_9
REMARK    9  A    between atoms: N_9  and  C_10
REMARK   10  A    between atoms: N_9  and  C_11
REMARK   11  A    between atoms: N_9  and  C_12
REMARK   12  A    between atoms: C_12  and  C_13
REMARK   13  A    between atoms: N_15  and  C_16
REMARK   14  A    between atoms: C_19  and  C_20
REMARK   15  A    between atoms: C_20  and  C_22
REMARK   16  A    between atoms: C_23  and  C_24
REMARK                            x       y       z     vdW  Elec       q    Type
REMARK                         _______ _______ _______ _____ _____    ______ ____
ROOT
ATOM      1  C   UNL     1       1.851   5.076  20.501  0.00  0.00    +0.000 C 
ATOM      2  O   UNL     1       0.642   5.041  20.285  0.00  0.00    +0.000 OA
ATOM      3  N   UNL     1       2.623   6.219  20.424  0.00  0.00    +0.000 N 
ATOM      4  H   UNL     1       3.609   6.099  20.231  0.00  0.00    +0.000 HD
ENDROOT
BRANCH   3   5
ATOM      5  C   UNL     1       2.042   7.481  20.158  0.00  0.00    +0.000 A 
ATOM      6  C   UNL     1       1.330   8.172  21.143  0.00  0.00    +0.000 A 
ATOM      7  C   UNL     1       0.667   9.358  20.837  0.00  0.00    +0.000 A 
ATOM      8  C   UNL     1       0.705   9.871  19.538  0.00  0.00    +0.000 A 
ATOM      9  C   UNL     1       1.458   9.205  18.561  0.00  0.00    +0.000 A 
ATOM     10  C   UNL     1       2.145   8.024  18.875  0.00  0.00    +0.000 A 
BRANCH   8  11
ATOM     11  C   UNL     1      -0.042  11.130  19.268  0.00  0.00    +0.000 C 
ATOM     12  O   UNL     1      -1.240  11.195  19.525  0.00  0.00    +0.000 OA
BRANCH  11  13
ATOM     13  C   UNL     1       0.697  12.269  18.641  0.00  0.00    +0.000 C 
ATOM     14  C   UNL     1       0.907  13.383  19.357  0.00  0.00    +0.000 C 
BRANCH  14  15
ATOM     15  C   UNL     1       1.607  14.523  18.772  0.00  0.00    +0.000 A 
ATOM     16  C   UNL     1       2.802  14.350  18.074  0.00  0.00    +0.000 A 
ATOM     17  C   UNL     1       3.462  15.463  17.557  0.00  0.00    +0.000 A 
ATOM     18  C   UNL     1       2.907  16.717  17.764  0.00  0.00    +0.000 A 
ATOM     19  N   UNL     1       1.753  16.923  18.437  0.00  0.00    +0.000 NA
ATOM     20  C   UNL     1       1.126  15.820  18.916  0.00  0.00    +0.000 A 
ENDBRANCH  14  15
ENDBRANCH  11  13
ENDBRANCH   8  11
ENDBRANCH   3   5
BRANCH   1  21
ATOM     21  C   UNL     1       2.627   3.784  20.782  0.00  0.00    +0.000 C 
BRANCH  21  22
ATOM     22  N   UNL     1       3.050   2.979  19.497  0.00  0.00    +0.000 N 
ATOM     23  C   UNL     1       1.923   2.019  19.141  0.00  0.00    +0.000 C 
ATOM     24  C   UNL     1       4.330   2.187  19.796  0.00  0.00    +0.000 C 
BRANCH  22  25
ATOM     25  C   UNL     1       3.309   3.993  18.366  0.00  0.00    +0.000 C 
BRANCH  25  26
ATOM     26  C   UNL     1       4.794   4.340  18.229  0.00  0.00    +0.000 C 
BRANCH  26  27
ATOM     27  C   UNL     1       5.047   5.756  17.722  0.00  0.00    +0.000 C 
BRANCH  27  28
ATOM     28  C   UNL     1       5.141   5.721  16.194  0.00  0.00    +0.000 C 
BRANCH  28  29
ATOM     29  C   UNL     1       6.519   5.284  15.719  0.00  0.00    +0.000 C 
BRANCH  29  30
ATOM     30  C   UNL     1       6.443   3.935  15.006  0.00  0.00    +0.000 C 
BRANCH  30  32
ATOM     31  C   UNL     1       6.264   3.544  12.528  0.00  0.00    +0.000 C 
ATOM     32  C   UNL     1       5.544   4.025  13.776  0.00  0.00    +0.000 C 
ENDBRANCH  30  32
ENDBRANCH  29  30
ENDBRANCH  28  29
ENDBRANCH  27  28
ENDBRANCH  26  27
ENDBRANCH  25  26
ENDBRANCH  22  25
ENDBRANCH  21  22
ENDBRANCH   1  21
TORSDOF 13
ENDMDL
MODEL 4
REMARK VINA RESULT:      -6.7      0.963      1.977
REMARK  Name = 
REMARK  16 active torsions:
REMARK  status: ('A' for Active; 'I' for Inactive)
REMARK    1  A    between atoms: C_1  and  C_2
REMARK    2  A    between atoms: C_2  and  C_3
REMARK    3  A    between atoms: C_3  and  C_4
REMARK    4  A    between atoms: C_4  and  C_5
REMARK    5  A    between atoms: C_5  and  C_6
REMARK    6  A    between atoms: C_6  and  C_7
REMARK    7  A    between atoms: C_7  and  C_8
REMARK    8  A    between atoms: C_8  and  N_9
REMARK    9  A    between atoms: N_9  and  C_10
REMARK   10  A    between atoms: N_9  and  C_11
REMARK   11  A    between atoms: N_9  and  C_12
REMARK   12  A    between atoms: C_12  and  C_13
REMARK   13  A    between atoms: N_15  and  C_16
REMARK   14  A    between atoms: C_19  and  C_20
REMARK   15  A    between atoms: C_20  and  C_22
REMARK   16  A    between atoms: C_23  and  C_24
REMARK                            x       y       z     vdW  Elec       q    Type
REMARK                         _______ _______ _______ _____ _____    ______ ____
ROOT
ATOM      1  C   UNL     1       1.914   4.459  19.249  0.00  0.00    +0.000 C 
ATOM      2  O   UNL     1       1.248   4.642  18.233  0.00  0.00    +0.000 OA
ATOM      3  N   UNL     1       2.442   5.472  20.026  0.00  0.00    +0.000 N 
ATOM      4  H   UNL     1       3.261   5.252  20.578  0.00  0.00    +0.000 HD
ENDROOT
BRANCH   3   5
ATOM      5  C   UNL     1       2.178   6.832  19.741  0.00  0.00    +0.000 A 
ATOM      6  C   UNL     1       1.500   7.645  20.654  0.00  0.00    +0.000 A 
ATOM      7  C   UNL     1       1.146   8.948  20.316  0.00  0.00    +0.000 A 
ATOM      8  C   UNL     1       1.463   9.459  19.053  0.00  0.00    +0.000 A 
ATOM      9  C   UNL     1       2.184   8.661  18.155  0.00  0.00    +0.000 A 
ATOM     10  C   UNL     1       2.562   7.358  18.505  0.00  0.00    +0.000 A 
BRANCH   8  11
ATOM     11  C   UNL     1       1.037  10.851  18.742  0.00  0.00    +0.000 C 
ATOM     12  O   UNL     1       1.863  11.667  18.346  0.00  0.00    +0.000 OA
BRANCH  11  13
ATOM     13  C   UNL     1      -0.395  11.219  18.972  0.00  0.00    +0.000 C 
ATOM     14  C   UNL     1      -1.325  10.791  18.107  0.00  0.00    +0.000 C 
BRANCH  14  15
ATOM     15  C   UNL     1      -2.729  11.148  18.289  0.00  0.00    +0.000 A 
ATOM     16  C   UNL     1      -3.717  10.624  17.454  0.00  0.00    +0.000 A 
ATOM     17  C   UNL     1      -5.043  11.011  17.634  0.00  0.00    +0.000 A 
ATOM     18  C   UNL     1      -5.337  11.920  18.638  0.00  0.00    +0.000 A 
ATOM     19  N   UNL     1      -4.407  12.451  19.463  0.00  0.00    +0.000 NA
ATOM     20  C   UNL     1      -3.128  12.045  19.274  0.00  0.00    +0.000 A 
ENDBRANCH  14  15
ENDBRANCH  11  13
ENDBRANCH   8  11
ENDBRANCH   3   5
BRANCH   1  21
ATOM     21  C   UNL     1       2.302   3.039  19.678  0.00  0.00    +0.000 C 
BRANCH  21  22
ATOM     22  N   UNL     1       3.703   2.554  19.150  0.00  0.00    +0.000 N 
ATOM     23  C   UNL     1       3.476   1.403  18.178  0.00  0.00    +0.000 C 
ATOM     24  C   UNL     1       4.550   2.071  20.336  0.00  0.00    +0.000 C 
BRANCH  22  25
ATOM     25  C   UNL     1       4.392   3.749  18.462  0.00  0.00    +0.000 C 
BRANCH  25  26
ATOM     26  C   UNL     1       5.729   4.102  19.118  0.00  0.00    +0.000 C 
BRANCH  26  27
ATOM     27  C   UNL     1       5.982   5.602  19.222  0.00  0.00    +0.000 C 
BRANCH  27  28
ATOM     28  C   UNL     1       7.325   5.921  18.560  0.00  0.00    +0.000 C 
BRANCH  28  29
ATOM     29  C   UNL     1       7.151   6.717  17.276  0.00  0.00    +0.000 C 
BRANCH  29  30
ATOM     30  C   UNL     1       7.144   5.790  16.061  0.00  0.00    +0.000 C 
BRANCH  30  32
ATOM     31  C   UNL     1       5.517   4.173  15.030  0.00  0.00    +0.000 C 
ATOM     32  C   UNL     1       5.722   5.586  15.546  0.00  0.00    +0.000 C 
ENDBRANCH  30  32
ENDBRANCH  29  30
ENDBRANCH  28  29
ENDBRANCH  27  28
ENDBRANCH  26  27
ENDBRANCH  25  26
ENDBRANCH  22  25
ENDBRANCH  21  22
ENDBRANCH   1  21
TORSDOF 13
ENDMDL
MODEL 5
REMARK VINA RESULT:      -6.7      2.898      4.050
REMARK  Name = 
REMARK  16 active torsions:
REMARK  status: ('A' for Active; 'I' for Inactive)
REMARK    1  A    between atoms: C_1  and  C_2
REMARK    2  A    between atoms: C_2  and  C_3
REMARK    3  A    between atoms: C_3  and  C_4
REMARK    4  A    between atoms: C_4  and  C_5
REMARK    5  A    between atoms: C_5  and  C_6
REMARK    6  A    between atoms: C_6  and  C_7
REMARK    7  A    between atoms: C_7  and  C_8
REMARK    8  A    between atoms: C_8  and  N_9
REMARK    9  A    between atoms: N_9  and  C_10
REMARK   10  A    between atoms: N_9  and  C_11
REMARK   11  A    between atoms: N_9  and  C_12
REMARK   12  A    between atoms: C_12  and  C_13
REMARK   13  A    between atoms: N_15  and  C_16
REMARK   14  A    between atoms: C_19  and  C_20
REMARK   15  A    between atoms: C_20  and  C_22
REMARK   16  A    between atoms: C_23  and  C_24
REMARK                            x       y       z     vdW  Elec       q    Type
REMARK                         _______ _______ _______ _____ _____    ______ ____
ROOT
ATOM      1  C   UNL     1       2.178   4.494  19.720  0.00  0.00    +0.000 C 
ATOM      2  O   UNL     1       1.418   4.512  18.755  0.00  0.00    +0.000 OA
ATOM      3  N   UNL     1       2.688   5.623  20.331  0.00  0.00    +0.000 N 
ATOM      4  H   UNL     1       3.565   5.526  20.826  0.00  0.00    +0.000 HD
ENDROOT
BRANCH   3   5
ATOM      5  C   UNL     1       2.295   6.919  19.924  0.00  0.00    +0.000 A 
ATOM      6  C   UNL     1       1.504   7.728  20.746  0.00  0.00    +0.000 A 
ATOM      7  C   UNL     1       1.029   8.955  20.288  0.00  0.00    +0.000 A 
ATOM      8  C   UNL     1       1.337   9.392  18.997  0.00  0.00    +0.000 A 
ATOM      9  C   UNL     1       2.168   8.604  18.189  0.00  0.00    +0.000 A 
ATOM     10  C   UNL     1       2.667   7.381  18.659  0.00  0.00    +0.000 A 
BRANCH   8  11
ATOM     11  C   UNL     1       0.781  10.700  18.557  0.00  0.00    +0.000 C 
ATOM     12  O   UNL     1      -0.399  10.782  18.231  0.00  0.00    +0.000 OA
BRANCH  11  13
ATOM     13  C   UNL     1       1.707  11.872  18.485  0.00  0.00    +0.000 C 
ATOM     14  C   UNL     1       1.546  12.885  19.348  0.00  0.00    +0.000 C 
BRANCH  14  15
ATOM     15  C   UNL     1       2.418  14.055  19.294  0.00  0.00    +0.000 A 
ATOM     16  C   UNL     1       2.243  15.036  18.318  0.00  0.00    +0.000 A 
ATOM     17  C   UNL     1       3.114  16.123  18.273  0.00  0.00    +0.000 A 
ATOM     18  C   UNL     1       4.141  16.186  19.203  0.00  0.00    +0.000 A 
ATOM     19  N   UNL     1       4.343  15.253  20.160  0.00  0.00    +0.000 NA
ATOM     20  C   UNL     1       3.471  14.216  20.188  0.00  0.00    +0.000 A 
ENDBRANCH  14  15
ENDBRANCH  11  13
ENDBRANCH   8  11
ENDBRANCH   3   5
BRANCH   1  21
ATOM     21  C   UNL     1       2.711   3.163  20.264  0.00  0.00    +0.000 C 
BRANCH  21  22
ATOM     22  N   UNL     1       3.943   2.579  19.478  0.00  0.00    +0.000 N 
ATOM     23  C   UNL     1       3.420   1.700  18.350  0.00  0.00    +0.000 C 
ATOM     24  C   UNL     1       4.799   1.737  20.436  0.00  0.00    +0.000 C 
BRANCH  22  25
ATOM     25  C   UNL     1       4.767   3.764  18.938  0.00  0.00    +0.000 C 
BRANCH  25  26
ATOM     26  C   UNL     1       4.874   3.747  17.411  0.00  0.00    +0.000 C 
BRANCH  26  27
ATOM     27  C   UNL     1       4.203   4.939  16.737  0.00  0.00    +0.000 C 
BRANCH  27  28
ATOM     28  C   UNL     1       5.239   5.660  15.869  0.00  0.00    +0.000 C 
BRANCH  28  29
ATOM     29  C   UNL     1       5.918   6.795  16.620  0.00  0.00    +0.000 C 
BRANCH  29  30
ATOM     30  C   UNL     1       7.353   6.419  16.987  0.00  0.00    +0.000 C 
BRANCH  30  32
ATOM     31  C   UNL     1       7.905   5.562  19.286  0.00  0.00    +0.000 C 
ATOM     32  C   UNL     1       7.656   6.795  18.434  0.00  0.00    +0.000 C 
ENDBRANCH  30  32
ENDBRANCH  29  30
ENDBRANCH  28  29
ENDBRANCH  27  28
ENDBRANCH  26  27
ENDBRANCH  25  26
ENDBRANCH  22  25
ENDBRANCH  21  22
ENDBRANCH   1  21
TORSDOF 13
ENDMDL
MODEL 6
REMARK VINA RESULT:      -6.7      2.350      2.780
REMARK  Name = 
REMARK  16 active torsions:
REMARK  status: ('A' for Active; 'I' for Inactive)
REMARK    1  A    between atoms: C_1  and  C_2
REMARK    2  A    between atoms: C_2  and  C_3
REMARK    3  A    between atoms: C_3  and  C_4
REMARK    4  A    between atoms: C_4  and  C_5
REMARK    5  A    between atoms: C_5  and  C_6
REMARK    6  A    between atoms: C_6  and  C_7
REMARK    7  A    between atoms: C_7  and  C_8
REMARK    8  A    between atoms: C_8  and  N_9
REMARK    9  A    between atoms: N_9  and  C_10
REMARK   10  A    between atoms: N_9  and  C_11
REMARK   11  A    between atoms: N_9  and  C_12
REMARK   12  A    between atoms: C_12  and  C_13
REMARK   13  A    between atoms: N_15  and  C_16
REMARK   14  A    between atoms: C_19  and  C_20
REMARK   15  A    between atoms: C_20  and  C_22
REMARK   16  A    between atoms: C_23  and  C_24
REMARK                            x       y       z     vdW  Elec       q    Type
REMARK                         _______ _______ _______ _____ _____    ______ ____
ROOT
ATOM      1  C   UNL     1       2.119   5.372  20.216  0.00  0.00    +0.000 C 
ATOM      2  O   UNL     1       0.930   5.192  20.471  0.00  0.00    +0.000 OA
ATOM      3  N   UNL     1       2.681   6.607  19.960  0.00  0.00    +0.000 N 
ATOM      4  H   UNL     1       3.523   6.624  19.399  0.00  0.00    +0.000 HD
ENDROOT
BRANCH   3   5
ATOM      5  C   UNL     1       1.920   7.795  20.052  0.00  0.00    +0.000 A 
ATOM      6  C   UNL     1       1.701   8.605  18.934  0.00  0.00    +0.000 A 
ATOM      7  C   UNL     1       1.048   9.828  19.060  0.00  0.00    +0.000 A 
ATOM      8  C   UNL     1       0.605  10.263  20.313  0.00  0.00    +0.000 A 
ATOM      9  C   UNL     1       0.782   9.432  21.427  0.00  0.00    +0.000 A 
ATOM     10  C   UNL     1       1.417   8.190  21.295  0.00  0.00    +0.000 A 
BRANCH   8  11
ATOM     11  C   UNL     1      -0.065  11.590  20.388  0.00  0.00    +0.000 C 
ATOM     12  O   UNL     1       0.271  12.487  19.621  0.00  0.00    +0.000 OA
BRANCH  11  13
ATOM     13  C   UNL     1      -1.105  11.797  21.442  0.00  0.00    +0.000 C 
ATOM     14  C   UNL     1      -2.281  12.343  21.100  0.00  0.00    +0.000 C 
BRANCH  14  15
ATOM     15  C   UNL     1      -3.313  12.579  22.106  0.00  0.00    +0.000 A 
ATOM     16  C   UNL     1      -3.088  12.277  23.449  0.00  0.00    +0.000 A 
ATOM     17  C   UNL     1      -4.105  12.483  24.379  0.00  0.00    +0.000 A 
ATOM     18  C   UNL     1      -5.321  12.975  23.930  0.00  0.00    +0.000 A 
ATOM     19  N   UNL     1      -5.577  13.275  22.637  0.00  0.00    +0.000 NA
ATOM     20  C   UNL     1      -4.563  13.079  21.758  0.00  0.00    +0.000 A 
ENDBRANCH  14  15
ENDBRANCH  11  13
ENDBRANCH   8  11
ENDBRANCH   3   5
BRANCH   1  21
ATOM     21  C   UNL     1       3.069   4.179  20.061  0.00  0.00    +0.000 C 
BRANCH  21  22
ATOM     22  N   UNL     1       2.632   3.130  18.972  0.00  0.00    +0.000 N 
ATOM     23  C   UNL     1       1.252   2.602  19.341  0.00  0.00    +0.000 C 
ATOM     24  C   UNL     1       3.641   1.973  18.952  0.00  0.00    +0.000 C 
BRANCH  22  25
ATOM     25  C   UNL     1       2.620   3.841  17.605  0.00  0.00    +0.000 C 
BRANCH  25  26
ATOM     26  C   UNL     1       3.907   4.632  17.352  0.00  0.00    +0.000 C 
BRANCH  26  27
ATOM     27  C   UNL     1       4.949   3.863  16.547  0.00  0.00    +0.000 C 
BRANCH  27  28
ATOM     28  C   UNL     1       5.557   4.804  15.504  0.00  0.00    +0.000 C 
BRANCH  28  29
ATOM     29  C   UNL     1       6.972   5.223  15.873  0.00  0.00    +0.000 C 
BRANCH  29  30
ATOM     30  C   UNL     1       7.407   4.566  17.182  0.00  0.00    +0.000 C 
BRANCH  30  32
ATOM     31  C   UNL     1       7.464   7.021  17.726  0.00  0.00    +0.000 C 
ATOM     32  C   UNL     1       7.574   5.611  18.281  0.00  0.00    +0.000 C 
ENDBRANCH  30  32
ENDBRANCH  29  30
ENDBRANCH  28  29
ENDBRANCH  27  28
ENDBRANCH  26  27
ENDBRANCH  25  26
ENDBRANCH  22  25
ENDBRANCH  21  22
ENDBRANCH   1  21
TORSDOF 13
ENDMDL
MODEL 7
REMARK VINA RESULT:      -6.6      2.336      3.381
REMARK  Name = 
REMARK  16 active torsions:
REMARK  status: ('A' for Active; 'I' for Inactive)
REMARK    1  A    between atoms: C_1  and  C_2
REMARK    2  A    between atoms: C_2  and  C_3
REMARK    3  A    between atoms: C_3  and  C_4
REMARK    4  A    between atoms: C_4  and  C_5
REMARK    5  A    between atoms: C_5  and  C_6
REMARK    6  A    between atoms: C_6  and  C_7
REMARK    7  A    between atoms: C_7  and  C_8
REMARK    8  A    between atoms: C_8  and  N_9
REMARK    9  A    between atoms: N_9  and  C_10
REMARK   10  A    between atoms: N_9  and  C_11
REMARK   11  A    between atoms: N_9  and  C_12
REMARK   12  A    between atoms: C_12  and  C_13
REMARK   13  A    between atoms: N_15  and  C_16
REMARK   14  A    between atoms: C_19  and  C_20
REMARK   15  A    between atoms: C_20  and  C_22
REMARK   16  A    between atoms: C_23  and  C_24
REMARK                            x       y       z     vdW  Elec       q    Type
REMARK                         _______ _______ _______ _____ _____    ______ ____
ROOT
ATOM      1  C   UNL     1       3.636   4.953  17.618  0.00  0.00    +0.000 C 
ATOM      2  O   UNL     1       2.471   4.607  17.434  0.00  0.00    +0.000 OA
ATOM      3  N   UNL     1       4.012   6.187  18.110  0.00  0.00    +0.000 N 
ATOM      4  H   UNL     1       4.936   6.520  17.867  0.00  0.00    +0.000 HD
ENDROOT
BRANCH   3   5
ATOM      5  C   UNL     1       3.051   7.138  18.524  0.00  0.00    +0.000 A 
ATOM      6  C   UNL     1       2.694   8.211  17.702  0.00  0.00    +0.000 A 
ATOM      7  C   UNL     1       1.833   9.203  18.165  0.00  0.00    +0.000 A 
ATOM      8  C   UNL     1       1.315   9.137  19.462  0.00  0.00    +0.000 A 
ATOM      9  C   UNL     1       1.635   8.037  20.270  0.00  0.00    +0.000 A 
ATOM     10  C   UNL     1       2.482   7.027  19.795  0.00  0.00    +0.000 A 
BRANCH   8  11
ATOM     11  C   UNL     1       0.419  10.239  19.907  0.00  0.00    +0.000 C 
ATOM     12  O   UNL     1       0.487  10.652  21.060  0.00  0.00    +0.000 OA
BRANCH  11  13
ATOM     13  C   UNL     1      -0.577  10.777  18.929  0.00  0.00    +0.000 C 
ATOM     14  C   UNL     1      -1.592   9.995  18.535  0.00  0.00    +0.000 C 
BRANCH  14  15
ATOM     15  C   UNL     1      -2.571  10.479  17.567  0.00  0.00    +0.000 A 
ATOM     16  C   UNL     1      -3.696  11.194  17.979  0.00  0.00    +0.000 A 
ATOM     17  C   UNL     1      -4.629  11.613  17.033  0.00  0.00    +0.000 A 
ATOM     18  C   UNL     1      -4.409  11.293  15.702  0.00  0.00    +0.000 A 
ATOM     19  N   UNL     1      -3.334  10.600  15.266  0.00  0.00    +0.000 NA
ATOM     20  C   UNL     1      -2.437  10.218  16.207  0.00  0.00    +0.000 A 
ENDBRANCH  14  15
ENDBRANCH  11  13
ENDBRANCH   8  11
ENDBRANCH   3   5
BRANCH   1  21
ATOM     21  C   UNL     1       4.792   4.037  17.200  0.00  0.00    +0.000 C 
BRANCH  21  22
ATOM     22  N   UNL     1       5.825   4.695  16.211  0.00  0.00    +0.000 N 
ATOM     23  C   UNL     1       5.197   5.955  15.630  0.00  0.00    +0.000 C 
ATOM     24  C   UNL     1       6.142   3.706  15.080  0.00  0.00    +0.000 C 
BRANCH  22  25
ATOM     25  C   UNL     1       7.106   5.015  17.006  0.00  0.00    +0.000 C 
BRANCH  25  26
ATOM     26  C   UNL     1       6.973   6.301  17.827  0.00  0.00    +0.000 C 
BRANCH  26  27
ATOM     27  C   UNL     1       7.818   7.455  17.298  0.00  0.00    +0.000 C 
BRANCH  27  28
ATOM     28  C   UNL     1       8.444   8.190  18.486  0.00  0.00    +0.000 C 
BRANCH  28  29
ATOM     29  C   UNL     1       8.471   9.696  18.272  0.00  0.00    +0.000 C 
BRANCH  29  30
ATOM     30  C   UNL     1       9.322  10.380  19.341  0.00  0.00    +0.000 C 
BRANCH  30  32
ATOM     31  C   UNL     1      11.367  11.794  19.718  0.00  0.00    +0.000 C 
ATOM     32  C   UNL     1      10.354  11.304  18.699  0.00  0.00    +0.000 C 
ENDBRANCH  30  32
ENDBRANCH  29  30
ENDBRANCH  28  29
ENDBRANCH  27  28
ENDBRANCH  26  27
ENDBRANCH  25  26
ENDBRANCH  22  25
ENDBRANCH  21  22
ENDBRANCH   1  21
TORSDOF 13
ENDMDL
MODEL 8
REMARK VINA RESULT:      -6.6      4.026      5.554
REMARK  Name = 
REMARK  16 active torsions:
REMARK  status: ('A' for Active; 'I' for Inactive)
REMARK    1  A    between atoms: C_1  and  C_2
REMARK    2  A    between atoms: C_2  and  C_3
REMARK    3  A    between atoms: C_3  and  C_4
REMARK    4  A    between atoms: C_4  and  C_5
REMARK    5  A    between atoms: C_5  and  C_6
REMARK    6  A    between atoms: C_6  and  C_7
REMARK    7  A    between atoms: C_7  and  C_8
REMARK    8  A    between atoms: C_8  and  N_9
REMARK    9  A    between atoms: N_9  and  C_10
REMARK   10  A    between atoms: N_9  and  C_11
REMARK   11  A    between atoms: N_9  and  C_12
REMARK   12  A    between atoms: C_12  and  C_13
REMARK   13  A    between atoms: N_15  and  C_16
REMARK   14  A    between atoms: C_19  and  C_20
REMARK   15  A    between atoms: C_20  and  C_22
REMARK   16  A    between atoms: C_23  and  C_24
REMARK                            x       y       z     vdW  Elec       q    Type
REMARK                         _______ _______ _______ _____ _____    ______ ____
ROOT
ATOM      1  C   UNL     1       4.166   5.514  18.305  0.00  0.00    +0.000 C 
ATOM      2  O   UNL     1       4.636   5.752  19.415  0.00  0.00    +0.000 OA
ATOM      3  N   UNL     1       3.038   6.123  17.791  0.00  0.00    +0.000 N 
ATOM      4  H   UNL     1       2.518   5.614  17.087  0.00  0.00    +0.000 HD
ENDROOT
BRANCH   3   5
ATOM      5  C   UNL     1       2.371   7.151  18.496  0.00  0.00    +0.000 A 
ATOM      6  C   UNL     1       2.027   8.353  17.870  0.00  0.00    +0.000 A 
ATOM      7  C   UNL     1       1.475   9.401  18.602  0.00  0.00    +0.000 A 
ATOM      8  C   UNL     1       1.259   9.263  19.977  0.00  0.00    +0.000 A 
ATOM      9  C   UNL     1       1.560   8.042  20.596  0.00  0.00    +0.000 A 
ATOM     10  C   UNL     1       2.093   6.979  19.854  0.00  0.00    +0.000 A 
BRANCH   8  11
ATOM     11  C   UNL     1       0.688  10.426  20.708  0.00  0.00    +0.000 C 
ATOM     12  O   UNL     1       0.125  10.252  21.785  0.00  0.00    +0.000 OA
BRANCH  11  13
ATOM     13  C   UNL     1       0.782  11.776  20.071  0.00  0.00    +0.000 C 
ATOM     14  C   UNL     1       1.925  12.469  20.178  0.00  0.00    +0.000 C 
BRANCH  14  15
ATOM     15  C   UNL     1       2.046  13.798  19.587  0.00  0.00    +0.000 A 
ATOM     16  C   UNL     1       0.918  14.582  19.343  0.00  0.00    +0.000 A 
ATOM     17  C   UNL     1       1.066  15.832  18.747  0.00  0.00    +0.000 A 
ATOM     18  C   UNL     1       2.342  16.254  18.404  0.00  0.00    +0.000 A 
ATOM     19  N   UNL     1       3.457  15.522  18.622  0.00  0.00    +0.000 NA
ATOM     20  C   UNL     1       3.283  14.317  19.217  0.00  0.00    +0.000 A 
ENDBRANCH  14  15
ENDBRANCH  11  13
ENDBRANCH   8  11
ENDBRANCH   3   5
BRANCH   1  21
ATOM     21  C   UNL     1       4.767   4.408  17.429  0.00  0.00    +0.000 C 
BRANCH  21  22
ATOM     22  N   UNL     1       5.862   4.900  16.412  0.00  0.00    +0.000 N 
ATOM     23  C   UNL     1       7.217   4.385  16.881  0.00  0.00    +0.000 C 
ATOM     24  C   UNL     1       5.873   6.435  16.385  0.00  0.00    +0.000 C 
BRANCH  22  25
ATOM     25  C   UNL     1       5.498   4.350  15.019  0.00  0.00    +0.000 C 
BRANCH  25  26
ATOM     26  C   UNL     1       6.679   4.410  14.046  0.00  0.00    +0.000 C 
BRANCH  26  27
ATOM     27  C   UNL     1       6.414   3.709  12.718  0.00  0.00    +0.000 C 
BRANCH  27  28
ATOM     28  C   UNL     1       4.902   3.532  12.549  0.00  0.00    +0.000 C 
BRANCH  28  29
ATOM     29  C   UNL     1       4.548   2.936  11.195  0.00  0.00    +0.000 C 
BRANCH  29  30
ATOM     30  C   UNL     1       3.200   3.463  10.708  0.00  0.00    +0.000 C 
BRANCH  30  32
ATOM     31  C   UNL     1       2.165   4.938   8.953  0.00  0.00    +0.000 C 
ATOM     32  C   UNL     1       3.314   4.002   9.285  0.00  0.00    +0.000 C 
ENDBRANCH  30  32
ENDBRANCH  29  30
ENDBRANCH  28  29
ENDBRANCH  27  28
ENDBRANCH  26  27
ENDBRANCH  25  26
ENDBRANCH  22  25
ENDBRANCH  21  22
ENDBRANCH   1  21
TORSDOF 13
ENDMDL
MODEL 9
REMARK VINA RESULT:      -6.6      3.127      3.928
REMARK  Name = 
REMARK  16 active torsions:
REMARK  status: ('A' for Active; 'I' for Inactive)
REMARK    1  A    between atoms: C_1  and  C_2
REMARK    2  A    between atoms: C_2  and  C_3
REMARK    3  A    between atoms: C_3  and  C_4
REMARK    4  A    between atoms: C_4  and  C_5
REMARK    5  A    between atoms: C_5  and  C_6
REMARK    6  A    between atoms: C_6  and  C_7
REMARK    7  A    between atoms: C_7  and  C_8
REMARK    8  A    between atoms: C_8  and  N_9
REMARK    9  A    between atoms: N_9  and  C_10
REMARK   10  A    between atoms: N_9  and  C_11
REMARK   11  A    between atoms: N_9  and  C_12
REMARK   12  A    between atoms: C_12  and  C_13
REMARK   13  A    between atoms: N_15  and  C_16
REMARK   14  A    between atoms: C_19  and  C_20
REMARK   15  A    between atoms: C_20  and  C_22
REMARK   16  A    between atoms: C_23  and  C_24
REMARK                            x       y       z     vdW  Elec       q    Type
REMARK                         _______ _______ _______ _____ _____    ______ ____
ROOT
ATOM      1  C   UNL     1       1.984   5.231  20.462  0.00  0.00    +0.000 C 
ATOM      2  O   UNL     1       0.767   5.078  20.393  0.00  0.00    +0.000 OA
ATOM      3  N   UNL     1       2.624   6.448  20.334  0.00  0.00    +0.000 N 
ATOM      4  H   UNL     1       3.586   6.435  20.019  0.00  0.00    +0.000 HD
ENDROOT
BRANCH   3   5
ATOM      5  C   UNL     1       1.894   7.651  20.188  0.00  0.00    +0.000 A 
ATOM      6  C   UNL     1       1.815   8.305  18.956  0.00  0.00    +0.000 A 
ATOM      7  C   UNL     1       1.191   9.546  18.850  0.00  0.00    +0.000 A 
ATOM      8  C   UNL     1       0.636  10.153  19.980  0.00  0.00    +0.000 A 
ATOM      9  C   UNL     1       0.673   9.477  21.207  0.00  0.00    +0.000 A 
ATOM     10  C   UNL     1       1.280   8.218  21.308  0.00  0.00    +0.000 A 
BRANCH   8  11
ATOM     11  C   UNL     1       0.004  11.489  19.808  0.00  0.00    +0.000 C 
ATOM     12  O   UNL     1      -0.139  11.956  18.682  0.00  0.00    +0.000 OA
BRANCH  11  13
ATOM     13  C   UNL     1      -0.398  12.243  21.036  0.00  0.00    +0.000 C 
ATOM     14  C   UNL     1      -1.673  12.187  21.449  0.00  0.00    +0.000 C 
BRANCH  14  15
ATOM     15  C   UNL     1      -2.105  12.926  22.631  0.00  0.00    +0.000 A 
ATOM     16  C   UNL     1      -3.392  12.769  23.146  0.00  0.00    +0.000 A 
ATOM     17  C   UNL     1      -3.783  13.515  24.255  0.00  0.00    +0.000 A 
ATOM     18  C   UNL     1      -2.875  14.404  24.809  0.00  0.00    +0.000 A 
ATOM     19  N   UNL     1      -1.622  14.586  24.335  0.00  0.00    +0.000 NA
ATOM     20  C   UNL     1      -1.264  13.836  23.264  0.00  0.00    +0.000 A 
ENDBRANCH  14  15
ENDBRANCH  11  13
ENDBRANCH   8  11
ENDBRANCH   3   5
BRANCH   1  21
ATOM     21  C   UNL     1       2.912   4.018  20.599  0.00  0.00    +0.000 C 
BRANCH  21  22
ATOM     22  N   UNL     1       3.651   3.605  19.272  0.00  0.00    +0.000 N 
ATOM     23  C   UNL     1       2.665   3.722  18.118  0.00  0.00    +0.000 C 
ATOM     24  C   UNL     1       4.135   2.153  19.395  0.00  0.00    +0.000 C 
BRANCH  22  25
ATOM     25  C   UNL     1       4.856   4.548  19.086  0.00  0.00    +0.000 C 
BRANCH  25  26
ATOM     26  C   UNL     1       4.889   5.176  17.690  0.00  0.00    +0.000 C 
BRANCH  26  27
ATOM     27  C   UNL     1       5.992   4.622  16.795  0.00  0.00    +0.000 C 
BRANCH  27  28
ATOM     28  C   UNL     1       5.542   4.730  15.336  0.00  0.00    +0.000 C 
BRANCH  28  29
ATOM     29  C   UNL     1       6.126   3.619  14.477  0.00  0.00    +0.000 C 
BRANCH  29  30
ATOM     30  C   UNL     1       6.383   4.112  13.054  0.00  0.00    +0.000 C 
BRANCH  30  32
ATOM     31  C   UNL     1       4.462   3.256  11.676  0.00  0.00    +0.000 C 
ATOM     32  C   UNL     1       5.926   3.074  12.033  0.00  0.00    +0.000 C 
ENDBRANCH  30  32
ENDBRANCH  29  30
ENDBRANCH  28  29
ENDBRANCH  27  28
ENDBRANCH  26  27
ENDBRANCH  25  26
ENDBRANCH  22  25
ENDBRANCH  21  22
ENDBRANCH   1  21
TORSDOF 13
ENDMDL
