MODEL 1
REMARK VINA RESULT:      -8.0      0.000      0.000
REMARK  Name = 
REMARK  5 active torsions:
REMARK  status: ('A' for Active; 'I' for Inactive)
REMARK    1  A    between atoms: C_7  and  C_8
REMARK    2  A    between atoms: C_12  and  N_13
REMARK    3  A    between atoms: N_13  and  C_14
REMARK    4  A    between atoms: N_19  and  C_20
REMARK    5  A    between atoms: C_23  and  N_24
REMARK                            x       y       z     vdW  Elec       q    Type
REMARK                         _______ _______ _______ _____ _____    ______ ____
ROOT
ATOM      1  C   UNL     1       1.887  13.951  20.798  0.00  0.00    +0.000 A 
ATOM      2  C   UNL     1       1.440  14.958  21.672  0.00  0.00    +0.000 A 
ATOM      3  N   UNL     1       0.370  14.594  22.383  0.00  0.00    +0.000 NA
ATOM      4  N   UNL     1       0.148  13.296  22.011  0.00  0.00    +0.000 N 
ATOM      5  C   UNL     1      -0.851  12.425  22.505  0.00  0.00    +0.000 A 
ATOM      6  C   UNL     1      -0.883  11.172  22.017  0.00  0.00    +0.000 A 
ATOM      7  C   UNL     1       0.133  10.762  20.978  0.00  0.00    +0.000 A 
ATOM      8  N   UNL     1       0.084   9.442  20.557  0.00  0.00    +0.000 N 
ATOM      9  N   UNL     1       1.010  11.617  20.512  0.00  0.00    +0.000 NA
ATOM     10  C   UNL     1       1.045  12.880  21.028  0.00  0.00    +0.000 A 
ATOM     11  H   UNL     1      -0.664   8.872  20.926  0.00  0.00    +0.000 HD
ENDROOT
BRANCH   1  18
ATOM     12  O   UNL     1       2.455  17.599  16.934  0.00  0.00    +0.000 OA
ATOM     13  C   UNL     1       2.952  16.657  17.523  0.00  0.00    +0.000 C 
ATOM     14  N   UNL     1       4.136  16.044  17.204  0.00  0.00    +0.000 N 
ATOM     15  C   UNL     1       4.370  14.962  18.005  0.00  0.00    +0.000 C 
ATOM     16  O   UNL     1       5.303  14.184  17.960  0.00  0.00    +0.000 OA
ATOM     17  C   UNL     1       3.205  14.926  18.941  0.00  0.00    +0.000 C 
ATOM     18  C   UNL     1       2.999  14.018  19.901  0.00  0.00    +0.000 C 
ATOM     19  N   UNL     1       2.417  15.989  18.606  0.00  0.00    +0.000 N 
ATOM     20  H   UNL     1       4.715  16.323  16.432  0.00  0.00    +0.000 HD
ATOM     21  H   UNL     1       1.492  16.158  18.986  0.00  0.00    +0.000 HD
ENDBRANCH   1  18
BRANCH   8  22
ATOM     22  C   UNL     1       1.067   8.689  19.884  0.00  0.00    +0.000 A 
ATOM     23  C   UNL     1       1.454   9.076  18.595  0.00  0.00    +0.000 A 
ATOM     24  C   UNL     1       2.395   8.333  17.858  0.00  0.00    +0.000 A 
ATOM     25  C   UNL     1       3.007   7.183  18.373  0.00  0.00    +0.000 A 
ATOM     26  C   UNL     1       2.616   6.812  19.661  0.00  0.00    +0.000 A 
ATOM     27  C   UNL     1       1.661   7.541  20.387  0.00  0.00    +0.000 A 
BRANCH  25  28
ATOM     28  N   UNL     1       3.938   6.465  17.660  0.00  0.00    +0.000 N 
ATOM     29  C   UNL     1       4.943   7.106  16.800  0.00  0.00    +0.000 C 
ATOM     30  C   UNL     1       6.363   6.649  17.211  0.00  0.00    +0.000 C 
ATOM     31  N   UNL     1       6.536   5.183  17.248  0.00  0.00    +0.000 NA
ATOM     32  C   UNL     1       5.506   4.599  18.131  0.00  0.00    +0.000 C 
ATOM     33  C   UNL     1       4.065   4.998  17.738  0.00  0.00    +0.000 C 
ATOM     34  H   UNL     1       7.456   4.970  17.629  0.00  0.00    +0.000 HD
ENDBRANCH  25  28
ENDBRANCH   8  22
BRANCH   5  35
ATOM     35  N   UNL     1      -1.704  12.943  23.480  0.00  0.00    +0.000 N 
ATOM     36  H   UNL     1      -1.322  13.817  23.859  0.00  0.00    +0.000 HD
BRANCH  35  37
ATOM     37  C   UNL     1      -3.154  12.858  23.321  0.00  0.00    +0.000 C 
ATOM     38  C   UNL     1      -4.060  12.530  24.472  0.00  0.00    +0.000 C 
ATOM     39  C   UNL     1      -4.014  13.929  23.934  0.00  0.00    +0.000 C 
ENDBRANCH  35  37
ENDBRANCH   5  35
TORSDOF 5
ENDMDL
MODEL 2
REMARK VINA RESULT:      -8.0      0.538      1.323
REMARK  Name = 
REMARK  5 active torsions:
REMARK  status: ('A' for Active; 'I' for Inactive)
REMARK    1  A    between atoms: C_7  and  C_8
REMARK    2  A    between atoms: C_12  and  N_13
REMARK    3  A    between atoms: N_13  and  C_14
REMARK    4  A    between atoms: N_19  and  C_20
REMARK    5  A    between atoms: C_23  and  N_24
REMARK                            x       y       z     vdW  Elec       q    Type
REMARK                         _______ _______ _______ _____ _____    ______ ____
ROOT
ATOM      1  C   UNL     1       1.888  13.903  20.764  0.00  0.00    +0.000 A 
ATOM      2  C   UNL     1       1.418  14.896  21.643  0.00  0.00    +0.000 A 
ATOM      3  N   UNL     1       0.321  14.528  22.307  0.00  0.00    +0.000 NA
ATOM      4  N   UNL     1       0.100  13.241  21.901  0.00  0.00    +0.000 N 
ATOM      5  C   UNL     1      -0.923  12.370  22.341  0.00  0.00    +0.000 A 
ATOM      6  C   UNL     1      -0.949  11.127  21.826  0.00  0.00    +0.000 A 
ATOM      7  C   UNL     1       0.100  10.728  20.815  0.00  0.00    +0.000 A 
ATOM      8  N   UNL     1       0.054   9.418  20.365  0.00  0.00    +0.000 N 
ATOM      9  N   UNL     1       1.001  11.584  20.399  0.00  0.00    +0.000 NA
ATOM     10  C   UNL     1       1.028  12.836  20.942  0.00  0.00    +0.000 A 
ATOM     11  H   UNL     1      -0.712   8.848  20.696  0.00  0.00    +0.000 HD
ENDROOT
BRANCH   1  18
ATOM     12  O   UNL     1       2.560  17.536  16.903  0.00  0.00    +0.000 OA
ATOM     13  C   UNL     1       3.045  16.603  17.516  0.00  0.00    +0.000 C 
ATOM     14  N   UNL     1       4.247  16.001  17.245  0.00  0.00    +0.000 N 
ATOM     15  C   UNL     1       4.463  14.926  18.061  0.00  0.00    +0.000 C 
ATOM     16  O   UNL     1       5.405  14.158  18.055  0.00  0.00    +0.000 OA
ATOM     17  C   UNL     1       3.264  14.883  18.953  0.00  0.00    +0.000 C 
ATOM     18  C   UNL     1       3.032  13.978  19.910  0.00  0.00    +0.000 C 
ATOM     19  N   UNL     1       2.477  15.935  18.582  0.00  0.00    +0.000 N 
ATOM     20  H   UNL     1       4.851  16.283  16.494  0.00  0.00    +0.000 HD
ATOM     21  H   UNL     1       1.537  16.095  18.927  0.00  0.00    +0.000 HD
ENDBRANCH   1  18
BRANCH   8  22
ATOM     22  C   UNL     1       1.054   8.669  19.712  0.00  0.00    +0.000 A 
ATOM     23  C   UNL     1       1.617   7.571  20.371  0.00  0.00    +0.000 A 
ATOM     24  C   UNL     1       2.652   6.817  19.787  0.00  0.00    +0.000 A 
ATOM     25  C   UNL     1       3.162   7.110  18.516  0.00  0.00    +0.000 A 
ATOM     26  C   UNL     1       2.588   8.205  17.868  0.00  0.00    +0.000 A 
ATOM     27  C   UNL     1       1.571   8.969  18.461  0.00  0.00    +0.000 A 
BRANCH  25  28
ATOM     28  N   UNL     1       4.164   6.364  17.937  0.00  0.00    +0.000 N 
ATOM     29  C   UNL     1       4.267   4.909  18.110  0.00  0.00    +0.000 C 
ATOM     30  C   UNL     1       4.306   4.212  16.729  0.00  0.00    +0.000 C 
ATOM     31  N   UNL     1       5.354   4.727  15.824  0.00  0.00    +0.000 NA
ATOM     32  C   UNL     1       5.193   6.189  15.685  0.00  0.00    +0.000 C 
ATOM     33  C   UNL     1       5.184   6.935  17.039  0.00  0.00    +0.000 C 
ATOM     34  H   UNL     1       5.240   4.295  14.909  0.00  0.00    +0.000 HD
ENDBRANCH  25  28
ENDBRANCH   8  22
BRANCH   5  35
ATOM     35  N   UNL     1      -1.806  12.876  23.296  0.00  0.00    +0.000 N 
ATOM     36  H   UNL     1      -1.719  13.897  23.355  0.00  0.00    +0.000 HD
BRANCH  35  37
ATOM     37  C   UNL     1      -3.143  12.306  23.447  0.00  0.00    +0.000 C 
ATOM     38  C   UNL     1      -4.002  12.607  24.642  0.00  0.00    +0.000 C 
ATOM     39  C   UNL     1      -4.335  13.213  23.311  0.00  0.00    +0.000 C 
ENDBRANCH  35  37
ENDBRANCH   5  35
TORSDOF 5
ENDMDL
MODEL 3
REMARK VINA RESULT:      -7.9      3.259      4.478
REMARK  Name = 
REMARK  5 active torsions:
REMARK  status: ('A' for Active; 'I' for Inactive)
REMARK    1  A    between atoms: C_7  and  C_8
REMARK    2  A    between atoms: C_12  and  N_13
REMARK    3  A    between atoms: N_13  and  C_14
REMARK    4  A    between atoms: N_19  and  C_20
REMARK    5  A    between atoms: C_23  and  N_24
REMARK                            x       y       z     vdW  Elec       q    Type
REMARK                         _______ _______ _______ _____ _____    ______ ____
ROOT
ATOM      1  C   UNL     1       4.208  14.976  18.133  0.00  0.00    +0.000 A 
ATOM      2  C   UNL     1       4.192  16.368  18.338  0.00  0.00    +0.000 A 
ATOM      3  N   UNL     1       2.971  16.844  18.586  0.00  0.00    +0.000 NA
ATOM      4  N   UNL     1       2.175  15.732  18.603  0.00  0.00    +0.000 N 
ATOM      5  C   UNL     1       0.786  15.678  18.866  0.00  0.00    +0.000 A 
ATOM      6  C   UNL     1       0.195  14.470  18.855  0.00  0.00    +0.000 A 
ATOM      7  C   UNL     1       1.030  13.246  18.564  0.00  0.00    +0.000 A 
ATOM      8  N   UNL     1       0.375  12.026  18.623  0.00  0.00    +0.000 N 
ATOM      9  N   UNL     1       2.305  13.347  18.276  0.00  0.00    +0.000 NA
ATOM     10  C   UNL     1       2.898  14.576  18.309  0.00  0.00    +0.000 A 
ATOM     11  H   UNL     1      -0.621  12.050  18.792  0.00  0.00    +0.000 HD
ENDROOT
BRANCH   1  18
ATOM     12  O   UNL     1       9.262  16.712  18.111  0.00  0.00    +0.000 OA
ATOM     13  C   UNL     1       8.515  15.757  17.999  0.00  0.00    +0.000 C 
ATOM     14  N   UNL     1       8.886  14.482  17.663  0.00  0.00    +0.000 N 
ATOM     15  C   UNL     1       7.800  13.662  17.535  0.00  0.00    +0.000 C 
ATOM     16  O   UNL     1       7.779  12.491  17.211  0.00  0.00    +0.000 OA
ATOM     17  C   UNL     1       6.630  14.534  17.858  0.00  0.00    +0.000 C 
ATOM     18  C   UNL     1       5.346  14.159  17.846  0.00  0.00    +0.000 C 
ATOM     19  N   UNL     1       7.143  15.764  18.151  0.00  0.00    +0.000 N 
ATOM     20  H   UNL     1       9.834  14.212  17.471  0.00  0.00    +0.000 HD
ATOM     21  H   UNL     1       6.584  16.599  18.293  0.00  0.00    +0.000 HD
ENDBRANCH   1  18
BRANCH   8  22
ATOM     22  C   UNL     1       0.920  10.731  18.736  0.00  0.00    +0.000 A 
ATOM     23  C   UNL     1       0.789  10.044  19.949  0.00  0.00    +0.000 A 
ATOM     24  C   UNL     1       1.356   8.769  20.133  0.00  0.00    +0.000 A 
ATOM     25  C   UNL     1       2.063   8.112  19.118  0.00  0.00    +0.000 A 
ATOM     26  C   UNL     1       2.182   8.806  17.913  0.00  0.00    +0.000 A 
ATOM     27  C   UNL     1       1.635  10.087  17.737  0.00  0.00    +0.000 A 
BRANCH  25  28
ATOM     28  N   UNL     1       2.604   6.859  19.293  0.00  0.00    +0.000 N 
ATOM     29  C   UNL     1       2.103   5.915  20.301  0.00  0.00    +0.000 C 
ATOM     30  C   UNL     1       1.724   4.573  19.630  0.00  0.00    +0.000 C 
ATOM     31  N   UNL     1       2.806   3.979  18.819  0.00  0.00    +0.000 NA
ATOM     32  C   UNL     1       3.261   4.971  17.822  0.00  0.00    +0.000 C 
ATOM     33  C   UNL     1       3.685   6.318  18.450  0.00  0.00    +0.000 C 
ATOM     34  H   UNL     1       2.442   3.164  18.329  0.00  0.00    +0.000 HD
ENDBRANCH  25  28
ENDBRANCH   8  22
BRANCH   5  35
ATOM     35  N   UNL     1       0.156  16.893  19.140  0.00  0.00    +0.000 N 
ATOM     36  H   UNL     1       0.849  17.647  19.204  0.00  0.00    +0.000 HD
BRANCH  35  37
ATOM     37  C   UNL     1      -1.133  17.215  18.532  0.00  0.00    +0.000 C 
ATOM     38  C   UNL     1      -2.159  18.050  19.243  0.00  0.00    +0.000 C 
ATOM     39  C   UNL     1      -1.392  18.630  18.092  0.00  0.00    +0.000 C 
ENDBRANCH  35  37
ENDBRANCH   5  35
TORSDOF 5
ENDMDL
MODEL 4
REMARK VINA RESULT:      -7.8      2.847      3.587
REMARK  Name = 
REMARK  5 active torsions:
REMARK  status: ('A' for Active; 'I' for Inactive)
REMARK    1  A    between atoms: C_7  and  C_8
REMARK    2  A    between atoms: C_12  and  N_13
REMARK    3  A    between atoms: N_13  and  C_14
REMARK    4  A    between atoms: N_19  and  C_20
REMARK    5  A    between atoms: C_23  and  N_24
REMARK                            x       y       z     vdW  Elec       q    Type
REMARK                         _______ _______ _______ _____ _____    ______ ____
ROOT
ATOM      1  C   UNL     1       3.477  14.639  18.129  0.00  0.00    +0.000 A 
ATOM      2  C   UNL     1       3.232  16.012  18.308  0.00  0.00    +0.000 A 
ATOM      3  N   UNL     1       1.954  16.282  18.582  0.00  0.00    +0.000 NA
ATOM      4  N   UNL     1       1.358  15.052  18.644  0.00  0.00    +0.000 N 
ATOM      5  C   UNL     1       0.006  14.772  18.948  0.00  0.00    +0.000 A 
ATOM      6  C   UNL     1      -0.373  13.482  18.978  0.00  0.00    +0.000 A 
ATOM      7  C   UNL     1       0.649  12.409  18.686  0.00  0.00    +0.000 A 
ATOM      8  N   UNL     1       0.212  11.098  18.788  0.00  0.00    +0.000 N 
ATOM      9  N   UNL     1       1.881  12.716  18.360  0.00  0.00    +0.000 NA
ATOM     10  C   UNL     1       2.258  14.028  18.351  0.00  0.00    +0.000 A 
ATOM     11  H   UNL     1      -0.770  10.958  18.986  0.00  0.00    +0.000 HD
ENDROOT
BRANCH   1  18
ATOM     12  O   UNL     1       8.221  17.083  18.404  0.00  0.00    +0.000 OA
ATOM     13  C   UNL     1       7.625  16.041  18.200  0.00  0.00    +0.000 C 
ATOM     14  N   UNL     1       8.187  14.861  17.788  0.00  0.00    +0.000 N 
ATOM     15  C   UNL     1       7.236  13.905  17.565  0.00  0.00    +0.000 C 
ATOM     16  O   UNL     1       7.394  12.771  17.159  0.00  0.00    +0.000 OA
ATOM     17  C   UNL     1       5.943  14.573  17.908  0.00  0.00    +0.000 C 
ATOM     18  C   UNL     1       4.729  14.018  17.825  0.00  0.00    +0.000 C 
ATOM     19  N   UNL     1       6.264  15.839  18.305  0.00  0.00    +0.000 N 
ATOM     20  H   UNL     1       9.169  14.747  17.610  0.00  0.00    +0.000 HD
ATOM     21  H   UNL     1       5.585  16.571  18.485  0.00  0.00    +0.000 HD
ENDBRANCH   1  18
BRANCH   8  22
ATOM     22  C   UNL     1       0.970   9.916  18.910  0.00  0.00    +0.000 A 
ATOM     23  C   UNL     1       1.622   9.409  17.780  0.00  0.00    +0.000 A 
ATOM     24  C   UNL     1       2.353   8.208  17.834  0.00  0.00    +0.000 A 
ATOM     25  C   UNL     1       2.484   7.465  19.014  0.00  0.00    +0.000 A 
ATOM     26  C   UNL     1       1.833   7.985  20.134  0.00  0.00    +0.000 A 
ATOM     27  C   UNL     1       1.086   9.172  20.075  0.00  0.00    +0.000 A 
BRANCH  25  28
ATOM     28  N   UNL     1       3.211   6.299  19.071  0.00  0.00    +0.000 N 
ATOM     29  C   UNL     1       2.896   5.215  20.012  0.00  0.00    +0.000 C 
ATOM     30  C   UNL     1       2.693   3.888  19.245  0.00  0.00    +0.000 C 
ATOM     31  N   UNL     1       3.819   3.527  18.358  0.00  0.00    +0.000 NA
ATOM     32  C   UNL     1       4.083   4.649  17.434  0.00  0.00    +0.000 C 
ATOM     33  C   UNL     1       4.327   5.993  18.157  0.00  0.00    +0.000 C 
ATOM     34  H   UNL     1       3.560   2.706  17.815  0.00  0.00    +0.000 HD
ENDBRANCH  25  28
ENDBRANCH   8  22
BRANCH   5  35
ATOM     35  N   UNL     1      -0.813  15.869  19.217  0.00  0.00    +0.000 N 
ATOM     36  H   UNL     1      -1.555  15.941  18.511  0.00  0.00    +0.000 HD
BRANCH  35  37
ATOM     37  C   UNL     1      -1.161  16.217  20.594  0.00  0.00    +0.000 C 
ATOM     38  C   UNL     1      -0.176  16.076  21.719  0.00  0.00    +0.000 C 
ATOM     39  C   UNL     1      -0.538  17.440  21.210  0.00  0.00    +0.000 C 
ENDBRANCH  35  37
ENDBRANCH   5  35
TORSDOF 5
ENDMDL
MODEL 5
REMARK VINA RESULT:      -7.7      1.189      1.219
REMARK  Name = 
REMARK  5 active torsions:
REMARK  status: ('A' for Active; 'I' for Inactive)
REMARK    1  A    between atoms: C_7  and  C_8
REMARK    2  A    between atoms: C_12  and  N_13
REMARK    3  A    between atoms: N_13  and  C_14
REMARK    4  A    between atoms: N_19  and  C_20
REMARK    5  A    between atoms: C_23  and  N_24
REMARK                            x       y       z     vdW  Elec       q    Type
REMARK                         _______ _______ _______ _____ _____    ______ ____
ROOT
ATOM      1  C   UNL     1       2.233  14.155  20.630  0.00  0.00    +0.000 A 
ATOM      2  C   UNL     1       1.875  15.217  21.481  0.00  0.00    +0.000 A 
ATOM      3  N   UNL     1       0.801  14.949  22.225  0.00  0.00    +0.000 NA
ATOM      4  N   UNL     1       0.482  13.659  21.900  0.00  0.00    +0.000 N 
ATOM      5  C   UNL     1      -0.562  12.875  22.442  0.00  0.00    +0.000 A 
ATOM      6  C   UNL     1      -0.691  11.613  21.996  0.00  0.00    +0.000 A 
ATOM      7  C   UNL     1       0.271  11.102  20.948  0.00  0.00    +0.000 A 
ATOM      8  N   UNL     1       0.122   9.776  20.571  0.00  0.00    +0.000 N 
ATOM      9  N   UNL     1       1.193  11.880  20.438  0.00  0.00    +0.000 NA
ATOM     10  C   UNL     1       1.325  13.153  20.912  0.00  0.00    +0.000 A 
ATOM     11  H   UNL     1      -0.655   9.270  20.974  0.00  0.00    +0.000 HD
ENDROOT
BRANCH   1  18
ATOM     12  O   UNL     1       5.647  18.184  19.809  0.00  0.00    +0.000 OA
ATOM     13  C   UNL     1       5.352  17.033  19.546  0.00  0.00    +0.000 C 
ATOM     14  N   UNL     1       5.976  16.234  18.624  0.00  0.00    +0.000 N 
ATOM     15  C   UNL     1       5.349  15.025  18.504  0.00  0.00    +0.000 C 
ATOM     16  O   UNL     1       5.623  14.110  17.751  0.00  0.00    +0.000 OA
ATOM     17  C   UNL     1       4.226  15.083  19.488  0.00  0.00    +0.000 C 
ATOM     18  C   UNL     1       3.326  14.119  19.708  0.00  0.00    +0.000 C 
ATOM     19  N   UNL     1       4.313  16.305  20.090  0.00  0.00    +0.000 N 
ATOM     20  H   UNL     1       6.753  16.535  18.065  0.00  0.00    +0.000 HD
ATOM     21  H   UNL     1       3.614  16.684  20.721  0.00  0.00    +0.000 HD
ENDBRANCH   1  18
BRANCH   8  22
ATOM     22  C   UNL     1       1.036   8.937  19.902  0.00  0.00    +0.000 A 
ATOM     23  C   UNL     1       1.340   9.200  18.561  0.00  0.00    +0.000 A 
ATOM     24  C   UNL     1       2.208   8.367  17.830  0.00  0.00    +0.000 A 
ATOM     25  C   UNL     1       2.825   7.246  18.402  0.00  0.00    +0.000 A 
ATOM     26  C   UNL     1       2.516   6.999  19.740  0.00  0.00    +0.000 A 
ATOM     27  C   UNL     1       1.633   7.818  20.462  0.00  0.00    +0.000 A 
BRANCH  25  28
ATOM     28  N   UNL     1       3.685   6.440  17.693  0.00  0.00    +0.000 N 
ATOM     29  C   UNL     1       4.943   6.937  17.119  0.00  0.00    +0.000 C 
ATOM     30  C   UNL     1       6.130   6.079  17.619  0.00  0.00    +0.000 C 
ATOM     31  N   UNL     1       5.964   4.630  17.390  0.00  0.00    +0.000 NA
ATOM     32  C   UNL     1       4.689   4.190  17.993  0.00  0.00    +0.000 C 
ATOM     33  C   UNL     1       3.467   4.995  17.497  0.00  0.00    +0.000 C 
ATOM     34  H   UNL     1       6.730   4.135  17.841  0.00  0.00    +0.000 HD
ENDBRANCH  25  28
ENDBRANCH   8  22
BRANCH   5  35
ATOM     35  N   UNL     1      -1.355  13.479  23.419  0.00  0.00    +0.000 N 
ATOM     36  H   UNL     1      -0.834  14.231  23.884  0.00  0.00    +0.000 HD
BRANCH  35  37
ATOM     37  C   UNL     1      -2.782  13.693  23.189  0.00  0.00    +0.000 C 
ATOM     38  C   UNL     1      -3.811  12.673  23.585  0.00  0.00    +0.000 C 
ATOM     39  C   UNL     1      -3.676  13.941  24.373  0.00  0.00    +0.000 C 
ENDBRANCH  35  37
ENDBRANCH   5  35
TORSDOF 5
ENDMDL
MODEL 6
REMARK VINA RESULT:      -7.6      4.879     10.660
REMARK  Name = 
REMARK  5 active torsions:
REMARK  status: ('A' for Active; 'I' for Inactive)
REMARK    1  A    between atoms: C_7  and  C_8
REMARK    2  A    between atoms: C_12  and  N_13
REMARK    3  A    between atoms: N_13  and  C_14
REMARK    4  A    between atoms: N_19  and  C_20
REMARK    5  A    between atoms: C_23  and  N_24
REMARK                            x       y       z     vdW  Elec       q    Type
REMARK                         _______ _______ _______ _____ _____    ______ ____
ROOT
ATOM      1  C   UNL     1      -3.604  11.143  17.246  0.00  0.00    +0.000 A 
ATOM      2  C   UNL     1      -3.274  10.060  16.412  0.00  0.00    +0.000 A 
ATOM      3  N   UNL     1      -2.016   9.644  16.570  0.00  0.00    +0.000 NA
ATOM      4  N   UNL     1      -1.527  10.433  17.576  0.00  0.00    +0.000 N 
ATOM      5  C   UNL     1      -0.241  10.372  18.161  0.00  0.00    +0.000 A 
ATOM      6  C   UNL     1       0.031  11.231  19.159  0.00  0.00    +0.000 A 
ATOM      7  C   UNL     1      -1.034  12.208  19.599  0.00  0.00    +0.000 A 
ATOM      8  N   UNL     1      -0.712  13.028  20.670  0.00  0.00    +0.000 N 
ATOM      9  N   UNL     1      -2.195  12.263  18.995  0.00  0.00    +0.000 NA
ATOM     10  C   UNL     1      -2.467  11.373  17.996  0.00  0.00    +0.000 A 
ATOM     11  H   UNL     1       0.228  12.957  21.034  0.00  0.00    +0.000 HD
ENDROOT
BRANCH   1  18
ATOM     12  O   UNL     1      -7.365  10.166  20.915  0.00  0.00    +0.000 OA
ATOM     13  C   UNL     1      -7.020  10.854  19.971  0.00  0.00    +0.000 C 
ATOM     14  N   UNL     1      -7.776  11.823  19.365  0.00  0.00    +0.000 N 
ATOM     15  C   UNL     1      -7.134  12.352  18.280  0.00  0.00    +0.000 C 
ATOM     16  O   UNL     1      -7.541  13.196  17.505  0.00  0.00    +0.000 OA
ATOM     17  C   UNL     1      -5.820  11.640  18.236  0.00  0.00    +0.000 C 
ATOM     18  C   UNL     1      -4.860  11.822  17.322  0.00  0.00    +0.000 C 
ATOM     19  N   UNL     1      -5.818  10.781  19.296  0.00  0.00    +0.000 N 
ATOM     20  H   UNL     1      -8.709  12.059  19.650  0.00  0.00    +0.000 HD
ATOM     21  H   UNL     1      -5.109  10.075  19.460  0.00  0.00    +0.000 HD
ENDBRANCH   1  18
BRANCH   8  22
ATOM     22  C   UNL     1      -1.569  13.773  21.505  0.00  0.00    +0.000 A 
ATOM     23  C   UNL     1      -2.405  13.093  22.398  0.00  0.00    +0.000 A 
ATOM     24  C   UNL     1      -3.315  13.784  23.220  0.00  0.00    +0.000 A 
ATOM     25  C   UNL     1      -3.424  15.180  23.206  0.00  0.00    +0.000 A 
ATOM     26  C   UNL     1      -2.580  15.846  22.314  0.00  0.00    +0.000 A 
ATOM     27  C   UNL     1      -1.689  15.155  21.478  0.00  0.00    +0.000 A 
BRANCH  25  28
ATOM     28  N   UNL     1      -4.302  15.857  24.020  0.00  0.00    +0.000 N 
ATOM     29  C   UNL     1      -3.856  16.680  25.153  0.00  0.00    +0.000 C 
ATOM     30  C   UNL     1      -4.418  18.115  25.021  0.00  0.00    +0.000 C 
ATOM     31  N   UNL     1      -5.884  18.173  24.851  0.00  0.00    +0.000 NA
ATOM     32  C   UNL     1      -6.269  17.335  23.696  0.00  0.00    +0.000 C 
ATOM     33  C   UNL     1      -5.759  15.880  23.800  0.00  0.00    +0.000 C 
ATOM     34  H   UNL     1      -6.156  19.136  24.664  0.00  0.00    +0.000 HD
ENDBRANCH  25  28
ENDBRANCH   8  22
BRANCH   5  35
ATOM     35  N   UNL     1       0.626   9.401  17.661  0.00  0.00    +0.000 N 
ATOM     36  H   UNL     1       0.630   9.420  16.635  0.00  0.00    +0.000 HD
BRANCH  35  37
ATOM     37  C   UNL     1       1.895   9.122  18.332  0.00  0.00    +0.000 C 
ATOM     38  C   UNL     1       2.118   7.861  19.116  0.00  0.00    +0.000 C 
ATOM     39  C   UNL     1       2.781   8.038  17.782  0.00  0.00    +0.000 C 
ENDBRANCH  35  37
ENDBRANCH   5  35
TORSDOF 5
ENDMDL
MODEL 7
REMARK VINA RESULT:      -7.6      0.970      1.363
REMARK  Name = 
REMARK  5 active torsions:
REMARK  status: ('A' for Active; 'I' for Inactive)
REMARK    1  A    between atoms: C_7  and  C_8
REMARK    2  A    between atoms: C_12  and  N_13
REMARK    3  A    between atoms: N_13  and  C_14
REMARK    4  A    between atoms: N_19  and  C_20
REMARK    5  A    between atoms: C_23  and  N_24
REMARK                            x       y       z     vdW  Elec       q    Type
REMARK                         _______ _______ _______ _____ _____    ______ ____
ROOT
ATOM      1  C   UNL     1       1.966  14.586  21.150  0.00  0.00    +0.000 A 
ATOM      2  C   UNL     1       1.673  15.657  22.013  0.00  0.00    +0.000 A 
ATOM      3  N   UNL     1       0.588  15.444  22.759  0.00  0.00    +0.000 NA
ATOM      4  N   UNL     1       0.194  14.178  22.422  0.00  0.00    +0.000 N 
ATOM      5  C   UNL     1      -0.891  13.448  22.961  0.00  0.00    +0.000 A 
ATOM      6  C   UNL     1      -1.093  12.200  22.502  0.00  0.00    +0.000 A 
ATOM      7  C   UNL     1      -0.167  11.646  21.445  0.00  0.00    +0.000 A 
ATOM      8  N   UNL     1      -0.393  10.336  21.055  0.00  0.00    +0.000 N 
ATOM      9  N   UNL     1       0.796  12.376  20.939  0.00  0.00    +0.000 NA
ATOM     10  C   UNL     1       1.003  13.634  21.426  0.00  0.00    +0.000 A 
ATOM     11  H   UNL     1      -1.196   9.871  21.456  0.00  0.00    +0.000 HD
ENDROOT
BRANCH   1  18
ATOM     12  O   UNL     1       2.466  17.595  16.761  0.00  0.00    +0.000 OA
ATOM     13  C   UNL     1       2.969  16.744  17.473  0.00  0.00    +0.000 C 
ATOM     14  N   UNL     1       4.134  16.069  17.219  0.00  0.00    +0.000 N 
ATOM     15  C   UNL     1       4.378  15.117  18.169  0.00  0.00    +0.000 C 
ATOM     16  O   UNL     1       5.298  14.325  18.217  0.00  0.00    +0.000 OA
ATOM     17  C   UNL     1       3.241  15.245  19.131  0.00  0.00    +0.000 C 
ATOM     18  C   UNL     1       3.051  14.497  20.223  0.00  0.00    +0.000 C 
ATOM     19  N   UNL     1       2.457  16.258  18.659  0.00  0.00    +0.000 N 
ATOM     20  H   UNL     1       4.693  16.217  16.398  0.00  0.00    +0.000 HD
ATOM     21  H   UNL     1       1.546  16.499  19.035  0.00  0.00    +0.000 HD
ENDBRANCH   1  18
BRANCH   8  22
ATOM     22  C   UNL     1       0.469   9.453  20.373  0.00  0.00    +0.000 A 
ATOM     23  C   UNL     1       1.022   8.372  21.070  0.00  0.00    +0.000 A 
ATOM     24  C   UNL     1       1.926   7.488  20.452  0.00  0.00    +0.000 A 
ATOM     25  C   UNL     1       2.308   7.626  19.112  0.00  0.00    +0.000 A 
ATOM     26  C   UNL     1       1.745   8.705  18.428  0.00  0.00    +0.000 A 
ATOM     27  C   UNL     1       0.861   9.600  19.050  0.00  0.00    +0.000 A 
BRANCH  25  28
ATOM     28  N   UNL     1       3.179   6.753  18.503  0.00  0.00    +0.000 N 
ATOM     29  C   UNL     1       3.942   7.108  17.298  0.00  0.00    +0.000 C 
ATOM     30  C   UNL     1       5.454   6.891  17.544  0.00  0.00    +0.000 C 
ATOM     31  N   UNL     1       5.797   5.537  18.025  0.00  0.00    +0.000 NA
ATOM     32  C   UNL     1       5.006   5.241  19.237  0.00  0.00    +0.000 C 
ATOM     33  C   UNL     1       3.484   5.410  19.030  0.00  0.00    +0.000 C 
ATOM     34  H   UNL     1       6.787   5.513  18.263  0.00  0.00    +0.000 HD
ENDBRANCH  25  28
ENDBRANCH   8  22
BRANCH   5  35
ATOM     35  N   UNL     1      -1.644  14.087  23.947  0.00  0.00    +0.000 N 
ATOM     36  H   UNL     1      -1.027  14.491  24.660  0.00  0.00    +0.000 HD
BRANCH  35  37
ATOM     37  C   UNL     1      -2.845  14.841  23.593  0.00  0.00    +0.000 C 
ATOM     38  C   UNL     1      -4.158  14.611  24.285  0.00  0.00    +0.000 C 
ATOM     39  C   UNL     1      -3.374  15.858  24.566  0.00  0.00    +0.000 C 
ENDBRANCH  35  37
ENDBRANCH   5  35
TORSDOF 5
ENDMDL
MODEL 8
REMARK VINA RESULT:      -7.6      4.662     10.851
REMARK  Name = 
REMARK  5 active torsions:
REMARK  status: ('A' for Active; 'I' for Inactive)
REMARK    1  A    between atoms: C_7  and  C_8
REMARK    2  A    between atoms: C_12  and  N_13
REMARK    3  A    between atoms: N_13  and  C_14
REMARK    4  A    between atoms: N_19  and  C_20
REMARK    5  A    between atoms: C_23  and  N_24
REMARK                            x       y       z     vdW  Elec       q    Type
REMARK                         _______ _______ _______ _____ _____    ______ ____
ROOT
ATOM      1  C   UNL     1       4.917   4.148  19.026  0.00  0.00    +0.000 A 
ATOM      2  C   UNL     1       6.085   3.473  18.627  0.00  0.00    +0.000 A 
ATOM      3  N   UNL     1       6.654   4.010  17.546  0.00  0.00    +0.000 NA
ATOM      4  N   UNL     1       5.875   5.099  17.264  0.00  0.00    +0.000 N 
ATOM      5  C   UNL     1       6.069   6.043  16.230  0.00  0.00    +0.000 A 
ATOM      6  C   UNL     1       5.192   7.059  16.140  0.00  0.00    +0.000 A 
ATOM      7  C   UNL     1       4.056   7.140  17.132  0.00  0.00    +0.000 A 
ATOM      8  N   UNL     1       3.220   8.240  17.023  0.00  0.00    +0.000 N 
ATOM      9  N   UNL     1       3.886   6.215  18.045  0.00  0.00    +0.000 NA
ATOM     10  C   UNL     1       4.793   5.199  18.138  0.00  0.00    +0.000 A 
ATOM     11  H   UNL     1       3.392   8.870  16.251  0.00  0.00    +0.000 HD
ENDROOT
BRANCH   1  18
ATOM     12  O   UNL     1      -0.088   2.320  18.612  0.00  0.00    +0.000 OA
ATOM     13  C   UNL     1       0.833   2.601  19.357  0.00  0.00    +0.000 C 
ATOM     14  N   UNL     1       0.793   2.582  20.726  0.00  0.00    +0.000 N 
ATOM     15  C   UNL     1       1.963   3.035  21.268  0.00  0.00    +0.000 C 
ATOM     16  O   UNL     1       2.239   3.181  22.442  0.00  0.00    +0.000 OA
ATOM     17  C   UNL     1       2.830   3.341  20.088  0.00  0.00    +0.000 C 
ATOM     18  C   UNL     1       4.073   3.830  20.136  0.00  0.00    +0.000 C 
ATOM     19  N   UNL     1       2.091   3.028  18.984  0.00  0.00    +0.000 N 
ATOM     20  H   UNL     1      -0.024   2.329  21.254  0.00  0.00    +0.000 HD
ATOM     21  H   UNL     1       2.368   3.241  18.032  0.00  0.00    +0.000 HD
ENDBRANCH   1  18
BRANCH   8  22
ATOM     22  C   UNL     1       2.316   8.764  17.969  0.00  0.00    +0.000 A 
ATOM     23  C   UNL     1       2.165   8.111  19.197  0.00  0.00    +0.000 A 
ATOM     24  C   UNL     1       1.242   8.562  20.158  0.00  0.00    +0.000 A 
ATOM     25  C   UNL     1       0.440   9.692  19.951  0.00  0.00    +0.000 A 
ATOM     26  C   UNL     1       0.605  10.337  18.724  0.00  0.00    +0.000 A 
ATOM     27  C   UNL     1       1.510   9.873  17.757  0.00  0.00    +0.000 A 
BRANCH  25  28
ATOM     28  N   UNL     1      -0.451  10.143  20.897  0.00  0.00    +0.000 N 
ATOM     29  C   UNL     1      -0.798   9.363  22.093  0.00  0.00    +0.000 C 
ATOM     30  C   UNL     1      -0.545  10.205  23.367  0.00  0.00    +0.000 C 
ATOM     31  N   UNL     1      -1.216  11.520  23.362  0.00  0.00    +0.000 NA
ATOM     32  C   UNL     1      -0.824  12.257  22.143  0.00  0.00    +0.000 C 
ATOM     33  C   UNL     1      -1.092  11.470  20.840  0.00  0.00    +0.000 C 
ATOM     34  H   UNL     1      -0.912  12.048  24.178  0.00  0.00    +0.000 HD
ENDBRANCH  25  28
ENDBRANCH   8  22
BRANCH   5  35
ATOM     35  N   UNL     1       7.177   5.847  15.405  0.00  0.00    +0.000 N 
ATOM     36  H   UNL     1       8.034   6.151  15.881  0.00  0.00    +0.000 HD
BRANCH  35  37
ATOM     37  C   UNL     1       7.268   4.663  14.552  0.00  0.00    +0.000 C 
ATOM     38  C   UNL     1       6.064   4.094  13.856  0.00  0.00    +0.000 C 
ATOM     39  C   UNL     1       7.106   4.829  13.066  0.00  0.00    +0.000 C 
ENDBRANCH  35  37
ENDBRANCH   5  35
TORSDOF 5
ENDMDL
MODEL 9
REMARK VINA RESULT:      -7.5      1.917      2.232
REMARK  Name = 
REMARK  5 active torsions:
REMARK  status: ('A' for Active; 'I' for Inactive)
REMARK    1  A    between atoms: C_7  and  C_8
REMARK    2  A    between atoms: C_12  and  N_13
REMARK    3  A    between atoms: N_13  and  C_14
REMARK    4  A    between atoms: N_19  and  C_20
REMARK    5  A    between atoms: C_23  and  N_24
REMARK                            x       y       z     vdW  Elec       q    Type
REMARK                         _______ _______ _______ _____ _____    ______ ____
ROOT
ATOM      1  C   UNL     1       2.923  14.367  19.101  0.00  0.00    +0.000 A 
ATOM      2  C   UNL     1       2.535  15.616  19.618  0.00  0.00    +0.000 A 
ATOM      3  N   UNL     1       1.291  15.616  20.102  0.00  0.00    +0.000 NA
ATOM      4  N   UNL     1       0.875  14.321  19.954  0.00  0.00    +0.000 N 
ATOM      5  C   UNL     1      -0.366  13.772  20.350  0.00  0.00    +0.000 A 
ATOM      6  C   UNL     1      -0.566  12.460  20.130  0.00  0.00    +0.000 A 
ATOM      7  C   UNL     1       0.527  11.649  19.477  0.00  0.00    +0.000 A 
ATOM      8  N   UNL     1       0.282  10.292  19.329  0.00  0.00    +0.000 N 
ATOM      9  N   UNL     1       1.643  12.210  19.080  0.00  0.00    +0.000 NA
ATOM     10  C   UNL     1       1.842  13.538  19.326  0.00  0.00    +0.000 A 
ATOM     11  H   UNL     1      -0.630   9.959  19.609  0.00  0.00    +0.000 HD
ENDROOT
BRANCH   1  18
ATOM     12  O   UNL     1       7.093  17.692  18.751  0.00  0.00    +0.000 OA
ATOM     13  C   UNL     1       6.671  16.567  18.554  0.00  0.00    +0.000 C 
ATOM     14  N   UNL     1       7.347  15.553  17.928  0.00  0.00    +0.000 N 
ATOM     15  C   UNL     1       6.564  14.441  17.786  0.00  0.00    +0.000 C 
ATOM     16  O   UNL     1       6.845  13.391  17.244  0.00  0.00    +0.000 OA
ATOM     17  C   UNL     1       5.265  14.812  18.426  0.00  0.00    +0.000 C 
ATOM     18  C   UNL     1       4.182  14.032  18.511  0.00  0.00    +0.000 C 
ATOM     19  N   UNL     1       5.419  16.089  18.885  0.00  0.00    +0.000 N 
ATOM     20  H   UNL     1       8.278  15.649  17.562  0.00  0.00    +0.000 HD
ATOM     21  H   UNL     1       4.667  16.657  19.261  0.00  0.00    +0.000 HD
ENDBRANCH   1  18
BRANCH   8  22
ATOM     22  C   UNL     1       1.196   9.248  19.083  0.00  0.00    +0.000 A 
ATOM     23  C   UNL     1       1.789   9.149  17.819  0.00  0.00    +0.000 A 
ATOM     24  C   UNL     1       2.671   8.099  17.503  0.00  0.00    +0.000 A 
ATOM     25  C   UNL     1       3.018   7.110  18.432  0.00  0.00    +0.000 A 
ATOM     26  C   UNL     1       2.423   7.223  19.690  0.00  0.00    +0.000 A 
ATOM     27  C   UNL     1       1.526   8.259  19.997  0.00  0.00    +0.000 A 
BRANCH  25  28
ATOM     28  N   UNL     1       3.892   6.092  18.130  0.00  0.00    +0.000 N 
ATOM     29  C   UNL     1       5.289   6.336  17.747  0.00  0.00    +0.000 C 
ATOM     30  C   UNL     1       6.240   5.544  18.675  0.00  0.00    +0.000 C 
ATOM     31  N   UNL     1       5.942   4.099  18.749  0.00  0.00    +0.000 NA
ATOM     32  C   UNL     1       4.530   3.918  19.144  0.00  0.00    +0.000 C 
ATOM     33  C   UNL     1       3.537   4.664  18.224  0.00  0.00    +0.000 C 
ATOM     34  H   UNL     1       6.539   3.676  19.457  0.00  0.00    +0.000 HD
ENDBRANCH  25  28
ENDBRANCH   8  22
BRANCH   5  35
ATOM     35  N   UNL     1      -1.267  14.643  20.962  0.00  0.00    +0.000 N 
ATOM     36  H   UNL     1      -1.797  15.163  20.253  0.00  0.00    +0.000 HD
BRANCH  35  37
ATOM     37  C   UNL     1      -1.981  14.244  22.174  0.00  0.00    +0.000 C 
ATOM     38  C   UNL     1      -1.266  14.017  23.476  0.00  0.00    +0.000 C 
ATOM     39  C   UNL     1      -2.116  15.239  23.294  0.00  0.00    +0.000 C 
ENDBRANCH  35  37
ENDBRANCH   5  35
TORSDOF 5
ENDMDL
