MODEL 1
REMARK VINA RESULT:      -8.0      0.000      0.000
REMARK  Name = 
REMARK  7 active torsions:
REMARK  status: ('A' for Active; 'I' for Inactive)
REMARK    1  A    between atoms: C_1  and  C_2
REMARK    2  A    between atoms: C_3  and  N_4
REMARK    3  A    between atoms: N_4  and  C_5
REMARK    4  A    between atoms: C_6  and  C_7
REMARK    5  A    between atoms: C_12  and  C_13
REMARK    6  A    between atoms: C_13  and  C_14
REMARK    7  A    between atoms: C_14  and  C_15
REMARK                            x       y       z     vdW  Elec       q    Type
REMARK                         _______ _______ _______ _____ _____    ______ ____
ROOT
ATOM      1  C   UNL     1       1.850   7.953  19.935  0.00  0.00    +0.000 A 
ATOM      2  C   UNL     1       1.250   9.029  20.634  0.00  0.00    +0.000 A 
ATOM      3  C   UNL     1       0.691  10.078  19.916  0.00  0.00    +0.000 A 
ATOM      4  N   UNL     1       0.693  10.156  18.574  0.00  0.00    +0.000 NA
ATOM      5  C   UNL     1       1.320   9.159  17.921  0.00  0.00    +0.000 A 
ATOM      6  C   UNL     1       1.941   8.053  18.524  0.00  0.00    +0.000 A 
ENDROOT
BRANCH   1   7
ATOM      7  N   UNL     1       2.259   6.786  20.636  0.00  0.00    +0.000 N 
ATOM      8  H   UNL     1       3.028   6.904  21.290  0.00  0.00    +0.000 HD
BRANCH   7  11
ATOM      9  C   UNL     1       4.702   5.364  19.815  0.00  0.00    +0.000 C 
ATOM     10  C   UNL     1       3.337   4.735  19.760  0.00  0.00    +0.000 A 
ATOM     11  C   UNL     1       2.173   5.427  20.200  0.00  0.00    +0.000 A 
ATOM     12  C   UNL     1       0.943   4.749  20.241  0.00  0.00    +0.000 A 
ATOM     13  C   UNL     1       0.809   3.411  19.863  0.00  0.00    +0.000 A 
ATOM     14  C   UNL     1       1.941   2.777  19.357  0.00  0.00    +0.000 A 
ATOM     15  N   UNL     1       2.087   1.497  18.870  0.00  0.00    +0.000 N 
ATOM     16  C   UNL     1       3.365   1.303  18.426  0.00  0.00    +0.000 A 
ATOM     17  C   UNL     1       4.073   2.455  18.685  0.00  0.00    +0.000 A 
ATOM     18  C   UNL     1       3.183   3.403  19.279  0.00  0.00    +0.000 A 
ATOM     19  H   UNL     1       1.345   0.812  18.829  0.00  0.00    +0.000 HD
ENDBRANCH   7  11
ENDBRANCH   1   7
BRANCH   2  20
ATOM     20  C   UNL     1       1.225   9.138  22.064  0.00  0.00    +0.000 C 
ATOM     21  N   UNL     1       1.261   9.280  23.215  0.00  0.00    +0.000 NA
ENDBRANCH   2  20
BRANCH   6  22
ATOM     22  C   UNL     1       2.630   7.062  17.599  0.00  0.00    +0.000 C 
BRANCH  22  23
ATOM     23  C   UNL     1       3.986   7.588  17.066  0.00  0.00    +0.000 C 
BRANCH  23  24
ATOM     24  C   UNL     1       5.101   6.591  16.826  0.00  0.00    +0.000 A 
ATOM     25  C   UNL     1       6.441   6.820  17.158  0.00  0.00    +0.000 A 
ATOM     26  C   UNL     1       7.419   5.858  16.880  0.00  0.00    +0.000 A 
ATOM     27  C   UNL     1       7.071   4.649  16.280  0.00  0.00    +0.000 A 
ATOM     28  C   UNL     1       5.739   4.390  15.975  0.00  0.00    +0.000 A 
ATOM     29  C   UNL     1       4.763   5.351  16.251  0.00  0.00    +0.000 A 
ENDBRANCH  23  24
ENDBRANCH  22  23
ENDBRANCH   6  22
TORSDOF 6
ENDMDL
MODEL 2
REMARK VINA RESULT:      -7.9      2.485      6.008
REMARK  Name = 
REMARK  7 active torsions:
REMARK  status: ('A' for Active; 'I' for Inactive)
REMARK    1  A    between atoms: C_1  and  C_2
REMARK    2  A    between atoms: C_3  and  N_4
REMARK    3  A    between atoms: N_4  and  C_5
REMARK    4  A    between atoms: C_6  and  C_7
REMARK    5  A    between atoms: C_12  and  C_13
REMARK    6  A    between atoms: C_13  and  C_14
REMARK    7  A    between atoms: C_14  and  C_15
REMARK                            x       y       z     vdW  Elec       q    Type
REMARK                         _______ _______ _______ _____ _____    ______ ____
ROOT
ATOM      1  C   UNL     1       5.285   5.205  16.614  0.00  0.00    +0.000 A 
ATOM      2  C   UNL     1       6.256   4.967  15.611  0.00  0.00    +0.000 A 
ATOM      3  C   UNL     1       7.360   5.805  15.521  0.00  0.00    +0.000 A 
ATOM      4  N   UNL     1       7.569   6.862  16.325  0.00  0.00    +0.000 NA
ATOM      5  C   UNL     1       6.608   7.116  17.235  0.00  0.00    +0.000 A 
ATOM      6  C   UNL     1       5.438   6.363  17.418  0.00  0.00    +0.000 A 
ENDROOT
BRANCH   1   7
ATOM      7  N   UNL     1       4.250   4.258  16.845  0.00  0.00    +0.000 N 
ATOM      8  H   UNL     1       3.486   4.258  16.176  0.00  0.00    +0.000 HD
BRANCH   7  11
ATOM      9  C   UNL     1       1.423   4.484  17.636  0.00  0.00    +0.000 C 
ATOM     10  C   UNL     1       2.467   3.852  18.517  0.00  0.00    +0.000 A 
ATOM     11  C   UNL     1       3.821   3.718  18.097  0.00  0.00    +0.000 A 
ATOM     12  C   UNL     1       4.726   3.011  18.908  0.00  0.00    +0.000 A 
ATOM     13  C   UNL     1       4.353   2.432  20.123  0.00  0.00    +0.000 A 
ATOM     14  C   UNL     1       3.046   2.646  20.555  0.00  0.00    +0.000 A 
ATOM     15  N   UNL     1       2.427   2.240  21.717  0.00  0.00    +0.000 N 
ATOM     16  C   UNL     1       1.145   2.713  21.759  0.00  0.00    +0.000 A 
ATOM     17  C   UNL     1       0.912   3.384  20.580  0.00  0.00    +0.000 A 
ATOM     18  C   UNL     1       2.110   3.349  19.801  0.00  0.00    +0.000 A 
ATOM     19  H   UNL     1       2.871   1.691  22.439  0.00  0.00    +0.000 HD
ENDBRANCH   7  11
ENDBRANCH   1   7
BRANCH   2  20
ATOM     20  C   UNL     1       6.151   3.927  14.627  0.00  0.00    +0.000 C 
ATOM     21  N   UNL     1       6.032   3.139  13.784  0.00  0.00    +0.000 NA
ENDBRANCH   2  20
BRANCH   6  22
ATOM     22  C   UNL     1       4.463   6.852  18.477  0.00  0.00    +0.000 C 
BRANCH  22  23
ATOM     23  C   UNL     1       3.203   7.515  17.867  0.00  0.00    +0.000 C 
BRANCH  23  24
ATOM     24  C   UNL     1       2.200   8.152  18.805  0.00  0.00    +0.000 A 
ATOM     25  C   UNL     1       1.448   9.290  18.493  0.00  0.00    +0.000 A 
ATOM     26  C   UNL     1       0.558   9.837  19.426  0.00  0.00    +0.000 A 
ATOM     27  C   UNL     1       0.397   9.247  20.678  0.00  0.00    +0.000 A 
ATOM     28  C   UNL     1       1.111   8.095  20.994  0.00  0.00    +0.000 A 
ATOM     29  C   UNL     1       1.999   7.551  20.063  0.00  0.00    +0.000 A 
ENDBRANCH  23  24
ENDBRANCH  22  23
ENDBRANCH   6  22
TORSDOF 6
ENDMDL
MODEL 3
REMARK VINA RESULT:      -7.8      2.135      6.201
REMARK  Name = 
REMARK  7 active torsions:
REMARK  status: ('A' for Active; 'I' for Inactive)
REMARK    1  A    between atoms: C_1  and  C_2
REMARK    2  A    between atoms: C_3  and  N_4
REMARK    3  A    between atoms: N_4  and  C_5
REMARK    4  A    between atoms: C_6  and  C_7
REMARK    5  A    between atoms: C_12  and  C_13
REMARK    6  A    between atoms: C_13  and  C_14
REMARK    7  A    between atoms: C_14  and  C_15
REMARK                            x       y       z     vdW  Elec       q    Type
REMARK                         _______ _______ _______ _____ _____    ______ ____
ROOT
ATOM      1  C   UNL     1       4.836   5.953  17.004  0.00  0.00    +0.000 A 
ATOM      2  C   UNL     1       6.226   6.220  16.945  0.00  0.00    +0.000 A 
ATOM      3  C   UNL     1       7.091   5.224  16.512  0.00  0.00    +0.000 A 
ATOM      4  N   UNL     1       6.697   3.989  16.154  0.00  0.00    +0.000 NA
ATOM      5  C   UNL     1       5.381   3.726  16.274  0.00  0.00    +0.000 A 
ATOM      6  C   UNL     1       4.405   4.634  16.715  0.00  0.00    +0.000 A 
ENDROOT
BRANCH   1   7
ATOM      7  N   UNL     1       3.917   7.007  17.262  0.00  0.00    +0.000 N 
ATOM      8  H   UNL     1       4.130   7.902  16.832  0.00  0.00    +0.000 HD
BRANCH   7  11
ATOM      9  C   UNL     1       2.157   9.360  17.441  0.00  0.00    +0.000 C 
ATOM     10  C   UNL     1       2.267   8.340  18.542  0.00  0.00    +0.000 A 
ATOM     11  C   UNL     1       3.094   7.188  18.418  0.00  0.00    +0.000 A 
ATOM     12  C   UNL     1       3.064   6.207  19.424  0.00  0.00    +0.000 A 
ATOM     13  C   UNL     1       2.253   6.316  20.555  0.00  0.00    +0.000 A 
ATOM     14  C   UNL     1       1.514   7.488  20.699  0.00  0.00    +0.000 A 
ATOM     15  N   UNL     1       0.679   7.880  21.721  0.00  0.00    +0.000 N 
ATOM     16  C   UNL     1       0.194   9.136  21.480  0.00  0.00    +0.000 A 
ATOM     17  C   UNL     1       0.675   9.537  20.254  0.00  0.00    +0.000 A 
ATOM     18  C   UNL     1       1.515   8.500  19.742  0.00  0.00    +0.000 A 
ATOM     19  H   UNL     1       0.476   7.324  22.540  0.00  0.00    +0.000 HD
ENDBRANCH   7  11
ENDBRANCH   1   7
BRANCH   2  20
ATOM     20  C   UNL     1       6.819   7.459  17.357  0.00  0.00    +0.000 C 
ATOM     21  N   UNL     1       7.360   8.419  17.721  0.00  0.00    +0.000 NA
ENDBRANCH   2  20
BRANCH   6  22
ATOM     22  C   UNL     1       2.979   4.115  16.815  0.00  0.00    +0.000 C 
BRANCH  22  23
ATOM     23  C   UNL     1       2.891   2.754  17.550  0.00  0.00    +0.000 C 
BRANCH  23  24
ATOM     24  C   UNL     1       2.498   2.751  19.013  0.00  0.00    +0.000 A 
ATOM     25  C   UNL     1       3.398   2.552  20.065  0.00  0.00    +0.000 A 
ATOM     26  C   UNL     1       2.953   2.536  21.392  0.00  0.00    +0.000 A 
ATOM     27  C   UNL     1       1.606   2.733  21.688  0.00  0.00    +0.000 A 
ATOM     28  C   UNL     1       0.702   2.967  20.657  0.00  0.00    +0.000 A 
ATOM     29  C   UNL     1       1.146   2.981  19.333  0.00  0.00    +0.000 A 
ENDBRANCH  23  24
ENDBRANCH  22  23
ENDBRANCH   6  22
TORSDOF 6
ENDMDL
MODEL 4
REMARK VINA RESULT:      -7.8      2.207      6.340
REMARK  Name = 
REMARK  7 active torsions:
REMARK  status: ('A' for Active; 'I' for Inactive)
REMARK    1  A    between atoms: C_1  and  C_2
REMARK    2  A    between atoms: C_3  and  N_4
REMARK    3  A    between atoms: N_4  and  C_5
REMARK    4  A    between atoms: C_6  and  C_7
REMARK    5  A    between atoms: C_12  and  C_13
REMARK    6  A    between atoms: C_13  and  C_14
REMARK    7  A    between atoms: C_14  and  C_15
REMARK                            x       y       z     vdW  Elec       q    Type
REMARK                         _______ _______ _______ _____ _____    ______ ____
ROOT
ATOM      1  C   UNL     1       5.261   4.620  17.780  0.00  0.00    +0.000 A 
ATOM      2  C   UNL     1       6.646   4.838  17.582  0.00  0.00    +0.000 A 
ATOM      3  C   UNL     1       7.205   4.573  16.339  0.00  0.00    +0.000 A 
ATOM      4  N   UNL     1       6.512   4.096  15.290  0.00  0.00    +0.000 NA
ATOM      5  C   UNL     1       5.209   3.834  15.507  0.00  0.00    +0.000 A 
ATOM      6  C   UNL     1       4.527   4.037  16.717  0.00  0.00    +0.000 A 
ENDROOT
BRANCH   1   7
ATOM      7  N   UNL     1       4.633   5.058  18.979  0.00  0.00    +0.000 N 
ATOM      8  H   UNL     1       4.549   4.366  19.718  0.00  0.00    +0.000 HD
BRANCH   7  11
ATOM      9  C   UNL     1       4.379   7.153  16.927  0.00  0.00    +0.000 C 
ATOM     10  C   UNL     1       3.525   7.119  18.165  0.00  0.00    +0.000 A 
ATOM     11  C   UNL     1       3.637   6.073  19.125  0.00  0.00    +0.000 A 
ATOM     12  C   UNL     1       2.732   6.025  20.199  0.00  0.00    +0.000 A 
ATOM     13  C   UNL     1       1.718   6.969  20.370  0.00  0.00    +0.000 A 
ATOM     14  C   UNL     1       1.676   8.030  19.469  0.00  0.00    +0.000 A 
ATOM     15  N   UNL     1       0.828   9.114  19.425  0.00  0.00    +0.000 N 
ATOM     16  C   UNL     1       1.175   9.944  18.396  0.00  0.00    +0.000 A 
ATOM     17  C   UNL     1       2.225   9.358  17.726  0.00  0.00    +0.000 A 
ATOM     18  C   UNL     1       2.556   8.138  18.394  0.00  0.00    +0.000 A 
ATOM     19  H   UNL     1       0.074   9.276  20.078  0.00  0.00    +0.000 HD
ENDBRANCH   7  11
ENDBRANCH   1   7
BRANCH   2  20
ATOM     20  C   UNL     1       7.542   5.275  18.614  0.00  0.00    +0.000 C 
ATOM     21  N   UNL     1       8.244   5.566  19.491  0.00  0.00    +0.000 NA
ENDBRANCH   2  20
BRANCH   6  22
ATOM     22  C   UNL     1       3.061   3.632  16.757  0.00  0.00    +0.000 C 
BRANCH  22  23
ATOM     23  C   UNL     1       2.819   2.356  17.601  0.00  0.00    +0.000 C 
BRANCH  23  24
ATOM     24  C   UNL     1       2.331   2.518  19.026  0.00  0.00    +0.000 A 
ATOM     25  C   UNL     1       1.019   2.865  19.369  0.00  0.00    +0.000 A 
ATOM     26  C   UNL     1       0.651   3.023  20.711  0.00  0.00    +0.000 A 
ATOM     27  C   UNL     1       1.582   2.823  21.727  0.00  0.00    +0.000 A 
ATOM     28  C   UNL     1       2.881   2.444  21.407  0.00  0.00    +0.000 A 
ATOM     29  C   UNL     1       3.249   2.288  20.068  0.00  0.00    +0.000 A 
ENDBRANCH  23  24
ENDBRANCH  22  23
ENDBRANCH   6  22
TORSDOF 6
ENDMDL
MODEL 5
REMARK VINA RESULT:      -7.7      2.248      6.607
REMARK  Name = 
REMARK  7 active torsions:
REMARK  status: ('A' for Active; 'I' for Inactive)
REMARK    1  A    between atoms: C_1  and  C_2
REMARK    2  A    between atoms: C_3  and  N_4
REMARK    3  A    between atoms: N_4  and  C_5
REMARK    4  A    between atoms: C_6  and  C_7
REMARK    5  A    between atoms: C_12  and  C_13
REMARK    6  A    between atoms: C_13  and  C_14
REMARK    7  A    between atoms: C_14  and  C_15
REMARK                            x       y       z     vdW  Elec       q    Type
REMARK                         _______ _______ _______ _____ _____    ______ ____
ROOT
ATOM      1  C   UNL     1       3.151   4.652  20.155  0.00  0.00    +0.000 A 
ATOM      2  C   UNL     1       3.081   3.238  20.187  0.00  0.00    +0.000 A 
ATOM      3  C   UNL     1       1.838   2.620  20.208  0.00  0.00    +0.000 A 
ATOM      4  N   UNL     1       0.668   3.283  20.219  0.00  0.00    +0.000 NA
ATOM      5  C   UNL     1       0.747   4.627  20.251  0.00  0.00    +0.000 A 
ATOM      6  C   UNL     1       1.935   5.375  20.252  0.00  0.00    +0.000 A 
ENDROOT
BRANCH   1   7
ATOM      7  N   UNL     1       4.399   5.300  19.945  0.00  0.00    +0.000 N 
ATOM      8  H   UNL     1       4.506   6.214  20.375  0.00  0.00    +0.000 HD
BRANCH   7  11
ATOM      9  C   UNL     1       3.294   5.328  17.216  0.00  0.00    +0.000 C 
ATOM     10  C   UNL     1       4.759   5.136  17.499  0.00  0.00    +0.000 A 
ATOM     11  C   UNL     1       5.278   5.166  18.825  0.00  0.00    +0.000 A 
ATOM     12  C   UNL     1       6.668   5.103  19.022  0.00  0.00    +0.000 A 
ATOM     13  C   UNL     1       7.573   5.009  17.963  0.00  0.00    +0.000 A 
ATOM     14  C   UNL     1       7.044   4.896  16.680  0.00  0.00    +0.000 A 
ATOM     15  N   UNL     1       7.689   4.743  15.473  0.00  0.00    +0.000 N 
ATOM     16  C   UNL     1       6.777   4.623  14.462  0.00  0.00    +0.000 A 
ATOM     17  C   UNL     1       5.524   4.761  15.015  0.00  0.00    +0.000 A 
ATOM     18  C   UNL     1       5.675   4.938  16.425  0.00  0.00    +0.000 A 
ATOM     19  H   UNL     1       8.692   4.704  15.362  0.00  0.00    +0.000 HD
ENDBRANCH   7  11
ENDBRANCH   1   7
BRANCH   2  20
ATOM     20  C   UNL     1       4.230   2.382  20.252  0.00  0.00    +0.000 C 
ATOM     21  N   UNL     1       5.176   1.721  20.375  0.00  0.00    +0.000 NA
ENDBRANCH   2  20
BRANCH   6  22
ATOM     22  C   UNL     1       1.797   6.887  20.334  0.00  0.00    +0.000 C 
BRANCH  22  23
ATOM     23  C   UNL     1       0.838   7.336  21.465  0.00  0.00    +0.000 C 
BRANCH  23  24
ATOM     24  C   UNL     1       0.432   8.794  21.527  0.00  0.00    +0.000 A 
ATOM     25  C   UNL     1      -0.174   9.393  22.637  0.00  0.00    +0.000 A 
ATOM     26  C   UNL     1      -0.546  10.742  22.607  0.00  0.00    +0.000 A 
ATOM     27  C   UNL     1      -0.305  11.516  21.474  0.00  0.00    +0.000 A 
ATOM     28  C   UNL     1       0.327  10.947  20.373  0.00  0.00    +0.000 A 
ATOM     29  C   UNL     1       0.696   9.600  20.402  0.00  0.00    +0.000 A 
ENDBRANCH  23  24
ENDBRANCH  22  23
ENDBRANCH   6  22
TORSDOF 6
ENDMDL
MODEL 6
REMARK VINA RESULT:      -7.6      2.367      5.888
REMARK  Name = 
REMARK  7 active torsions:
REMARK  status: ('A' for Active; 'I' for Inactive)
REMARK    1  A    between atoms: C_1  and  C_2
REMARK    2  A    between atoms: C_3  and  N_4
REMARK    3  A    between atoms: N_4  and  C_5
REMARK    4  A    between atoms: C_6  and  C_7
REMARK    5  A    between atoms: C_12  and  C_13
REMARK    6  A    between atoms: C_13  and  C_14
REMARK    7  A    between atoms: C_14  and  C_15
REMARK                            x       y       z     vdW  Elec       q    Type
REMARK                         _______ _______ _______ _____ _____    ______ ____
ROOT
ATOM      1  C   UNL     1       5.119   5.124  16.460  0.00  0.00    +0.000 A 
ATOM      2  C   UNL     1       6.187   4.956  15.544  0.00  0.00    +0.000 A 
ATOM      3  C   UNL     1       7.287   5.799  15.622  0.00  0.00    +0.000 A 
ATOM      4  N   UNL     1       7.407   6.799  16.512  0.00  0.00    +0.000 NA
ATOM      5  C   UNL     1       6.359   6.990  17.338  0.00  0.00    +0.000 A 
ATOM      6  C   UNL     1       5.183   6.224  17.352  0.00  0.00    +0.000 A 
ENDROOT
BRANCH   1   7
ATOM      7  N   UNL     1       4.074   4.162  16.522  0.00  0.00    +0.000 N 
ATOM      8  H   UNL     1       3.639   3.916  15.638  0.00  0.00    +0.000 HD
BRANCH   7  11
ATOM      9  C   UNL     1       5.147   3.239  19.104  0.00  0.00    +0.000 C 
ATOM     10  C   UNL     1       3.675   3.423  18.853  0.00  0.00    +0.000 A 
ATOM     11  C   UNL     1       3.180   3.909  17.610  0.00  0.00    +0.000 A 
ATOM     12  C   UNL     1       1.808   4.178  17.472  0.00  0.00    +0.000 A 
ATOM     13  C   UNL     1       0.896   3.984  18.512  0.00  0.00    +0.000 A 
ATOM     14  C   UNL     1       1.385   3.430  19.693  0.00  0.00    +0.000 A 
ATOM     15  N   UNL     1       0.716   3.090  20.847  0.00  0.00    +0.000 N 
ATOM     16  C   UNL     1       1.579   2.525  21.745  0.00  0.00    +0.000 A 
ATOM     17  C   UNL     1       2.837   2.556  21.186  0.00  0.00    +0.000 A 
ATOM     18  C   UNL     1       2.733   3.130  19.881  0.00  0.00    +0.000 A 
ATOM     19  H   UNL     1      -0.275   3.221  20.994  0.00  0.00    +0.000 HD
ENDBRANCH   7  11
ENDBRANCH   1   7
BRANCH   2  20
ATOM     20  C   UNL     1       6.187   3.986  14.487  0.00  0.00    +0.000 C 
ATOM     21  N   UNL     1       6.209   3.259  13.583  0.00  0.00    +0.000 NA
ENDBRANCH   2  20
BRANCH   6  22
ATOM     22  C   UNL     1       4.104   6.638  18.340  0.00  0.00    +0.000 C 
BRANCH  22  23
ATOM     23  C   UNL     1       3.065   7.604  17.717  0.00  0.00    +0.000 C 
BRANCH  23  24
ATOM     24  C   UNL     1       2.092   8.307  18.642  0.00  0.00    +0.000 A 
ATOM     25  C   UNL     1       1.342   9.432  18.281  0.00  0.00    +0.000 A 
ATOM     26  C   UNL     1       0.483  10.042  19.202  0.00  0.00    +0.000 A 
ATOM     27  C   UNL     1       0.350   9.530  20.491  0.00  0.00    +0.000 A 
ATOM     28  C   UNL     1       1.061   8.393  20.857  0.00  0.00    +0.000 A 
ATOM     29  C   UNL     1       1.920   7.784  19.938  0.00  0.00    +0.000 A 
ENDBRANCH  23  24
ENDBRANCH  22  23
ENDBRANCH   6  22
TORSDOF 6
ENDMDL
MODEL 7
REMARK VINA RESULT:      -7.6      2.427      6.350
REMARK  Name = 
REMARK  7 active torsions:
REMARK  status: ('A' for Active; 'I' for Inactive)
REMARK    1  A    between atoms: C_1  and  C_2
REMARK    2  A    between atoms: C_3  and  N_4
REMARK    3  A    between atoms: N_4  and  C_5
REMARK    4  A    between atoms: C_6  and  C_7
REMARK    5  A    between atoms: C_12  and  C_13
REMARK    6  A    between atoms: C_13  and  C_14
REMARK    7  A    between atoms: C_14  and  C_15
REMARK                            x       y       z     vdW  Elec       q    Type
REMARK                         _______ _______ _______ _____ _____    ______ ____
ROOT
ATOM      1  C   UNL     1       3.583   4.025  19.440  0.00  0.00    +0.000 A 
ATOM      2  C   UNL     1       3.376   2.763  20.049  0.00  0.00    +0.000 A 
ATOM      3  C   UNL     1       2.104   2.205  20.042  0.00  0.00    +0.000 A 
ATOM      4  N   UNL     1       1.026   2.799  19.502  0.00  0.00    +0.000 NA
ATOM      5  C   UNL     1       1.221   4.026  18.981  0.00  0.00    +0.000 A 
ATOM      6  C   UNL     1       2.447   4.709  18.940  0.00  0.00    +0.000 A 
ENDROOT
BRANCH   1   7
ATOM      7  N   UNL     1       4.902   4.527  19.270  0.00  0.00    +0.000 N 
ATOM      8  H   UNL     1       5.258   5.112  20.020  0.00  0.00    +0.000 HD
BRANCH   7  11
ATOM      9  C   UNL     1       4.196   3.035  16.832  0.00  0.00    +0.000 C 
ATOM     10  C   UNL     1       5.279   4.079  16.862  0.00  0.00    +0.000 A 
ATOM     11  C   UNL     1       5.577   4.817  18.043  0.00  0.00    +0.000 A 
ATOM     12  C   UNL     1       6.512   5.864  17.982  0.00  0.00    +0.000 A 
ATOM     13  C   UNL     1       7.173   6.214  16.803  0.00  0.00    +0.000 A 
ATOM     14  C   UNL     1       6.931   5.427  15.680  0.00  0.00    +0.000 A 
ATOM     15  N   UNL     1       7.471   5.510  14.416  0.00  0.00    +0.000 N 
ATOM     16  C   UNL     1       6.988   4.502  13.628  0.00  0.00    +0.000 A 
ATOM     17  C   UNL     1       6.076   3.792  14.377  0.00  0.00    +0.000 A 
ATOM     18  C   UNL     1       6.025   4.369  15.684  0.00  0.00    +0.000 A 
ATOM     19  H   UNL     1       8.144   6.205  14.126  0.00  0.00    +0.000 HD
ENDBRANCH   7  11
ENDBRANCH   1   7
BRANCH   2  20
ATOM     20  C   UNL     1       4.401   2.027  20.732  0.00  0.00    +0.000 C 
ATOM     21  N   UNL     1       5.182   1.370  21.285  0.00  0.00    +0.000 NA
ENDBRANCH   2  20
BRANCH   6  22
ATOM     22  C   UNL     1       2.436   6.107  18.342  0.00  0.00    +0.000 C 
BRANCH  22  23
ATOM     23  C   UNL     1       2.811   7.200  19.374  0.00  0.00    +0.000 C 
BRANCH  23  24
ATOM     24  C   UNL     1       1.730   8.157  19.833  0.00  0.00    +0.000 A 
ATOM     25  C   UNL     1       1.125   8.109  21.094  0.00  0.00    +0.000 A 
ATOM     26  C   UNL     1       0.112   9.014  21.434  0.00  0.00    +0.000 A 
ATOM     27  C   UNL     1      -0.300   9.986  20.527  0.00  0.00    +0.000 A 
ATOM     28  C   UNL     1       0.313  10.072  19.282  0.00  0.00    +0.000 A 
ATOM     29  C   UNL     1       1.323   9.168  18.941  0.00  0.00    +0.000 A 
ENDBRANCH  23  24
ENDBRANCH  22  23
ENDBRANCH   6  22
TORSDOF 6
ENDMDL
MODEL 8
REMARK VINA RESULT:      -7.6      2.398      6.368
REMARK  Name = 
REMARK  7 active torsions:
REMARK  status: ('A' for Active; 'I' for Inactive)
REMARK    1  A    between atoms: C_1  and  C_2
REMARK    2  A    between atoms: C_3  and  N_4
REMARK    3  A    between atoms: N_4  and  C_5
REMARK    4  A    between atoms: C_6  and  C_7
REMARK    5  A    between atoms: C_12  and  C_13
REMARK    6  A    between atoms: C_13  and  C_14
REMARK    7  A    between atoms: C_14  and  C_15
REMARK                            x       y       z     vdW  Elec       q    Type
REMARK                         _______ _______ _______ _____ _____    ______ ____
ROOT
ATOM      1  C   UNL     1       3.617   4.308  19.863  0.00  0.00    +0.000 A 
ATOM      2  C   UNL     1       3.393   2.963  20.249  0.00  0.00    +0.000 A 
ATOM      3  C   UNL     1       2.094   2.475  20.286  0.00  0.00    +0.000 A 
ATOM      4  N   UNL     1       1.006   3.208  19.994  0.00  0.00    +0.000 NA
ATOM      5  C   UNL     1       1.225   4.502  19.689  0.00  0.00    +0.000 A 
ATOM      6  C   UNL     1       2.482   5.125  19.633  0.00  0.00    +0.000 A 
ENDROOT
BRANCH   1   7
ATOM      7  N   UNL     1       4.941   4.774  19.636  0.00  0.00    +0.000 N 
ATOM      8  H   UNL     1       5.332   5.378  20.354  0.00  0.00    +0.000 HD
BRANCH   7  11
ATOM      9  C   UNL     1       4.070   3.275  17.257  0.00  0.00    +0.000 C 
ATOM     10  C   UNL     1       5.207   4.261  17.227  0.00  0.00    +0.000 A 
ATOM     11  C   UNL     1       5.585   5.004  18.381  0.00  0.00    +0.000 A 
ATOM     12  C   UNL     1       6.572   5.998  18.266  0.00  0.00    +0.000 A 
ATOM     13  C   UNL     1       7.207   6.290  17.057  0.00  0.00    +0.000 A 
ATOM     14  C   UNL     1       6.884   5.496  15.959  0.00  0.00    +0.000 A 
ATOM     15  N   UNL     1       7.382   5.526  14.676  0.00  0.00    +0.000 N 
ATOM     16  C   UNL     1       6.819   4.530  13.927  0.00  0.00    +0.000 A 
ATOM     17  C   UNL     1       5.898   3.885  14.721  0.00  0.00    +0.000 A 
ATOM     18  C   UNL     1       5.925   4.488  16.018  0.00  0.00    +0.000 A 
ATOM     19  H   UNL     1       8.080   6.179  14.348  0.00  0.00    +0.000 HD
ENDBRANCH   7  11
ENDBRANCH   1   7
BRANCH   2  20
ATOM     20  C   UNL     1       4.434   2.066  20.660  0.00  0.00    +0.000 C 
ATOM     21  N   UNL     1       5.288   1.387  21.056  0.00  0.00    +0.000 NA
ENDBRANCH   2  20
BRANCH   6  22
ATOM     22  C   UNL     1       2.500   6.610  19.308  0.00  0.00    +0.000 C 
BRANCH  22  23
ATOM     23  C   UNL     1       1.879   7.473  20.435  0.00  0.00    +0.000 C 
BRANCH  23  24
ATOM     24  C   UNL     1       1.226   8.787  20.057  0.00  0.00    +0.000 A 
ATOM     25  C   UNL     1       1.291   9.355  18.780  0.00  0.00    +0.000 A 
ATOM     26  C   UNL     1       0.684  10.589  18.516  0.00  0.00    +0.000 A 
ATOM     27  C   UNL     1      -0.008  11.265  19.518  0.00  0.00    +0.000 A 
ATOM     28  C   UNL     1      -0.112  10.700  20.785  0.00  0.00    +0.000 A 
ATOM     29  C   UNL     1       0.495   9.470  21.049  0.00  0.00    +0.000 A 
ENDBRANCH  23  24
ENDBRANCH  22  23
ENDBRANCH   6  22
TORSDOF 6
ENDMDL
MODEL 9
REMARK VINA RESULT:      -7.6      2.128      6.426
REMARK  Name = 
REMARK  7 active torsions:
REMARK  status: ('A' for Active; 'I' for Inactive)
REMARK    1  A    between atoms: C_1  and  C_2
REMARK    2  A    between atoms: C_3  and  N_4
REMARK    3  A    between atoms: N_4  and  C_5
REMARK    4  A    between atoms: C_6  and  C_7
REMARK    5  A    between atoms: C_12  and  C_13
REMARK    6  A    between atoms: C_13  and  C_14
REMARK    7  A    between atoms: C_14  and  C_15
REMARK                            x       y       z     vdW  Elec       q    Type
REMARK                         _______ _______ _______ _____ _____    ______ ____
ROOT
ATOM      1  C   UNL     1       4.950   4.837  17.676  0.00  0.00    +0.000 A 
ATOM      2  C   UNL     1       6.344   5.046  17.529  0.00  0.00    +0.000 A 
ATOM      3  C   UNL     1       6.980   4.598  16.380  0.00  0.00    +0.000 A 
ATOM      4  N   UNL     1       6.358   3.948  15.380  0.00  0.00    +0.000 NA
ATOM      5  C   UNL     1       5.046   3.700  15.558  0.00  0.00    +0.000 A 
ATOM      6  C   UNL     1       4.289   4.080  16.677  0.00  0.00    +0.000 A 
ENDROOT
BRANCH   1   7
ATOM      7  N   UNL     1       4.246   5.448  18.750  0.00  0.00    +0.000 N 
ATOM      8  H   UNL     1       3.944   4.829  19.496  0.00  0.00    +0.000 HD
BRANCH   7  11
ATOM      9  C   UNL     1       2.446   6.052  21.000  0.00  0.00    +0.000 C 
ATOM     10  C   UNL     1       2.521   6.908  19.765  0.00  0.00    +0.000 A 
ATOM     11  C   UNL     1       3.427   6.620  18.706  0.00  0.00    +0.000 A 
ATOM     12  C   UNL     1       3.541   7.520  17.632  0.00  0.00    +0.000 A 
ATOM     13  C   UNL     1       2.793   8.697  17.557  0.00  0.00    +0.000 A 
ATOM     14  C   UNL     1       1.852   8.920  18.559  0.00  0.00    +0.000 A 
ATOM     15  N   UNL     1       0.957   9.955  18.711  0.00  0.00    +0.000 N 
ATOM     16  C   UNL     1       0.180   9.750  19.817  0.00  0.00    +0.000 A 
ATOM     17  C   UNL     1       0.621   8.596  20.425  0.00  0.00    +0.000 A 
ATOM     18  C   UNL     1       1.685   8.055  19.639  0.00  0.00    +0.000 A 
ATOM     19  H   UNL     1       0.877  10.738  18.078  0.00  0.00    +0.000 HD
ENDBRANCH   7  11
ENDBRANCH   1   7
BRANCH   2  20
ATOM     20  C   UNL     1       7.170   5.658  18.530  0.00  0.00    +0.000 C 
ATOM     21  N   UNL     1       7.845   6.215  19.292  0.00  0.00    +0.000 NA
ENDBRANCH   2  20
BRANCH   6  22
ATOM     22  C   UNL     1       2.827   3.660  16.693  0.00  0.00    +0.000 C 
BRANCH  22  23
ATOM     23  C   UNL     1       2.589   2.363  17.506  0.00  0.00    +0.000 C 
BRANCH  23  24
ATOM     24  C   UNL     1       2.253   2.489  18.978  0.00  0.00    +0.000 A 
ATOM     25  C   UNL     1       0.982   2.814  19.466  0.00  0.00    +0.000 A 
ATOM     26  C   UNL     1       0.756   2.938  20.842  0.00  0.00    +0.000 A 
ATOM     27  C   UNL     1       1.791   2.726  21.750  0.00  0.00    +0.000 A 
ATOM     28  C   UNL     1       3.052   2.368  21.285  0.00  0.00    +0.000 A 
ATOM     29  C   UNL     1       3.278   2.246  19.912  0.00  0.00    +0.000 A 
ENDBRANCH  23  24
ENDBRANCH  22  23
ENDBRANCH   6  22
TORSDOF 6
ENDMDL
